MODEL 1
REMARK VINA RESULT:      -7.3      0.000      0.000
REMARK  Name = 
REMARK  8 active torsions:
REMARK  status: ('A' for Active; 'I' for Inactive)
REMARK    1  A    between atoms: C_1  and  O_2
REMARK    2  A    between atoms: O_2  and  C_3
REMARK    3  A    between atoms: C_3  and  C_5
REMARK    4  A    between atoms: C_5  and  C_6
REMARK    5  A    between atoms: C_7  and  C_8
REMARK    6  A    between atoms: C_11  and  O_12
REMARK    7  A    between atoms: O_12  and  C_13
REMARK    8  A    between atoms: C_13  and  C_14
REMARK                            x       y       z     vdW  Elec       q    Type
REMARK                         _______ _______ _______ _____ _____    ______ ____
ROOT
ATOM      1  C   UNL     1       6.090   5.430  16.907  0.00  0.00    +0.000 A 
ATOM      2  C   UNL     1       6.296   6.733  17.320  0.00  0.00    +0.000 A 
ATOM      3  C   UNL     1       7.514   7.572  17.279  0.00  0.00    +0.000 C 
ATOM      4  N   UNL     1       5.149   7.255  17.854  0.00  0.00    +0.000 NA
ATOM      5  C   UNL     1       4.238   6.305  17.782  0.00  0.00    +0.000 A 
ATOM      6  C   UNL     1       2.854   6.274  18.158  0.00  0.00    +0.000 A 
ATOM      7  C   UNL     1       2.146   5.140  17.989  0.00  0.00    +0.000 A 
ATOM      8  C   UNL     1       2.739   3.949  17.406  0.00  0.00    +0.000 A 
ATOM      9  C   UNL     1       4.027   3.980  17.029  0.00  0.00    +0.000 A 
ATOM     10  N   UNL     1       4.769   5.147  17.214  0.00  0.00    +0.000 N 
ENDROOT
BRANCH   1  11
ATOM     11  C   UNL     1       7.039   4.450  16.305  0.00  0.00    +0.000 C 
BRANCH  11  12
ATOM     12  C   UNL     1       7.048   4.592  14.796  0.00  0.00    +0.000 C 
ATOM     13  O   UNL     1       7.655   5.448  14.165  0.00  0.00    +0.000 OA
BRANCH  12  15
ATOM     14  C   UNL     1       6.212   3.680  12.813  0.00  0.00    +0.000 C 
ATOM     15  O   UNL     1       6.321   3.583  14.234  0.00  0.00    +0.000 OA
ENDBRANCH  12  15
ENDBRANCH  11  12
ENDBRANCH   1  11
BRANCH   6  16
ATOM     16  O   UNL     1       2.233   7.394  18.688  0.00  0.00    +0.000 OA
BRANCH  16  17
ATOM     17  C   UNL     1       2.029   7.392  20.105  0.00  0.00    +0.000 C 
BRANCH  17  18
ATOM     18  C   UNL     1       1.207   8.589  20.521  0.00  0.00    +0.000 A 
ATOM     19  C   UNL     1       0.687   9.489  19.583  0.00  0.00    +0.000 A 
ATOM     20  C   UNL     1      -0.050  10.596  20.003  0.00  0.00    +0.000 A 
ATOM     21  C   UNL     1      -0.290  10.803  21.361  0.00  0.00    +0.000 A 
ATOM     22  C   UNL     1       0.187   9.892  22.301  0.00  0.00    +0.000 A 
ATOM     23  C   UNL     1       0.924   8.786  21.882  0.00  0.00    +0.000 A 
ENDBRANCH  17  18
ENDBRANCH  16  17
ENDBRANCH   6  16
TORSDOF 6
ENDMDL
MODEL 2
REMARK VINA RESULT:      -7.3      0.239      1.035
REMARK  Name = 
REMARK  8 active torsions:
REMARK  status: ('A' for Active; 'I' for Inactive)
REMARK    1  A    between atoms: C_1  and  O_2
REMARK    2  A    between atoms: O_2  and  C_3
REMARK    3  A    between atoms: C_3  and  C_5
REMARK    4  A    between atoms: C_5  and  C_6
REMARK    5  A    between atoms: C_7  and  C_8
REMARK    6  A    between atoms: C_11  and  O_12
REMARK    7  A    between atoms: O_12  and  C_13
REMARK    8  A    between atoms: C_13  and  C_14
REMARK                            x       y       z     vdW  Elec       q    Type
REMARK                         _______ _______ _______ _____ _____    ______ ____
ROOT
ATOM      1  C   UNL     1       5.926   5.306  16.824  0.00  0.00    +0.000 A 
ATOM      2  C   UNL     1       6.249   6.572  17.275  0.00  0.00    +0.000 A 
ATOM      3  C   UNL     1       7.519   7.327  17.191  0.00  0.00    +0.000 C 
ATOM      4  N   UNL     1       5.176   7.148  17.898  0.00  0.00    +0.000 NA
ATOM      5  C   UNL     1       4.197   6.267  17.846  0.00  0.00    +0.000 A 
ATOM      6  C   UNL     1       2.838   6.315  18.304  0.00  0.00    +0.000 A 
ATOM      7  C   UNL     1       2.043   5.241  18.135  0.00  0.00    +0.000 A 
ATOM      8  C   UNL     1       2.514   4.038  17.471  0.00  0.00    +0.000 A 
ATOM      9  C   UNL     1       3.777   3.996  17.017  0.00  0.00    +0.000 A 
ATOM     10  N   UNL     1       4.610   5.101  17.202  0.00  0.00    +0.000 N 
ENDROOT
BRANCH   1  11
ATOM     11  C   UNL     1       6.767   4.290  16.128  0.00  0.00    +0.000 C 
BRANCH  11  12
ATOM     12  C   UNL     1       6.888   4.633  14.656  0.00  0.00    +0.000 C 
ATOM     13  O   UNL     1       7.734   5.367  14.165  0.00  0.00    +0.000 OA
BRANCH  12  15
ATOM     14  C   UNL     1       6.374   3.572  12.639  0.00  0.00    +0.000 C 
ATOM     15  O   UNL     1       5.942   3.953  13.946  0.00  0.00    +0.000 OA
ENDBRANCH  12  15
ENDBRANCH  11  12
ENDBRANCH   1  11
BRANCH   6  16
ATOM     16  O   UNL     1       2.331   7.452  18.914  0.00  0.00    +0.000 OA
BRANCH  16  17
ATOM     17  C   UNL     1       1.906   7.302  20.274  0.00  0.00    +0.000 C 
BRANCH  17  18
ATOM     18  C   UNL     1       1.140   8.524  20.723  0.00  0.00    +0.000 A 
ATOM     19  C   UNL     1       0.858   8.763  22.074  0.00  0.00    +0.000 A 
ATOM     20  C   UNL     1       0.130   9.892  22.451  0.00  0.00    +0.000 A 
ATOM     21  C   UNL     1      -0.305  10.800  21.487  0.00  0.00    +0.000 A 
ATOM     22  C   UNL     1       0.004  10.593  20.145  0.00  0.00    +0.000 A 
ATOM     23  C   UNL     1       0.731   9.467  19.766  0.00  0.00    +0.000 A 
ENDBRANCH  17  18
ENDBRANCH  16  17
ENDBRANCH   6  16
TORSDOF 6
ENDMDL
MODEL 3
REMARK VINA RESULT:      -7.3      3.067      7.877
REMARK  Name = 
REMARK  8 active torsions:
REMARK  status: ('A' for Active; 'I' for Inactive)
REMARK    1  A    between atoms: C_1  and  O_2
REMARK    2  A    between atoms: O_2  and  C_3
REMARK    3  A    between atoms: C_3  and  C_5
REMARK    4  A    between atoms: C_5  and  C_6
REMARK    5  A    between atoms: C_7  and  C_8
REMARK    6  A    between atoms: C_11  and  O_12
REMARK    7  A    between atoms: O_12  and  C_13
REMARK    8  A    between atoms: C_13  and  C_14
REMARK                            x       y       z     vdW  Elec       q    Type
REMARK                         _______ _______ _______ _____ _____    ______ ____
ROOT
ATOM      1  C   UNL     1       3.315   4.287  20.158  0.00  0.00    +0.000 A 
ATOM      2  C   UNL     1       4.251   3.300  19.910  0.00  0.00    +0.000 A 
ATOM      3  C   UNL     1       4.529   2.037  20.629  0.00  0.00    +0.000 C 
ATOM      4  N   UNL     1       5.011   3.623  18.819  0.00  0.00    +0.000 NA
ATOM      5  C   UNL     1       4.570   4.788  18.388  0.00  0.00    +0.000 A 
ATOM      6  C   UNL     1       4.956   5.606  17.275  0.00  0.00    +0.000 A 
ATOM      7  C   UNL     1       4.336   6.786  17.073  0.00  0.00    +0.000 A 
ATOM      8  C   UNL     1       3.261   7.242  17.937  0.00  0.00    +0.000 A 
ATOM      9  C   UNL     1       2.878   6.468  18.965  0.00  0.00    +0.000 A 
ATOM     10  N   UNL     1       3.526   5.252  19.188  0.00  0.00    +0.000 N 
ENDROOT
BRANCH   1  11
ATOM     11  C   UNL     1       2.300   4.398  21.245  0.00  0.00    +0.000 C 
BRANCH  11  12
ATOM     12  C   UNL     1       1.297   3.267  21.140  0.00  0.00    +0.000 C 
ATOM     13  O   UNL     1       1.130   2.385  21.972  0.00  0.00    +0.000 OA
BRANCH  12  15
ATOM     14  C   UNL     1       0.748   2.350  19.062  0.00  0.00    +0.000 C 
ATOM     15  O   UNL     1       0.560   3.410  20.001  0.00  0.00    +0.000 OA
ENDBRANCH  12  15
ENDBRANCH  11  12
ENDBRANCH   1  11
BRANCH   6  16
ATOM     16  O   UNL     1       5.953   5.201  16.402  0.00  0.00    +0.000 OA
BRANCH  16  17
ATOM     17  C   UNL     1       5.642   4.079  15.566  0.00  0.00    +0.000 C 
BRANCH  17  18
ATOM     18  C   UNL     1       6.298   4.233  14.214  0.00  0.00    +0.000 A 
ATOM     19  C   UNL     1       7.313   5.171  13.988  0.00  0.00    +0.000 A 
ATOM     20  C   UNL     1       7.882   5.301  12.721  0.00  0.00    +0.000 A 
ATOM     21  C   UNL     1       7.457   4.483  11.675  0.00  0.00    +0.000 A 
ATOM     22  C   UNL     1       6.476   3.519  11.898  0.00  0.00    +0.000 A 
ATOM     23  C   UNL     1       5.907   3.389  13.163  0.00  0.00    +0.000 A 
ENDBRANCH  17  18
ENDBRANCH  16  17
ENDBRANCH   6  16
TORSDOF 6
ENDMDL
MODEL 4
REMARK VINA RESULT:      -7.2      3.086      5.098
REMARK  Name = 
REMARK  8 active torsions:
REMARK  status: ('A' for Active; 'I' for Inactive)
REMARK    1  A    between atoms: C_1  and  O_2
REMARK    2  A    between atoms: O_2  and  C_3
REMARK    3  A    between atoms: C_3  and  C_5
REMARK    4  A    between atoms: C_5  and  C_6
REMARK    5  A    between atoms: C_7  and  C_8
REMARK    6  A    between atoms: C_11  and  O_12
REMARK    7  A    between atoms: O_12  and  C_13
REMARK    8  A    between atoms: C_13  and  C_14
REMARK                            x       y       z     vdW  Elec       q    Type
REMARK                         _______ _______ _______ _____ _____    ______ ____
ROOT
ATOM      1  C   UNL     1       5.933   6.027  16.852  0.00  0.00    +0.000 A 
ATOM      2  C   UNL     1       6.066   4.896  16.067  0.00  0.00    +0.000 A 
ATOM      3  C   UNL     1       7.206   4.421  15.252  0.00  0.00    +0.000 C 
ATOM      4  N   UNL     1       4.915   4.158  16.088  0.00  0.00    +0.000 NA
ATOM      5  C   UNL     1       4.070   4.807  16.866  0.00  0.00    +0.000 A 
ATOM      6  C   UNL     1       2.730   4.510  17.283  0.00  0.00    +0.000 A 
ATOM      7  C   UNL     1       2.077   5.376  18.083  0.00  0.00    +0.000 A 
ATOM      8  C   UNL     1       2.705   6.594  18.563  0.00  0.00    +0.000 A 
ATOM      9  C   UNL     1       3.968   6.865  18.197  0.00  0.00    +0.000 A 
ATOM     10  N   UNL     1       4.644   5.979  17.357  0.00  0.00    +0.000 N 
ENDROOT
BRANCH   1  11
ATOM     11  C   UNL     1       6.894   7.138  17.107  0.00  0.00    +0.000 C 
BRANCH  11  12
ATOM     12  C   UNL     1       7.770   6.807  18.299  0.00  0.00    +0.000 C 
ATOM     13  O   UNL     1       7.864   5.707  18.829  0.00  0.00    +0.000 OA
BRANCH  12  15
ATOM     14  C   UNL     1       8.149   9.082  17.924  0.00  0.00    +0.000 C 
ATOM     15  O   UNL     1       8.489   7.908  18.662  0.00  0.00    +0.000 OA
ENDBRANCH  12  15
ENDBRANCH  11  12
ENDBRANCH   1  11
BRANCH   6  16
ATOM     16  O   UNL     1       2.098   3.344  16.879  0.00  0.00    +0.000 OA
BRANCH  16  17
ATOM     17  C   UNL     1       2.437   2.158  17.607  0.00  0.00    +0.000 C 
BRANCH  17  18
ATOM     18  C   UNL     1       2.311   2.397  19.092  0.00  0.00    +0.000 A 
ATOM     19  C   UNL     1       1.065   2.576  19.708  0.00  0.00    +0.000 A 
ATOM     20  C   UNL     1       0.987   2.816  21.080  0.00  0.00    +0.000 A 
ATOM     21  C   UNL     1       2.147   2.860  21.851  0.00  0.00    +0.000 A 
ATOM     22  C   UNL     1       3.388   2.643  21.257  0.00  0.00    +0.000 A 
ATOM     23  C   UNL     1       3.469   2.404  19.886  0.00  0.00    +0.000 A 
ENDBRANCH  17  18
ENDBRANCH  16  17
ENDBRANCH   6  16
TORSDOF 6
ENDMDL
MODEL 5
REMARK VINA RESULT:      -7.1      3.464      8.082
REMARK  Name = 
REMARK  8 active torsions:
REMARK  status: ('A' for Active; 'I' for Inactive)
REMARK    1  A    between atoms: C_1  and  O_2
REMARK    2  A    between atoms: O_2  and  C_3
REMARK    3  A    between atoms: C_3  and  C_5
REMARK    4  A    between atoms: C_5  and  C_6
REMARK    5  A    between atoms: C_7  and  C_8
REMARK    6  A    between atoms: C_11  and  O_12
REMARK    7  A    between atoms: O_12  and  C_13
REMARK    8  A    between atoms: C_13  and  C_14
REMARK                            x       y       z     vdW  Elec       q    Type
REMARK                         _______ _______ _______ _____ _____    ______ ____
ROOT
ATOM      1  C   UNL     1       4.314   3.889  18.747  0.00  0.00    +0.000 A 
ATOM      2  C   UNL     1       3.671   3.473  17.596  0.00  0.00    +0.000 A 
ATOM      3  C   UNL     1       2.502   2.583  17.418  0.00  0.00    +0.000 C 
ATOM      4  N   UNL     1       4.279   3.997  16.489  0.00  0.00    +0.000 NA
ATOM      5  C   UNL     1       5.285   4.728  16.927  0.00  0.00    +0.000 A 
ATOM      6  C   UNL     1       6.256   5.531  16.241  0.00  0.00    +0.000 A 
ATOM      7  C   UNL     1       7.208   6.170  16.950  0.00  0.00    +0.000 A 
ATOM      8  C   UNL     1       7.263   6.092  18.399  0.00  0.00    +0.000 A 
ATOM      9  C   UNL     1       6.342   5.362  19.048  0.00  0.00    +0.000 A 
ATOM     10  N   UNL     1       5.362   4.687  18.319  0.00  0.00    +0.000 N 
ENDROOT
BRANCH   1  11
ATOM     11  C   UNL     1       4.044   3.554  20.175  0.00  0.00    +0.000 C 
BRANCH  11  12
ATOM     12  C   UNL     1       2.876   4.372  20.690  0.00  0.00    +0.000 C 
ATOM     13  O   UNL     1       2.501   5.444  20.233  0.00  0.00    +0.000 OA
BRANCH  12  15
ATOM     14  C   UNL     1       1.331   2.716  21.269  0.00  0.00    +0.000 C 
ATOM     15  O   UNL     1       2.262   3.706  21.711  0.00  0.00    +0.000 OA
ENDBRANCH  12  15
ENDBRANCH  11  12
ENDBRANCH   1  11
BRANCH   6  16
ATOM     16  O   UNL     1       6.226   5.665  14.862  0.00  0.00    +0.000 OA
BRANCH  16  17
ATOM     17  C   UNL     1       7.193   4.900  14.133  0.00  0.00    +0.000 C 
BRANCH  17  18
ATOM     18  C   UNL     1       6.508   4.025  13.109  0.00  0.00    +0.000 A 
ATOM     19  C   UNL     1       7.231   3.182  12.256  0.00  0.00    +0.000 A 
ATOM     20  C   UNL     1       6.567   2.404  11.308  0.00  0.00    +0.000 A 
ATOM     21  C   UNL     1       5.176   2.446  11.216  0.00  0.00    +0.000 A 
ATOM     22  C   UNL     1       4.444   3.250  12.087  0.00  0.00    +0.000 A 
ATOM     23  C   UNL     1       5.106   4.028  13.034  0.00  0.00    +0.000 A 
ENDBRANCH  17  18
ENDBRANCH  16  17
ENDBRANCH   6  16
TORSDOF 6
ENDMDL
MODEL 6
REMARK VINA RESULT:      -7.0      1.830      2.535
REMARK  Name = 
REMARK  8 active torsions:
REMARK  status: ('A' for Active; 'I' for Inactive)
REMARK    1  A    between atoms: C_1  and  O_2
REMARK    2  A    between atoms: O_2  and  C_3
REMARK    3  A    between atoms: C_3  and  C_5
REMARK    4  A    between atoms: C_5  and  C_6
REMARK    5  A    between atoms: C_7  and  C_8
REMARK    6  A    between atoms: C_11  and  O_12
REMARK    7  A    between atoms: O_12  and  C_13
REMARK    8  A    between atoms: C_13  and  C_14
REMARK                            x       y       z     vdW  Elec       q    Type
REMARK                         _______ _______ _______ _____ _____    ______ ____
ROOT
ATOM      1  C   UNL     1       4.567   5.141  17.578  0.00  0.00    +0.000 A 
ATOM      2  C   UNL     1       4.420   6.445  17.142  0.00  0.00    +0.000 A 
ATOM      3  C   UNL     1       5.066   7.161  16.019  0.00  0.00    +0.000 C 
ATOM      4  N   UNL     1       3.531   7.119  17.934  0.00  0.00    +0.000 NA
ATOM      5  C   UNL     1       3.125   6.264  18.851  0.00  0.00    +0.000 A 
ATOM      6  C   UNL     1       2.185   6.387  19.928  0.00  0.00    +0.000 A 
ATOM      7  C   UNL     1       1.971   5.337  20.745  0.00  0.00    +0.000 A 
ATOM      8  C   UNL     1       2.645   4.066  20.548  0.00  0.00    +0.000 A 
ATOM      9  C   UNL     1       3.508   3.937  19.527  0.00  0.00    +0.000 A 
ATOM     10  N   UNL     1       3.744   5.025  18.686  0.00  0.00    +0.000 N 
ENDROOT
BRANCH   1  11
ATOM     11  C   UNL     1       5.441   4.048  17.064  0.00  0.00    +0.000 C 
BRANCH  11  12
ATOM     12  C   UNL     1       6.898   4.382  17.317  0.00  0.00    +0.000 C 
ATOM     13  O   UNL     1       7.752   4.540  16.454  0.00  0.00    +0.000 OA
BRANCH  12  15
ATOM     14  C   UNL     1       7.760   5.764  18.993  0.00  0.00    +0.000 C 
ATOM     15  O   UNL     1       7.109   4.539  18.656  0.00  0.00    +0.000 OA
ENDBRANCH  12  15
ENDBRANCH  11  12
ENDBRANCH   1  11
BRANCH   6  16
ATOM     16  O   UNL     1       1.491   7.568  20.137  0.00  0.00    +0.000 OA
BRANCH  16  17
ATOM     17  C   UNL     1       1.582   8.130  21.452  0.00  0.00    +0.000 C 
BRANCH  17  18
ATOM     18  C   UNL     1       0.607   9.272  21.605  0.00  0.00    +0.000 A 
ATOM     19  C   UNL     1       0.279  10.112  20.533  0.00  0.00    +0.000 A 
ATOM     20  C   UNL     1      -0.610  11.171  20.716  0.00  0.00    +0.000 A 
ATOM     21  C   UNL     1      -1.193  11.390  21.964  0.00  0.00    +0.000 A 
ATOM     22  C   UNL     1      -0.905  10.537  23.027  0.00  0.00    +0.000 A 
ATOM     23  C   UNL     1      -0.017   9.478  22.846  0.00  0.00    +0.000 A 
ENDBRANCH  17  18
ENDBRANCH  16  17
ENDBRANCH   6  16
TORSDOF 6
ENDMDL
MODEL 7
REMARK VINA RESULT:      -7.0      1.096      1.658
REMARK  Name = 
REMARK  8 active torsions:
REMARK  status: ('A' for Active; 'I' for Inactive)
REMARK    1  A    between atoms: C_1  and  O_2
REMARK    2  A    between atoms: O_2  and  C_3
REMARK    3  A    between atoms: C_3  and  C_5
REMARK    4  A    between atoms: C_5  and  C_6
REMARK    5  A    between atoms: C_7  and  C_8
REMARK    6  A    between atoms: C_11  and  O_12
REMARK    7  A    between atoms: O_12  and  C_13
REMARK    8  A    between atoms: C_13  and  C_14
REMARK                            x       y       z     vdW  Elec       q    Type
REMARK                         _______ _______ _______ _____ _____    ______ ____
ROOT
ATOM      1  C   UNL     1       6.066   5.412  16.952  0.00  0.00    +0.000 A 
ATOM      2  C   UNL     1       6.312   6.714  17.349  0.00  0.00    +0.000 A 
ATOM      3  C   UNL     1       7.553   7.517  17.293  0.00  0.00    +0.000 C 
ATOM      4  N   UNL     1       5.183   7.275  17.881  0.00  0.00    +0.000 NA
ATOM      5  C   UNL     1       4.245   6.351  17.824  0.00  0.00    +0.000 A 
ATOM      6  C   UNL     1       2.862   6.365  18.205  0.00  0.00    +0.000 A 
ATOM      7  C   UNL     1       2.121   5.249  18.052  0.00  0.00    +0.000 A 
ATOM      8  C   UNL     1       2.676   4.035  17.481  0.00  0.00    +0.000 A 
ATOM      9  C   UNL     1       3.963   4.024  17.099  0.00  0.00    +0.000 A 
ATOM     10  N   UNL     1       4.740   5.171  17.268  0.00  0.00    +0.000 N 
ENDROOT
BRANCH   1  11
ATOM     11  C   UNL     1       6.985   4.399  16.359  0.00  0.00    +0.000 C 
BRANCH  11  12
ATOM     12  C   UNL     1       7.039   4.561  14.853  0.00  0.00    +0.000 C 
ATOM     13  O   UNL     1       7.703   5.393  14.250  0.00  0.00    +0.000 OA
BRANCH  12  15
ATOM     14  C   UNL     1       6.257   3.683  12.833  0.00  0.00    +0.000 C 
ATOM     15  O   UNL     1       6.275   3.598  14.258  0.00  0.00    +0.000 OA
ENDBRANCH  12  15
ENDBRANCH  11  12
ENDBRANCH   1  11
BRANCH   6  16
ATOM     16  O   UNL     1       2.275   7.508  18.723  0.00  0.00    +0.000 OA
BRANCH  16  17
ATOM     17  C   UNL     1       1.818   8.472  17.767  0.00  0.00    +0.000 C 
BRANCH  17  18
ATOM     18  C   UNL     1       1.522   9.788  18.447  0.00  0.00    +0.000 A 
ATOM     19  C   UNL     1       0.640   9.877  19.531  0.00  0.00    +0.000 A 
ATOM     20  C   UNL     1       0.374  11.113  20.121  0.00  0.00    +0.000 A 
ATOM     21  C   UNL     1       1.000  12.265  19.648  0.00  0.00    +0.000 A 
ATOM     22  C   UNL     1       1.910  12.182  18.596  0.00  0.00    +0.000 A 
ATOM     23  C   UNL     1       2.177  10.949  18.006  0.00  0.00    +0.000 A 
ENDBRANCH  17  18
ENDBRANCH  16  17
ENDBRANCH   6  16
TORSDOF 6
ENDMDL
MODEL 8
REMARK VINA RESULT:      -7.0      3.930      8.141
REMARK  Name = 
REMARK  8 active torsions:
REMARK  status: ('A' for Active; 'I' for Inactive)
REMARK    1  A    between atoms: C_1  and  O_2
REMARK    2  A    between atoms: O_2  and  C_3
REMARK    3  A    between atoms: C_3  and  C_5
REMARK    4  A    between atoms: C_5  and  C_6
REMARK    5  A    between atoms: C_7  and  C_8
REMARK    6  A    between atoms: C_11  and  O_12
REMARK    7  A    between atoms: O_12  and  C_13
REMARK    8  A    between atoms: C_13  and  C_14
REMARK                            x       y       z     vdW  Elec       q    Type
REMARK                         _______ _______ _______ _____ _____    ______ ____
ROOT
ATOM      1  C   UNL     1       0.008  10.391  20.653  0.00  0.00    +0.000 A 
ATOM      2  C   UNL     1       0.086   9.682  21.838  0.00  0.00    +0.000 A 
ATOM      3  C   UNL     1      -0.524   9.950  23.159  0.00  0.00    +0.000 C 
ATOM      4  N   UNL     1       0.882   8.580  21.687  0.00  0.00    +0.000 NA
ATOM      5  C   UNL     1       1.301   8.590  20.437  0.00  0.00    +0.000 A 
ATOM      6  C   UNL     1       2.133   7.685  19.698  0.00  0.00    +0.000 A 
ATOM      7  C   UNL     1       2.425   7.955  18.409  0.00  0.00    +0.000 A 
ATOM      8  C   UNL     1       1.895   9.126  17.735  0.00  0.00    +0.000 A 
ATOM      9  C   UNL     1       1.095   9.964  18.415  0.00  0.00    +0.000 A 
ATOM     10  N   UNL     1       0.800   9.697  19.753  0.00  0.00    +0.000 N 
ENDROOT
BRANCH   1  11
ATOM     11  C   UNL     1      -0.701  11.664  20.339  0.00  0.00    +0.000 C 
BRANCH  11  12
ATOM     12  C   UNL     1       0.198  12.849  20.634  0.00  0.00    +0.000 C 
ATOM     13  O   UNL     1       0.714  13.097  21.716  0.00  0.00    +0.000 OA
BRANCH  12  15
ATOM     14  C   UNL     1      -0.575  13.316  18.479  0.00  0.00    +0.000 C 
ATOM     15  O   UNL     1       0.396  13.572  19.494  0.00  0.00    +0.000 OA
ENDBRANCH  12  15
ENDBRANCH  11  12
ENDBRANCH   1  11
BRANCH   6  16
ATOM     16  O   UNL     1       2.637   6.536  20.286  0.00  0.00    +0.000 OA
BRANCH  16  17
ATOM     17  C   UNL     1       3.387   5.666  19.430  0.00  0.00    +0.000 C 
BRANCH  17  18
ATOM     18  C   UNL     1       2.604   4.405  19.146  0.00  0.00    +0.000 A 
ATOM     19  C   UNL     1       2.924   3.563  18.074  0.00  0.00    +0.000 A 
ATOM     20  C   UNL     1       2.167   2.418  17.829  0.00  0.00    +0.000 A 
ATOM     21  C   UNL     1       1.097   2.093  18.662  0.00  0.00    +0.000 A 
ATOM     22  C   UNL     1       0.794   2.902  19.755  0.00  0.00    +0.000 A 
ATOM     23  C   UNL     1       1.550   4.047  20.002  0.00  0.00    +0.000 A 
ENDBRANCH  17  18
ENDBRANCH  16  17
ENDBRANCH   6  16
TORSDOF 6
ENDMDL
MODEL 9
REMARK VINA RESULT:      -7.0      3.970      8.168
REMARK  Name = 
REMARK  8 active torsions:
REMARK  status: ('A' for Active; 'I' for Inactive)
REMARK    1  A    between atoms: C_1  and  O_2
REMARK    2  A    between atoms: O_2  and  C_3
REMARK    3  A    between atoms: C_3  and  C_5
REMARK    4  A    between atoms: C_5  and  C_6
REMARK    5  A    between atoms: C_7  and  C_8
REMARK    6  A    between atoms: C_11  and  O_12
REMARK    7  A    between atoms: O_12  and  C_13
REMARK    8  A    between atoms: C_13  and  C_14
REMARK                            x       y       z     vdW  Elec       q    Type
REMARK                         _______ _______ _______ _____ _____    ______ ____
ROOT
ATOM      1  C   UNL     1       0.198  10.158  20.680  0.00  0.00    +0.000 A 
ATOM      2  C   UNL     1       0.315   9.451  21.862  0.00  0.00    +0.000 A 
ATOM      3  C   UNL     1      -0.233   9.734  23.208  0.00  0.00    +0.000 C 
ATOM      4  N   UNL     1       1.084   8.335  21.681  0.00  0.00    +0.000 NA
ATOM      5  C   UNL     1       1.449   8.334  20.414  0.00  0.00    +0.000 A 
ATOM      6  C   UNL     1       2.232   7.413  19.643  0.00  0.00    +0.000 A 
ATOM      7  C   UNL     1       2.472   7.673  18.342  0.00  0.00    +0.000 A 
ATOM      8  C   UNL     1       1.933   8.852  17.687  0.00  0.00    +0.000 A 
ATOM      9  C   UNL     1       1.179   9.705  18.398  0.00  0.00    +0.000 A 
ATOM     10  N   UNL     1       0.938   9.448  19.749  0.00  0.00    +0.000 N 
ENDROOT
BRANCH   1  11
ATOM     11  C   UNL     1      -0.502  11.443  20.392  0.00  0.00    +0.000 C 
BRANCH  11  12
ATOM     12  C   UNL     1       0.461  12.605  20.537  0.00  0.00    +0.000 C 
ATOM     13  O   UNL     1       0.991  12.963  21.580  0.00  0.00    +0.000 OA
BRANCH  12  15
ATOM     14  C   UNL     1      -0.442  13.150  18.451  0.00  0.00    +0.000 C 
ATOM     15  O   UNL     1       0.696  13.164  19.314  0.00  0.00    +0.000 OA
ENDBRANCH  12  15
ENDBRANCH  11  12
ENDBRANCH   1  11
BRANCH   6  16
ATOM     16  O   UNL     1       2.740   6.256  20.213  0.00  0.00    +0.000 OA
BRANCH  16  17
ATOM     17  C   UNL     1       1.846   5.140  20.283  0.00  0.00    +0.000 C 
BRANCH  17  18
ATOM     18  C   UNL     1       2.410   3.964  19.522  0.00  0.00    +0.000 A 
ATOM     19  C   UNL     1       3.383   3.124  20.077  0.00  0.00    +0.000 A 
ATOM     20  C   UNL     1       3.898   2.059  19.337  0.00  0.00    +0.000 A 
ATOM     21  C   UNL     1       3.433   1.813  18.046  0.00  0.00    +0.000 A 
ATOM     22  C   UNL     1       2.436   2.618  17.499  0.00  0.00    +0.000 A 
ATOM     23  C   UNL     1       1.921   3.682  18.236  0.00  0.00    +0.000 A 
ENDBRANCH  17  18
ENDBRANCH  16  17
ENDBRANCH   6  16
TORSDOF 6
ENDMDL
