MODEL 1
REMARK VINA RESULT:      -7.9      0.000      0.000
REMARK  Name = 
REMARK  7 active torsions:
REMARK  status: ('A' for Active; 'I' for Inactive)
REMARK    1  A    between atoms: C_2  and  C_3
REMARK    2  A    between atoms: C_3  and  S_4
REMARK    3  A    between atoms: S_4  and  C_5
REMARK    4  A    between atoms: C_8  and  C_9
REMARK    5  A    between atoms: N_12  and  C_13
REMARK    6  A    between atoms: C_13  and  C_14
REMARK    7  A    between atoms: N_19  and  C_20
REMARK                            x       y       z     vdW  Elec       q    Type
REMARK                         _______ _______ _______ _____ _____    ______ ____
ROOT
ATOM      1  C   UNL     1       5.479   4.812  18.862  0.00  0.00    +0.000 A 
ATOM      2  N   UNL     1       6.393   4.771  19.804  0.00  0.00    +0.000 NA
ATOM      3  N   UNL     1       7.368   5.680  19.486  0.00  0.00    +0.000 NA
ATOM      4  C   UNL     1       7.035   6.260  18.351  0.00  0.00    +0.000 A 
ATOM      5  N   UNL     1       5.825   5.752  17.923  0.00  0.00    +0.000 N 
ENDROOT
BRANCH   4   6
ATOM      6  C   UNL     1       7.905   7.305  17.655  0.00  0.00    +0.000 C 
ATOM      7  C   UNL     1       7.460   8.755  17.630  0.00  0.00    +0.000 C 
ATOM      8  C   UNL     1       8.565   8.345  18.540  0.00  0.00    +0.000 C 
ENDBRANCH   4   6
BRANCH   1   9
ATOM      9  S   UNL     1       4.065   3.796  18.818  0.00  0.00    +0.000 S 
BRANCH   9  10
ATOM     10  C   UNL     1       3.074   4.611  20.117  0.00  0.00    +0.000 C 
BRANCH  10  12
ATOM     11  O   UNL     1       2.096   6.075  18.514  0.00  0.00    +0.000 OA
ATOM     12  C   UNL     1       2.389   5.912  19.699  0.00  0.00    +0.000 C 
ATOM     13  N   UNL     1       2.109   6.815  20.709  0.00  0.00    +0.000 N 
ATOM     14  H   UNL     1       2.536   6.619  21.607  0.00  0.00    +0.000 HD
BRANCH  13  15
ATOM     15  C   UNL     1       1.465   8.070  20.563  0.00  0.00    +0.000 A 
ATOM     16  C   UNL     1       1.534   8.850  19.404  0.00  0.00    +0.000 A 
ATOM     17  C   UNL     1       0.935  10.115  19.348  0.00  0.00    +0.000 A 
ATOM     18  C   UNL     1       0.251  10.611  20.453  0.00  0.00    +0.000 A 
ATOM     19  C   UNL     1       0.143   9.825  21.596  0.00  0.00    +0.000 A 
ATOM     20 CL   UNL     1      -0.706  10.430  22.967  0.00  0.00    +0.000 Cl
ATOM     21  C   UNL     1       0.730   8.557  21.652  0.00  0.00    +0.000 A 
ENDBRANCH  13  15
ENDBRANCH  10  12
ENDBRANCH   9  10
ENDBRANCH   1   9
BRANCH   5  22
ATOM     22  C   UNL     1       5.052   6.254  16.806  0.00  0.00    +0.000 C 
BRANCH  22  23
ATOM     23  C   UNL     1       5.354   5.649  15.430  0.00  0.00    +0.000 C 
ATOM     24  C   UNL     1       5.167   4.148  15.308  0.00  0.00    +0.000 C 
ATOM     25  C   UNL     1       6.062   3.795  14.149  0.00  0.00    +0.000 C 
ATOM     26  C   UNL     1       7.193   4.796  14.274  0.00  0.00    +0.000 C 
ATOM     27  O   UNL     1       6.691   5.934  14.993  0.00  0.00    +0.000 OA
ENDBRANCH  22  23
ENDBRANCH   5  22
TORSDOF 7
ENDMDL
MODEL 2
REMARK VINA RESULT:      -7.8      4.619      6.998
REMARK  Name = 
REMARK  7 active torsions:
REMARK  status: ('A' for Active; 'I' for Inactive)
REMARK    1  A    between atoms: C_2  and  C_3
REMARK    2  A    between atoms: C_3  and  S_4
REMARK    3  A    between atoms: S_4  and  C_5
REMARK    4  A    between atoms: C_8  and  C_9
REMARK    5  A    between atoms: N_12  and  C_13
REMARK    6  A    between atoms: C_13  and  C_14
REMARK    7  A    between atoms: N_19  and  C_20
REMARK                            x       y       z     vdW  Elec       q    Type
REMARK                         _______ _______ _______ _____ _____    ______ ____
ROOT
ATOM      1  C   UNL     1       6.517   5.680  16.384  0.00  0.00    +0.000 A 
ATOM      2  N   UNL     1       7.547   5.895  15.599  0.00  0.00    +0.000 NA
ATOM      3  N   UNL     1       7.425   5.073  14.508  0.00  0.00    +0.000 NA
ATOM      4  C   UNL     1       6.322   4.367  14.647  0.00  0.00    +0.000 A 
ATOM      5  N   UNL     1       5.696   4.735  15.821  0.00  0.00    +0.000 N 
ENDROOT
BRANCH   4   6
ATOM      6  C   UNL     1       5.871   3.307  13.645  0.00  0.00    +0.000 C 
ATOM      7  C   UNL     1       4.978   3.702  12.484  0.00  0.00    +0.000 C 
ATOM      8  C   UNL     1       6.419   3.421  12.235  0.00  0.00    +0.000 C 
ENDBRANCH   4   6
BRANCH   1   9
ATOM      9  S   UNL     1       6.266   6.470  17.916  0.00  0.00    +0.000 S 
BRANCH   9  10
ATOM     10  C   UNL     1       7.975   7.019  18.250  0.00  0.00    +0.000 C 
BRANCH  10  12
ATOM     11  O   UNL     1       7.529   9.231  17.490  0.00  0.00    +0.000 OA
ATOM     12  C   UNL     1       8.186   8.532  18.264  0.00  0.00    +0.000 C 
ATOM     13  N   UNL     1       9.090   9.023  19.190  0.00  0.00    +0.000 N 
ATOM     14  H   UNL     1       9.663   8.329  19.656  0.00  0.00    +0.000 HD
BRANCH  13  15
ATOM     15  C   UNL     1       9.430  10.383  19.397  0.00  0.00    +0.000 A 
ATOM     16  C   UNL     1       9.292  11.041  20.624  0.00  0.00    +0.000 A 
ATOM     17  C   UNL     1       9.578  12.407  20.747  0.00  0.00    +0.000 A 
ATOM     18  C   UNL     1      10.015  13.129  19.641  0.00  0.00    +0.000 A 
ATOM     19  C   UNL     1      10.194  12.474  18.426  0.00  0.00    +0.000 A 
ATOM     20 CL   UNL     1      10.738  13.360  17.054  0.00  0.00    +0.000 Cl
ATOM     21  C   UNL     1       9.920  11.108  18.303  0.00  0.00    +0.000 A 
ENDBRANCH  13  15
ENDBRANCH  10  12
ENDBRANCH   9  10
ENDBRANCH   1   9
BRANCH   5  22
ATOM     22  C   UNL     1       4.379   4.303  16.241  0.00  0.00    +0.000 C 
BRANCH  22  23
ATOM     23  C   UNL     1       4.284   3.588  17.593  0.00  0.00    +0.000 C 
ATOM     24  C   UNL     1       3.566   2.251  17.589  0.00  0.00    +0.000 C 
ATOM     25  C   UNL     1       3.116   2.112  19.021  0.00  0.00    +0.000 C 
ATOM     26  C   UNL     1       2.855   3.545  19.438  0.00  0.00    +0.000 C 
ATOM     27  O   UNL     1       3.643   4.397  18.591  0.00  0.00    +0.000 OA
ENDBRANCH  22  23
ENDBRANCH   5  22
TORSDOF 7
ENDMDL
MODEL 3
REMARK VINA RESULT:      -7.8      1.115      1.353
REMARK  Name = 
REMARK  7 active torsions:
REMARK  status: ('A' for Active; 'I' for Inactive)
REMARK    1  A    between atoms: C_2  and  C_3
REMARK    2  A    between atoms: C_3  and  S_4
REMARK    3  A    between atoms: S_4  and  C_5
REMARK    4  A    between atoms: C_8  and  C_9
REMARK    5  A    between atoms: N_12  and  C_13
REMARK    6  A    between atoms: C_13  and  C_14
REMARK    7  A    between atoms: N_19  and  C_20
REMARK                            x       y       z     vdW  Elec       q    Type
REMARK                         _______ _______ _______ _____ _____    ______ ____
ROOT
ATOM      1  C   UNL     1       5.331   4.283  18.810  0.00  0.00    +0.000 A 
ATOM      2  N   UNL     1       5.986   4.550  19.916  0.00  0.00    +0.000 NA
ATOM      3  N   UNL     1       6.933   5.499  19.627  0.00  0.00    +0.000 NA
ATOM      4  C   UNL     1       6.841   5.794  18.347  0.00  0.00    +0.000 A 
ATOM      5  N   UNL     1       5.817   5.057  17.786  0.00  0.00    +0.000 N 
ENDROOT
BRANCH   4   6
ATOM      6  C   UNL     1       7.766   6.786  17.645  0.00  0.00    +0.000 C 
ATOM      7  C   UNL     1       7.327   8.228  17.471  0.00  0.00    +0.000 C 
ATOM      8  C   UNL     1       8.354   7.894  18.497  0.00  0.00    +0.000 C 
ENDBRANCH   4   6
BRANCH   1   9
ATOM      9  S   UNL     1       4.058   3.102  18.682  0.00  0.00    +0.000 S 
BRANCH   9  10
ATOM     10  C   UNL     1       3.105   3.528  20.181  0.00  0.00    +0.000 C 
BRANCH  10  12
ATOM     11  O   UNL     1       0.960   4.555  20.063  0.00  0.00    +0.000 OA
ATOM     12  C   UNL     1       2.179   4.736  20.047  0.00  0.00    +0.000 C 
ATOM     13  N   UNL     1       2.788   5.975  19.952  0.00  0.00    +0.000 N 
ATOM     14  H   UNL     1       3.790   5.963  19.801  0.00  0.00    +0.000 HD
BRANCH  13  15
ATOM     15  C   UNL     1       2.135   7.228  19.840  0.00  0.00    +0.000 A 
ATOM     16  C   UNL     1       2.084   7.976  18.659  0.00  0.00    +0.000 A 
ATOM     17  C   UNL     1       1.485   9.243  18.632  0.00  0.00    +0.000 A 
ATOM     18  C   UNL     1       0.922   9.772  19.789  0.00  0.00    +0.000 A 
ATOM     19  C   UNL     1       0.933   9.017  20.958  0.00  0.00    +0.000 A 
ATOM     20 CL   UNL     1       0.236   9.664  22.394  0.00  0.00    +0.000 Cl
ATOM     21  C   UNL     1       1.520   7.748  20.987  0.00  0.00    +0.000 A 
ENDBRANCH  13  15
ENDBRANCH  10  12
ENDBRANCH   9  10
ENDBRANCH   1   9
BRANCH   5  22
ATOM     22  C   UNL     1       5.303   5.222  16.442  0.00  0.00    +0.000 C 
BRANCH  22  23
ATOM     23  C   UNL     1       5.921   4.339  15.353  0.00  0.00    +0.000 C 
ATOM     24  C   UNL     1       7.044   4.965  14.547  0.00  0.00    +0.000 C 
ATOM     25  C   UNL     1       7.015   4.173  13.265  0.00  0.00    +0.000 C 
ATOM     26  C   UNL     1       5.546   3.837  13.105  0.00  0.00    +0.000 C 
ATOM     27  O   UNL     1       4.944   3.878  14.408  0.00  0.00    +0.000 OA
ENDBRANCH  22  23
ENDBRANCH   5  22
TORSDOF 7
ENDMDL
MODEL 4
REMARK VINA RESULT:      -7.8      3.547      7.911
REMARK  Name = 
REMARK  7 active torsions:
REMARK  status: ('A' for Active; 'I' for Inactive)
REMARK    1  A    between atoms: C_2  and  C_3
REMARK    2  A    between atoms: C_3  and  S_4
REMARK    3  A    between atoms: S_4  and  C_5
REMARK    4  A    between atoms: C_8  and  C_9
REMARK    5  A    between atoms: N_12  and  C_13
REMARK    6  A    between atoms: C_13  and  C_14
REMARK    7  A    between atoms: N_19  and  C_20
REMARK                            x       y       z     vdW  Elec       q    Type
REMARK                         _______ _______ _______ _____ _____    ______ ____
ROOT
ATOM      1  C   UNL     1       4.926   4.488  18.327  0.00  0.00    +0.000 A 
ATOM      2  N   UNL     1       4.847   3.506  17.459  0.00  0.00    +0.000 NA
ATOM      3  N   UNL     1       3.535   3.116  17.380  0.00  0.00    +0.000 NA
ATOM      4  C   UNL     1       2.834   3.865  18.206  0.00  0.00    +0.000 A 
ATOM      5  N   UNL     1       3.677   4.771  18.819  0.00  0.00    +0.000 N 
ENDROOT
BRANCH   4   6
ATOM      6  C   UNL     1       1.332   3.694  18.426  0.00  0.00    +0.000 C 
ATOM      7  C   UNL     1       0.777   2.331  18.791  0.00  0.00    +0.000 C 
ATOM      8  C   UNL     1       0.878   3.383  19.839  0.00  0.00    +0.000 C 
ENDBRANCH   4   6
BRANCH   1   9
ATOM      9  S   UNL     1       6.408   5.277  18.787  0.00  0.00    +0.000 S 
BRANCH   9  10
ATOM     10  C   UNL     1       6.359   6.695  17.637  0.00  0.00    +0.000 C 
BRANCH  10  12
ATOM     11  O   UNL     1       5.211   6.804  15.555  0.00  0.00    +0.000 OA
ATOM     12  C   UNL     1       6.176   6.338  16.164  0.00  0.00    +0.000 C 
ATOM     13  N   UNL     1       7.145   5.529  15.598  0.00  0.00    +0.000 N 
ATOM     14  H   UNL     1       7.796   5.100  16.246  0.00  0.00    +0.000 HD
BRANCH  13  15
ATOM     15  C   UNL     1       7.194   5.087  14.252  0.00  0.00    +0.000 A 
ATOM     16  C   UNL     1       8.054   5.623  13.287  0.00  0.00    +0.000 A 
ATOM     17  C   UNL     1       8.003   5.191  11.955  0.00  0.00    +0.000 A 
ATOM     18  C   UNL     1       7.095   4.208  11.576  0.00  0.00    +0.000 A 
ATOM     19  C   UNL     1       6.264   3.641  12.537  0.00  0.00    +0.000 A 
ATOM     20 CL   UNL     1       5.139   2.421  12.076  0.00  0.00    +0.000 Cl
ATOM     21  C   UNL     1       6.319   4.061  13.870  0.00  0.00    +0.000 A 
ENDBRANCH  13  15
ENDBRANCH  10  12
ENDBRANCH   9  10
ENDBRANCH   1   9
BRANCH   5  22
ATOM     22  C   UNL     1       3.256   5.867  19.667  0.00  0.00    +0.000 C 
BRANCH  22  23
ATOM     23  C   UNL     1       2.268   6.870  19.060  0.00  0.00    +0.000 C 
ATOM     24  C   UNL     1       2.805   7.734  17.934  0.00  0.00    +0.000 C 
ATOM     25  C   UNL     1       1.896   8.935  17.974  0.00  0.00    +0.000 C 
ATOM     26  C   UNL     1       1.561   9.060  19.446  0.00  0.00    +0.000 C 
ATOM     27  O   UNL     1       1.730   7.766  20.045  0.00  0.00    +0.000 OA
ENDBRANCH  22  23
ENDBRANCH   5  22
TORSDOF 7
ENDMDL
MODEL 5
REMARK VINA RESULT:      -7.7      3.685      7.209
REMARK  Name = 
REMARK  7 active torsions:
REMARK  status: ('A' for Active; 'I' for Inactive)
REMARK    1  A    between atoms: C_2  and  C_3
REMARK    2  A    between atoms: C_3  and  S_4
REMARK    3  A    between atoms: S_4  and  C_5
REMARK    4  A    between atoms: C_8  and  C_9
REMARK    5  A    between atoms: N_12  and  C_13
REMARK    6  A    between atoms: C_13  and  C_14
REMARK    7  A    between atoms: N_19  and  C_20
REMARK                            x       y       z     vdW  Elec       q    Type
REMARK                         _______ _______ _______ _____ _____    ______ ____
ROOT
ATOM      1  C   UNL     1       5.598   5.388  18.128  0.00  0.00    +0.000 A 
ATOM      2  N   UNL     1       6.174   4.433  18.820  0.00  0.00    +0.000 NA
ATOM      3  N   UNL     1       5.213   3.832  19.591  0.00  0.00    +0.000 NA
ATOM      4  C   UNL     1       4.065   4.434  19.359  0.00  0.00    +0.000 A 
ATOM      5  N   UNL     1       4.256   5.422  18.415  0.00  0.00    +0.000 N 
ENDROOT
BRANCH   4   6
ATOM      6  C   UNL     1       2.764   4.066  20.071  0.00  0.00    +0.000 C 
ATOM      7  C   UNL     1       1.972   2.857  19.611  0.00  0.00    +0.000 C 
ATOM      8  C   UNL     1       2.763   2.777  20.871  0.00  0.00    +0.000 C 
ENDBRANCH   4   6
BRANCH   1   9
ATOM      9  S   UNL     1       6.436   6.455  17.036  0.00  0.00    +0.000 S 
BRANCH   9  10
ATOM     10  C   UNL     1       7.801   6.984  18.128  0.00  0.00    +0.000 C 
BRANCH  10  12
ATOM     11  O   UNL     1       7.529   9.200  17.301  0.00  0.00    +0.000 OA
ATOM     12  C   UNL     1       8.100   8.482  18.123  0.00  0.00    +0.000 C 
ATOM     13  N   UNL     1       8.982   8.941  19.087  0.00  0.00    +0.000 N 
ATOM     14  H   UNL     1       9.488   8.226  19.597  0.00  0.00    +0.000 HD
BRANCH  13  15
ATOM     15  C   UNL     1       9.391  10.284  19.285  0.00  0.00    +0.000 A 
ATOM     16  C   UNL     1       9.270  10.962  20.503  0.00  0.00    +0.000 A 
ATOM     17  C   UNL     1       9.627  12.312  20.616  0.00  0.00    +0.000 A 
ATOM     18  C   UNL     1      10.118  12.997  19.509  0.00  0.00    +0.000 A 
ATOM     19  C   UNL     1      10.279  12.319  18.304  0.00  0.00    +0.000 A 
ATOM     20 CL   UNL     1      10.889  13.160  16.931  0.00  0.00    +0.000 Cl
ATOM     21  C   UNL     1       9.935  10.969  18.191  0.00  0.00    +0.000 A 
ENDBRANCH  13  15
ENDBRANCH  10  12
ENDBRANCH   9  10
ENDBRANCH   1   9
BRANCH   5  22
ATOM     22  C   UNL     1       3.205   6.191  17.780  0.00  0.00    +0.000 C 
BRANCH  22  23
ATOM     23  C   UNL     1       2.937   7.591  18.343  0.00  0.00    +0.000 C 
ATOM     24  C   UNL     1       1.990   7.663  19.526  0.00  0.00    +0.000 C 
ATOM     25  C   UNL     1       1.475   9.077  19.455  0.00  0.00    +0.000 C 
ATOM     26  C   UNL     1       1.464   9.361  17.966  0.00  0.00    +0.000 C 
ATOM     27  O   UNL     1       2.421   8.487  17.347  0.00  0.00    +0.000 OA
ENDBRANCH  22  23
ENDBRANCH   5  22
TORSDOF 7
ENDMDL
MODEL 6
REMARK VINA RESULT:      -7.7      1.926      2.459
REMARK  Name = 
REMARK  7 active torsions:
REMARK  status: ('A' for Active; 'I' for Inactive)
REMARK    1  A    between atoms: C_2  and  C_3
REMARK    2  A    between atoms: C_3  and  S_4
REMARK    3  A    between atoms: S_4  and  C_5
REMARK    4  A    between atoms: C_8  and  C_9
REMARK    5  A    between atoms: N_12  and  C_13
REMARK    6  A    between atoms: C_13  and  C_14
REMARK    7  A    between atoms: N_19  and  C_20
REMARK                            x       y       z     vdW  Elec       q    Type
REMARK                         _______ _______ _______ _____ _____    ______ ____
ROOT
ATOM      1  C   UNL     1       4.653   3.632  18.100  0.00  0.00    +0.000 A 
ATOM      2  N   UNL     1       5.150   3.648  19.315  0.00  0.00    +0.000 NA
ATOM      3  N   UNL     1       6.262   4.451  19.306  0.00  0.00    +0.000 NA
ATOM      4  C   UNL     1       6.426   4.910  18.082  0.00  0.00    +0.000 A 
ATOM      5  N   UNL     1       5.411   4.430  17.280  0.00  0.00    +0.000 N 
ENDROOT
BRANCH   4   6
ATOM      6  C   UNL     1       7.592   5.809  17.672  0.00  0.00    +0.000 C 
ATOM      7  C   UNL     1       7.363   7.297  17.489  0.00  0.00    +0.000 C 
ATOM      8  C   UNL     1       8.078   6.811  18.701  0.00  0.00    +0.000 C 
ENDBRANCH   4   6
BRANCH   1   9
ATOM      9  S   UNL     1       3.258   2.707  17.620  0.00  0.00    +0.000 S 
BRANCH   9  10
ATOM     10  C   UNL     1       2.376   2.649  19.219  0.00  0.00    +0.000 C 
BRANCH  10  12
ATOM     11  O   UNL     1       0.699   3.937  20.313  0.00  0.00    +0.000 OA
ATOM     12  C   UNL     1       1.749   3.967  19.669  0.00  0.00    +0.000 C 
ATOM     13  N   UNL     1       2.439   5.123  19.347  0.00  0.00    +0.000 N 
ATOM     14  H   UNL     1       3.204   5.011  18.691  0.00  0.00    +0.000 HD
BRANCH  13  15
ATOM     15  C   UNL     1       2.062   6.449  19.676  0.00  0.00    +0.000 A 
ATOM     16  C   UNL     1       1.541   6.825  20.918  0.00  0.00    +0.000 A 
ATOM     17  C   UNL     1       1.120   8.140  21.157  0.00  0.00    +0.000 A 
ATOM     18  C   UNL     1       1.225   9.098  20.154  0.00  0.00    +0.000 A 
ATOM     19  C   UNL     1       1.780   8.742  18.928  0.00  0.00    +0.000 A 
ATOM     20 CL   UNL     1       1.916   9.923  17.682  0.00  0.00    +0.000 Cl
ATOM     21  C   UNL     1       2.211   7.433  18.690  0.00  0.00    +0.000 A 
ENDBRANCH  13  15
ENDBRANCH  10  12
ENDBRANCH   9  10
ENDBRANCH   1   9
BRANCH   5  22
ATOM     22  C   UNL     1       5.155   4.841  15.915  0.00  0.00    +0.000 C 
BRANCH  22  23
ATOM     23  C   UNL     1       5.900   4.079  14.813  0.00  0.00    +0.000 C 
ATOM     24  C   UNL     1       6.972   4.858  14.073  0.00  0.00    +0.000 C 
ATOM     25  C   UNL     1       7.069   4.125  12.761  0.00  0.00    +0.000 C 
ATOM     26  C   UNL     1       5.652   3.640  12.534  0.00  0.00    +0.000 C 
ATOM     27  O   UNL     1       5.008   3.558  13.816  0.00  0.00    +0.000 OA
ENDBRANCH  22  23
ENDBRANCH   5  22
TORSDOF 7
ENDMDL
MODEL 7
REMARK VINA RESULT:      -7.6      4.348      6.339
REMARK  Name = 
REMARK  7 active torsions:
REMARK  status: ('A' for Active; 'I' for Inactive)
REMARK    1  A    between atoms: C_2  and  C_3
REMARK    2  A    between atoms: C_3  and  S_4
REMARK    3  A    between atoms: S_4  and  C_5
REMARK    4  A    between atoms: C_8  and  C_9
REMARK    5  A    between atoms: N_12  and  C_13
REMARK    6  A    between atoms: C_13  and  C_14
REMARK    7  A    between atoms: N_19  and  C_20
REMARK                            x       y       z     vdW  Elec       q    Type
REMARK                         _______ _______ _______ _____ _____    ______ ____
ROOT
ATOM      1  C   UNL     1       6.328   5.637  18.702  0.00  0.00    +0.000 A 
ATOM      2  N   UNL     1       5.330   5.797  19.540  0.00  0.00    +0.000 NA
ATOM      3  N   UNL     1       4.264   5.075  19.069  0.00  0.00    +0.000 NA
ATOM      4  C   UNL     1       4.628   4.488  17.948  0.00  0.00    +0.000 A 
ATOM      5  N   UNL     1       5.946   4.800  17.683  0.00  0.00    +0.000 N 
ENDROOT
BRANCH   4   6
ATOM      6  C   UNL     1       3.688   3.627  17.106  0.00  0.00    +0.000 C 
ATOM      7  C   UNL     1       3.255   2.267  17.619  0.00  0.00    +0.000 C 
ATOM      8  C   UNL     1       2.292   3.402  17.655  0.00  0.00    +0.000 C 
ENDBRANCH   4   6
BRANCH   1   9
ATOM      9  S   UNL     1       7.884   6.402  18.867  0.00  0.00    +0.000 S 
BRANCH   9  10
ATOM     10  C   UNL     1       7.725   7.680  17.572  0.00  0.00    +0.000 C 
BRANCH  10  12
ATOM     11  O   UNL     1       7.567  10.053  17.452  0.00  0.00    +0.000 OA
ATOM     12  C   UNL     1       8.119   9.094  17.995  0.00  0.00    +0.000 C 
ATOM     13  N   UNL     1       9.061   9.198  19.003  0.00  0.00    +0.000 N 
ATOM     14  H   UNL     1       9.537   8.338  19.252  0.00  0.00    +0.000 HD
BRANCH  13  15
ATOM     15  C   UNL     1       9.562  10.398  19.569  0.00  0.00    +0.000 A 
ATOM     16  C   UNL     1      10.593  11.154  19.001  0.00  0.00    +0.000 A 
ATOM     17  C   UNL     1      11.093  12.292  19.647  0.00  0.00    +0.000 A 
ATOM     18  C   UNL     1      10.558  12.692  20.868  0.00  0.00    +0.000 A 
ATOM     19  C   UNL     1       9.505  11.968  21.419  0.00  0.00    +0.000 A 
ATOM     20 CL   UNL     1       8.835  12.459  22.928  0.00  0.00    +0.000 Cl
ATOM     21  C   UNL     1       8.996  10.838  20.772  0.00  0.00    +0.000 A 
ENDBRANCH  13  15
ENDBRANCH  10  12
ENDBRANCH   9  10
ENDBRANCH   1   9
BRANCH   5  22
ATOM     22  C   UNL     1       6.752   4.215  16.631  0.00  0.00    +0.000 C 
BRANCH  22  23
ATOM     23  C   UNL     1       6.515   4.734  15.209  0.00  0.00    +0.000 C 
ATOM     24  C   UNL     1       6.031   3.711  14.199  0.00  0.00    +0.000 C 
ATOM     25  C   UNL     1       6.461   4.311  12.885  0.00  0.00    +0.000 C 
ATOM     26  C   UNL     1       7.739   5.041  13.246  0.00  0.00    +0.000 C 
ATOM     27  O   UNL     1       7.689   5.342  14.650  0.00  0.00    +0.000 OA
ENDBRANCH  22  23
ENDBRANCH   5  22
TORSDOF 7
ENDMDL
MODEL 8
REMARK VINA RESULT:      -7.3      3.158      7.037
REMARK  Name = 
REMARK  7 active torsions:
REMARK  status: ('A' for Active; 'I' for Inactive)
REMARK    1  A    between atoms: C_2  and  C_3
REMARK    2  A    between atoms: C_3  and  S_4
REMARK    3  A    between atoms: S_4  and  C_5
REMARK    4  A    between atoms: C_8  and  C_9
REMARK    5  A    between atoms: N_12  and  C_13
REMARK    6  A    between atoms: C_13  and  C_14
REMARK    7  A    between atoms: N_19  and  C_20
REMARK                            x       y       z     vdW  Elec       q    Type
REMARK                         _______ _______ _______ _____ _____    ______ ____
ROOT
ATOM      1  C   UNL     1       4.607   5.763  18.083  0.00  0.00    +0.000 A 
ATOM      2  N   UNL     1       5.272   4.837  18.734  0.00  0.00    +0.000 NA
ATOM      3  N   UNL     1       4.486   4.401  19.769  0.00  0.00    +0.000 NA
ATOM      4  C   UNL     1       3.353   5.071  19.735  0.00  0.00    +0.000 A 
ATOM      5  N   UNL     1       3.375   5.939  18.662  0.00  0.00    +0.000 N 
ENDROOT
BRANCH   4   6
ATOM      6  C   UNL     1       2.238   4.889  20.763  0.00  0.00    +0.000 C 
ATOM      7  C   UNL     1       1.048   4.008  20.431  0.00  0.00    +0.000 C 
ATOM      8  C   UNL     1       2.088   3.509  21.373  0.00  0.00    +0.000 C 
ENDBRANCH   4   6
BRANCH   1   9
ATOM      9  S   UNL     1       5.226   6.638  16.711  0.00  0.00    +0.000 S 
BRANCH   9  10
ATOM     10  C   UNL     1       7.010   6.321  16.937  0.00  0.00    +0.000 C 
BRANCH  10  12
ATOM     11  O   UNL     1       8.256   6.861  18.893  0.00  0.00    +0.000 OA
ATOM     12  C   UNL     1       7.737   7.295  17.863  0.00  0.00    +0.000 C 
ATOM     13  N   UNL     1       7.793   8.615  17.452  0.00  0.00    +0.000 N 
ATOM     14  H   UNL     1       7.200   8.857  16.666  0.00  0.00    +0.000 HD
BRANCH  13  15
ATOM     15  C   UNL     1       8.427   9.684  18.133  0.00  0.00    +0.000 A 
ATOM     16  C   UNL     1       9.149   9.531  19.321  0.00  0.00    +0.000 A 
ATOM     17  C   UNL     1       9.691  10.639  19.985  0.00  0.00    +0.000 A 
ATOM     18  C   UNL     1       9.523  11.916  19.460  0.00  0.00    +0.000 A 
ATOM     19  C   UNL     1       8.840  12.074  18.257  0.00  0.00    +0.000 A 
ATOM     20 CL   UNL     1       8.630  13.651  17.599  0.00  0.00    +0.000 Cl
ATOM     21  C   UNL     1       8.307  10.969  17.586  0.00  0.00    +0.000 A 
ENDBRANCH  13  15
ENDBRANCH  10  12
ENDBRANCH   9  10
ENDBRANCH   1   9
BRANCH   5  22
ATOM     22  C   UNL     1       2.252   6.727  18.196  0.00  0.00    +0.000 C 
BRANCH  22  23
ATOM     23  C   UNL     1       2.158   8.168  18.710  0.00  0.00    +0.000 C 
ATOM     24  C   UNL     1       1.399   8.363  20.009  0.00  0.00    +0.000 C 
ATOM     25  C   UNL     1       0.970   9.805  19.930  0.00  0.00    +0.000 C 
ATOM     26  C   UNL     1       0.760  10.018  18.444  0.00  0.00    +0.000 C 
ATOM     27  O   UNL     1       1.560   9.049  17.747  0.00  0.00    +0.000 OA
ENDBRANCH  22  23
ENDBRANCH   5  22
TORSDOF 7
ENDMDL
MODEL 9
REMARK VINA RESULT:      -7.3      3.063      4.563
REMARK  Name = 
REMARK  7 active torsions:
REMARK  status: ('A' for Active; 'I' for Inactive)
REMARK    1  A    between atoms: C_2  and  C_3
REMARK    2  A    between atoms: C_3  and  S_4
REMARK    3  A    between atoms: S_4  and  C_5
REMARK    4  A    between atoms: C_8  and  C_9
REMARK    5  A    between atoms: N_12  and  C_13
REMARK    6  A    between atoms: C_13  and  C_14
REMARK    7  A    between atoms: N_19  and  C_20
REMARK                            x       y       z     vdW  Elec       q    Type
REMARK                         _______ _______ _______ _____ _____    ______ ____
ROOT
ATOM      1  C   UNL     1       4.133   6.348  17.405  0.00  0.00    +0.000 A 
ATOM      2  N   UNL     1       5.008   7.227  16.973  0.00  0.00    +0.000 NA
ATOM      3  N   UNL     1       5.890   6.575  16.150  0.00  0.00    +0.000 NA
ATOM      4  C   UNL     1       5.539   5.306  16.095  0.00  0.00    +0.000 A 
ATOM      5  N   UNL     1       4.409   5.117  16.865  0.00  0.00    +0.000 N 
ENDROOT
BRANCH   4   6
ATOM      6  C   UNL     1       6.315   4.254  15.306  0.00  0.00    +0.000 C 
ATOM      7  C   UNL     1       5.904   3.930  13.882  0.00  0.00    +0.000 C 
ATOM      8  C   UNL     1       7.126   4.746  14.123  0.00  0.00    +0.000 C 
ENDBRANCH   4   6
BRANCH   1   9
ATOM      9  S   UNL     1       2.842   6.711  18.516  0.00  0.00    +0.000 S 
BRANCH   9  10
ATOM     10  C   UNL     1       2.551   8.458  18.073  0.00  0.00    +0.000 C 
BRANCH  10  12
ATOM     11  O   UNL     1       1.110   9.037  19.878  0.00  0.00    +0.000 OA
ATOM     12  C   UNL     1       1.285   9.080  18.659  0.00  0.00    +0.000 C 
ATOM     13  N   UNL     1       0.425   9.693  17.765  0.00  0.00    +0.000 N 
ATOM     14  H   UNL     1       0.616   9.526  16.784  0.00  0.00    +0.000 HD
BRANCH  13  15
ATOM     15  C   UNL     1      -0.792  10.350  18.079  0.00  0.00    +0.000 A 
ATOM     16  C   UNL     1      -2.039   9.959  17.580  0.00  0.00    +0.000 A 
ATOM     17  C   UNL     1      -3.196  10.693  17.871  0.00  0.00    +0.000 A 
ATOM     18  C   UNL     1      -3.117  11.826  18.675  0.00  0.00    +0.000 A 
ATOM     19  C   UNL     1      -1.887  12.199  19.209  0.00  0.00    +0.000 A 
ATOM     20 CL   UNL     1      -1.783  13.599  20.207  0.00  0.00    +0.000 Cl
ATOM     21  C   UNL     1      -0.732  11.462  18.929  0.00  0.00    +0.000 A 
ENDBRANCH  13  15
ENDBRANCH  10  12
ENDBRANCH   9  10
ENDBRANCH   1   9
BRANCH   5  22
ATOM     22  C   UNL     1       3.630   3.897  16.926  0.00  0.00    +0.000 C 
BRANCH  22  23
ATOM     23  C   UNL     1       2.729   3.713  18.152  0.00  0.00    +0.000 C 
ATOM     24  C   UNL     1       3.164   2.650  19.144  0.00  0.00    +0.000 C 
ATOM     25  C   UNL     1       1.874   2.296  19.837  0.00  0.00    +0.000 C 
ATOM     26  C   UNL     1       0.837   2.483  18.748  0.00  0.00    +0.000 C 
ATOM     27  O   UNL     1       1.374   3.409  17.789  0.00  0.00    +0.000 OA
ENDBRANCH  22  23
ENDBRANCH   5  22
TORSDOF 7
ENDMDL
