MODEL 1
REMARK VINA RESULT:      -8.8      0.000      0.000
REMARK  Name = 
REMARK  7 active torsions:
REMARK  status: ('A' for Active; 'I' for Inactive)
REMARK    1  A    between atoms: C_2  and  C_3
REMARK    2  A    between atoms: C_4  and  C_5
REMARK    3  A    between atoms: C_8  and  N_9
REMARK    4  A    between atoms: C_17  and  C_18
REMARK    5  A    between atoms: C_18  and  C_19
REMARK    6  A    between atoms: C_19  and  N_20
REMARK    7  A    between atoms: C_23  and  C_24
REMARK                            x       y       z     vdW  Elec       q    Type
REMARK                         _______ _______ _______ _____ _____    ______ ____
ROOT
ATOM      1  O   UNL     1       2.280  10.548  17.209  0.00  0.00    +0.000 OA
ATOM      2  C   UNL     1       1.825  10.156  18.280  0.00  0.00    +0.000 C 
ATOM      3  N   UNL     1       1.137  10.953  19.171  0.00  0.00    +0.000 N 
ATOM      4  C   UNL     1       0.772  10.599  20.543  0.00  0.00    +0.000 C 
ATOM      5  C   UNL     1      -0.722  10.824  20.766  0.00  0.00    +0.000 C 
ATOM      6  C   UNL     1      -1.179  12.250  20.380  0.00  0.00    +0.000 C 
ATOM      7  C   UNL     1      -0.688  12.567  18.953  0.00  0.00    +0.000 C 
ATOM      8  C   UNL     1       0.811  12.313  18.774  0.00  0.00    +0.000 C 
ENDROOT
BRANCH   2   9
ATOM      9  C   UNL     1       1.967   8.731  18.653  0.00  0.00    +0.000 C 
ATOM     10  C   UNL     1       2.848   7.972  17.980  0.00  0.00    +0.000 C 
BRANCH  10  11
ATOM     11  C   UNL     1       2.999   6.532  18.188  0.00  0.00    +0.000 A 
ATOM     12  C   UNL     1       4.271   6.037  18.503  0.00  0.00    +0.000 A 
ATOM     13  C   UNL     1       4.482   4.672  18.691  0.00  0.00    +0.000 A 
ATOM     14  C   UNL     1       3.403   3.778  18.575  0.00  0.00    +0.000 A 
ATOM     15  C   UNL     1       2.120   4.265  18.280  0.00  0.00    +0.000 A 
ATOM     16  C   UNL     1       1.923   5.635  18.101  0.00  0.00    +0.000 A 
BRANCH  14  17
ATOM     17  N   UNL     1       3.631   2.346  18.756  0.00  0.00    +0.000 N 
ATOM     18  O   UNL     1       3.140   1.567  17.943  0.00  0.00    +0.000 OA
ATOM     19  O   UNL     1       4.315   1.997  19.750  0.00  0.00    +0.000 OA
ENDBRANCH  14  17
ENDBRANCH  10  11
ENDBRANCH   2   9
BRANCH   6  20
ATOM     20  C   UNL     1      -0.730  13.302  21.421  0.00  0.00    +0.000 C 
BRANCH  20  21
ATOM     21  C   UNL     1      -1.088  12.969  22.895  0.00  0.00    +0.000 C 
BRANCH  21  22
ATOM     22  N   UNL     1      -2.444  13.374  23.362  0.00  0.00    +0.000 NA
ATOM     23  C   UNL     1      -3.185  14.105  22.329  0.00  0.00    +0.000 C 
ATOM     24  C   UNL     1      -4.574  14.550  22.832  0.00  0.00    +0.000 C 
ATOM     25  C   UNL     1      -5.524  13.378  23.245  0.00  0.00    +0.000 C 
ATOM     26  C   UNL     1      -4.682  12.524  24.236  0.00  0.00    +0.000 C 
ATOM     27  C   UNL     1      -3.224  12.202  23.808  0.00  0.00    +0.000 C 
BRANCH  25  28
ATOM     28  C   UNL     1      -6.098  12.614  22.033  0.00  0.00    +0.000 A 
ATOM     29  C   UNL     1      -7.474  12.359  21.981  0.00  0.00    +0.000 A 
ATOM     30  N   UNL     1      -7.498  11.117  21.387  0.00  0.00    +0.000 N 
ATOM     31  C   UNL     1      -6.759  11.327  20.241  0.00  0.00    +0.000 A 
ATOM     32  C   UNL     1      -6.935  10.754  18.980  0.00  0.00    +0.000 A 
ATOM     33  C   UNL     1      -6.033  11.108  17.991  0.00  0.00    +0.000 A 
ATOM     34  C   UNL     1      -4.923  11.911  18.315  0.00  0.00    +0.000 A 
ATOM     35  C   UNL     1      -4.741  12.431  19.637  0.00  0.00    +0.000 A 
ATOM     36  C   UNL     1      -5.727  12.207  20.645  0.00  0.00    +0.000 A 
ATOM     37  H   UNL     1      -7.279  10.295  21.930  0.00  0.00    +0.000 HD
ENDBRANCH  25  28
ENDBRANCH  21  22
ENDBRANCH  20  21
ENDBRANCH   6  20
TORSDOF 7
ENDMDL
MODEL 2
REMARK VINA RESULT:      -8.5      0.898      1.037
REMARK  Name = 
REMARK  7 active torsions:
REMARK  status: ('A' for Active; 'I' for Inactive)
REMARK    1  A    between atoms: C_2  and  C_3
REMARK    2  A    between atoms: C_4  and  C_5
REMARK    3  A    between atoms: C_8  and  N_9
REMARK    4  A    between atoms: C_17  and  C_18
REMARK    5  A    between atoms: C_18  and  C_19
REMARK    6  A    between atoms: C_19  and  N_20
REMARK    7  A    between atoms: C_23  and  C_24
REMARK                            x       y       z     vdW  Elec       q    Type
REMARK                         _______ _______ _______ _____ _____    ______ ____
ROOT
ATOM      1  O   UNL     1       2.179  10.567  17.350  0.00  0.00    +0.000 OA
ATOM      2  C   UNL     1       1.528  10.271  18.349  0.00  0.00    +0.000 C 
ATOM      3  N   UNL     1       0.892  11.187  19.161  0.00  0.00    +0.000 N 
ATOM      4  C   UNL     1       0.299  10.915  20.470  0.00  0.00    +0.000 C 
ATOM      5  C   UNL     1      -1.144  11.413  20.509  0.00  0.00    +0.000 C 
ATOM      6  C   UNL     1      -1.280  12.897  20.095  0.00  0.00    +0.000 C 
ATOM      7  C   UNL     1      -0.563  13.109  18.745  0.00  0.00    +0.000 C 
ATOM      8  C   UNL     1       0.875  12.582  18.750  0.00  0.00    +0.000 C 
ENDROOT
BRANCH   2   9
ATOM      9  C   UNL     1       1.357   8.848  18.712  0.00  0.00    +0.000 C 
ATOM     10  C   UNL     1       2.424   8.032  18.649  0.00  0.00    +0.000 C 
BRANCH  10  11
ATOM     11  C   UNL     1       2.354   6.589  18.882  0.00  0.00    +0.000 A 
ATOM     12  C   UNL     1       2.306   6.133  20.205  0.00  0.00    +0.000 A 
ATOM     13  C   UNL     1       2.260   4.769  20.491  0.00  0.00    +0.000 A 
ATOM     14  C   UNL     1       2.252   3.838  19.438  0.00  0.00    +0.000 A 
ATOM     15  C   UNL     1       2.279   4.284  18.109  0.00  0.00    +0.000 A 
ATOM     16  C   UNL     1       2.318   5.653  17.837  0.00  0.00    +0.000 A 
BRANCH  14  17
ATOM     17  N   UNL     1       2.221   2.408  19.742  0.00  0.00    +0.000 N 
ATOM     18  O   UNL     1       1.628   2.036  20.750  0.00  0.00    +0.000 OA
ATOM     19  O   UNL     1       2.822   1.642  18.948  0.00  0.00    +0.000 OA
ENDBRANCH  14  17
ENDBRANCH  10  11
ENDBRANCH   2   9
BRANCH   6  20
ATOM     20  C   UNL     1      -0.779  13.854  21.201  0.00  0.00    +0.000 C 
BRANCH  20  21
ATOM     21  C   UNL     1      -1.042  13.377  22.656  0.00  0.00    +0.000 C 
BRANCH  21  22
ATOM     22  N   UNL     1      -2.390  13.665  23.221  0.00  0.00    +0.000 NA
ATOM     23  C   UNL     1      -3.250  14.364  22.261  0.00  0.00    +0.000 C 
ATOM     24  C   UNL     1      -4.632  14.688  22.866  0.00  0.00    +0.000 C 
ATOM     25  C   UNL     1      -5.463  13.435  23.300  0.00  0.00    +0.000 C 
ATOM     26  C   UNL     1      -4.496  12.621  24.208  0.00  0.00    +0.000 C 
ATOM     27  C   UNL     1      -3.049  12.424  23.678  0.00  0.00    +0.000 C 
BRANCH  25  28
ATOM     28  C   UNL     1      -6.057  12.662  22.102  0.00  0.00    +0.000 A 
ATOM     29  C   UNL     1      -7.431  12.394  22.081  0.00  0.00    +0.000 A 
ATOM     30  N   UNL     1      -7.457  11.151  21.491  0.00  0.00    +0.000 N 
ATOM     31  C   UNL     1      -6.745  11.365  20.329  0.00  0.00    +0.000 A 
ATOM     32  C   UNL     1      -6.944  10.788  19.073  0.00  0.00    +0.000 A 
ATOM     33  C   UNL     1      -6.067  11.148  18.064  0.00  0.00    +0.000 A 
ATOM     34  C   UNL     1      -4.958  11.962  18.361  0.00  0.00    +0.000 A 
ATOM     35  C   UNL     1      -4.752  12.487  19.677  0.00  0.00    +0.000 A 
ATOM     36  C   UNL     1      -5.713  12.256  20.708  0.00  0.00    +0.000 A 
ATOM     37  H   UNL     1      -7.217  10.333  22.031  0.00  0.00    +0.000 HD
ENDBRANCH  25  28
ENDBRANCH  21  22
ENDBRANCH  20  21
ENDBRANCH   6  20
TORSDOF 7
ENDMDL
MODEL 3
REMARK VINA RESULT:      -8.4      3.394      6.026
REMARK  Name = 
REMARK  7 active torsions:
REMARK  status: ('A' for Active; 'I' for Inactive)
REMARK    1  A    between atoms: C_2  and  C_3
REMARK    2  A    between atoms: C_4  and  C_5
REMARK    3  A    between atoms: C_8  and  N_9
REMARK    4  A    between atoms: C_17  and  C_18
REMARK    5  A    between atoms: C_18  and  C_19
REMARK    6  A    between atoms: C_19  and  N_20
REMARK    7  A    between atoms: C_23  and  C_24
REMARK                            x       y       z     vdW  Elec       q    Type
REMARK                         _______ _______ _______ _____ _____    ______ ____
ROOT
ATOM      1  O   UNL     1       1.836   2.004  18.354  0.00  0.00    +0.000 OA
ATOM      2  C   UNL     1       2.212   3.138  18.067  0.00  0.00    +0.000 C 
ATOM      3  N   UNL     1       1.865   4.272  18.770  0.00  0.00    +0.000 N 
ATOM      4  C   UNL     1       2.097   5.654  18.350  0.00  0.00    +0.000 C 
ATOM      5  C   UNL     1       2.813   6.428  19.454  0.00  0.00    +0.000 C 
ATOM      6  C   UNL     1       2.090   6.339  20.818  0.00  0.00    +0.000 C 
ATOM      7  C   UNL     1       1.818   4.856  21.146  0.00  0.00    +0.000 C 
ATOM      8  C   UNL     1       1.111   4.119  20.005  0.00  0.00    +0.000 C 
ENDROOT
BRANCH   2   9
ATOM      9  C   UNL     1       3.133   3.333  16.927  0.00  0.00    +0.000 C 
ATOM     10  C   UNL     1       4.315   3.936  17.147  0.00  0.00    +0.000 C 
BRANCH  10  11
ATOM     11  C   UNL     1       5.259   4.276  16.082  0.00  0.00    +0.000 A 
ATOM     12  C   UNL     1       4.875   4.043  14.756  0.00  0.00    +0.000 A 
ATOM     13  C   UNL     1       5.740   4.325  13.700  0.00  0.00    +0.000 A 
ATOM     14  C   UNL     1       7.012   4.860  13.966  0.00  0.00    +0.000 A 
ATOM     15  C   UNL     1       7.400   5.117  15.290  0.00  0.00    +0.000 A 
ATOM     16  C   UNL     1       6.521   4.836  16.337  0.00  0.00    +0.000 A 
BRANCH  14  17
ATOM     17  N   UNL     1       7.924   5.139  12.857  0.00  0.00    +0.000 N 
ATOM     18  O   UNL     1       7.676   4.650  11.759  0.00  0.00    +0.000 OA
ATOM     19  O   UNL     1       8.921   5.861  13.105  0.00  0.00    +0.000 OA
ENDBRANCH  14  17
ENDBRANCH  10  11
ENDBRANCH   2   9
BRANCH   6  20
ATOM     20  C   UNL     1       0.812   7.209  20.853  0.00  0.00    +0.000 C 
BRANCH  20  21
ATOM     21  C   UNL     1       0.855   8.407  21.841  0.00  0.00    +0.000 C 
BRANCH  21  22
ATOM     22  N   UNL     1       0.895   9.769  21.240  0.00  0.00    +0.000 NA
ATOM     23  C   UNL     1       0.966   9.721  19.776  0.00  0.00    +0.000 C 
ATOM     24  C   UNL     1       1.040  11.136  19.163  0.00  0.00    +0.000 C 
ATOM     25  C   UNL     1      -0.196  12.045  19.469  0.00  0.00    +0.000 C 
ATOM     26  C   UNL     1      -0.354  11.980  21.015  0.00  0.00    +0.000 C 
ATOM     27  C   UNL     1      -0.272  10.570  21.662  0.00  0.00    +0.000 C 
BRANCH  25  28
ATOM     28  C   UNL     1      -1.448  11.651  18.657  0.00  0.00    +0.000 A 
ATOM     29  C   UNL     1      -1.360  10.590  17.746  0.00  0.00    +0.000 A 
ATOM     30  N   UNL     1      -2.187  11.028  16.738  0.00  0.00    +0.000 N 
ATOM     31  C   UNL     1      -3.357  11.302  17.417  0.00  0.00    +0.000 A 
ATOM     32  C   UNL     1      -4.672  11.144  16.976  0.00  0.00    +0.000 A 
ATOM     33  C   UNL     1      -5.682  11.522  17.844  0.00  0.00    +0.000 A 
ATOM     34  C   UNL     1      -5.357  12.156  19.058  0.00  0.00    +0.000 A 
ATOM     35  C   UNL     1      -3.995  12.358  19.450  0.00  0.00    +0.000 A 
ATOM     36  C   UNL     1      -2.927  11.850  18.649  0.00  0.00    +0.000 A 
ATOM     37  H   UNL     1      -1.861  11.728  16.087  0.00  0.00    +0.000 HD
ENDBRANCH  25  28
ENDBRANCH  21  22
ENDBRANCH  20  21
ENDBRANCH   6  20
TORSDOF 7
ENDMDL
MODEL 4
REMARK VINA RESULT:      -8.4      3.492      5.777
REMARK  Name = 
REMARK  7 active torsions:
REMARK  status: ('A' for Active; 'I' for Inactive)
REMARK    1  A    between atoms: C_2  and  C_3
REMARK    2  A    between atoms: C_4  and  C_5
REMARK    3  A    between atoms: C_8  and  N_9
REMARK    4  A    between atoms: C_17  and  C_18
REMARK    5  A    between atoms: C_18  and  C_19
REMARK    6  A    between atoms: C_19  and  N_20
REMARK    7  A    between atoms: C_23  and  C_24
REMARK                            x       y       z     vdW  Elec       q    Type
REMARK                         _______ _______ _______ _____ _____    ______ ____
ROOT
ATOM      1  O   UNL     1       1.808   2.174  18.461  0.00  0.00    +0.000 OA
ATOM      2  C   UNL     1       2.196   3.298  18.151  0.00  0.00    +0.000 C 
ATOM      3  N   UNL     1       1.877   4.448  18.842  0.00  0.00    +0.000 N 
ATOM      4  C   UNL     1       2.123   5.820  18.397  0.00  0.00    +0.000 C 
ATOM      5  C   UNL     1       2.868   6.599  19.479  0.00  0.00    +0.000 C 
ATOM      6  C   UNL     1       2.164   6.540  20.855  0.00  0.00    +0.000 C 
ATOM      7  C   UNL     1       1.875   5.067  21.209  0.00  0.00    +0.000 C 
ATOM      8  C   UNL     1       1.140   4.324  20.090  0.00  0.00    +0.000 C 
ENDROOT
BRANCH   2   9
ATOM      9  C   UNL     1       3.103   3.462  16.994  0.00  0.00    +0.000 C 
ATOM     10  C   UNL     1       4.304   4.031  17.191  0.00  0.00    +0.000 C 
BRANCH  10  11
ATOM     11  C   UNL     1       5.240   4.339  16.109  0.00  0.00    +0.000 A 
ATOM     12  C   UNL     1       4.885   3.978  14.803  0.00  0.00    +0.000 A 
ATOM     13  C   UNL     1       5.744   4.226  13.733  0.00  0.00    +0.000 A 
ATOM     14  C   UNL     1       6.980   4.855  13.964  0.00  0.00    +0.000 A 
ATOM     15  C   UNL     1       7.337   5.239  15.266  0.00  0.00    +0.000 A 
ATOM     16  C   UNL     1       6.464   4.991  16.326  0.00  0.00    +0.000 A 
BRANCH  14  17
ATOM     17  N   UNL     1       7.886   5.097  12.843  0.00  0.00    +0.000 N 
ATOM     18  O   UNL     1       7.628   4.579  11.760  0.00  0.00    +0.000 OA
ATOM     19  O   UNL     1       8.890   5.819  13.064  0.00  0.00    +0.000 OA
ENDBRANCH  14  17
ENDBRANCH  10  11
ENDBRANCH   2   9
BRANCH   6  20
ATOM     20  C   UNL     1       0.901   7.430  20.896  0.00  0.00    +0.000 C 
BRANCH  20  21
ATOM     21  C   UNL     1       0.719   8.261  22.196  0.00  0.00    +0.000 C 
BRANCH  21  22
ATOM     22  N   UNL     1       0.687   9.742  22.045  0.00  0.00    +0.000 NA
ATOM     23  C   UNL     1       0.864  10.156  20.649  0.00  0.00    +0.000 C 
ATOM     24  C   UNL     1       0.863  11.692  20.507  0.00  0.00    +0.000 C 
ATOM     25  C   UNL     1      -0.462  12.389  20.960  0.00  0.00    +0.000 C 
ATOM     26  C   UNL     1      -0.722  11.838  22.392  0.00  0.00    +0.000 C 
ATOM     27  C   UNL     1      -0.569  10.304  22.582  0.00  0.00    +0.000 C 
BRANCH  25  28
ATOM     28  C   UNL     1      -1.618  12.195  19.955  0.00  0.00    +0.000 A 
ATOM     29  C   UNL     1      -2.585  13.201  19.831  0.00  0.00    +0.000 A 
ATOM     30  N   UNL     1      -3.722  12.458  19.607  0.00  0.00    +0.000 N 
ATOM     31  C   UNL     1      -3.352  11.675  18.533  0.00  0.00    +0.000 A 
ATOM     32  C   UNL     1      -4.143  11.235  17.470  0.00  0.00    +0.000 A 
ATOM     33  C   UNL     1      -3.539  10.426  16.522  0.00  0.00    +0.000 A 
ATOM     34  C   UNL     1      -2.218   9.981  16.725  0.00  0.00    +0.000 A 
ATOM     35  C   UNL     1      -1.457  10.405  17.861  0.00  0.00    +0.000 A 
ATOM     36  C   UNL     1      -1.997  11.354  18.782  0.00  0.00    +0.000 A 
ATOM     37  H   UNL     1      -4.179  11.993  20.378  0.00  0.00    +0.000 HD
ENDBRANCH  25  28
ENDBRANCH  21  22
ENDBRANCH  20  21
ENDBRANCH   6  20
TORSDOF 7
ENDMDL
MODEL 5
REMARK VINA RESULT:      -8.2      1.567      2.006
REMARK  Name = 
REMARK  7 active torsions:
REMARK  status: ('A' for Active; 'I' for Inactive)
REMARK    1  A    between atoms: C_2  and  C_3
REMARK    2  A    between atoms: C_4  and  C_5
REMARK    3  A    between atoms: C_8  and  N_9
REMARK    4  A    between atoms: C_17  and  C_18
REMARK    5  A    between atoms: C_18  and  C_19
REMARK    6  A    between atoms: C_19  and  N_20
REMARK    7  A    between atoms: C_23  and  C_24
REMARK                            x       y       z     vdW  Elec       q    Type
REMARK                         _______ _______ _______ _____ _____    ______ ____
ROOT
ATOM      1  O   UNL     1       0.048  11.409  17.949  0.00  0.00    +0.000 OA
ATOM      2  C   UNL     1       0.173  11.098  19.131  0.00  0.00    +0.000 C 
ATOM      3  N   UNL     1      -0.437  11.759  20.177  0.00  0.00    +0.000 N 
ATOM      4  C   UNL     1      -0.151  11.574  21.600  0.00  0.00    +0.000 C 
ATOM      5  C   UNL     1      -1.443  11.297  22.365  0.00  0.00    +0.000 C 
ATOM      6  C   UNL     1      -2.532  12.366  22.114  0.00  0.00    +0.000 C 
ATOM      7  C   UNL     1      -2.714  12.550  20.594  0.00  0.00    +0.000 C 
ATOM      8  C   UNL     1      -1.392  12.812  19.868  0.00  0.00    +0.000 C 
ENDROOT
BRANCH   2   9
ATOM      9  C   UNL     1       0.987   9.917  19.491  0.00  0.00    +0.000 C 
ATOM     10  C   UNL     1       1.554   9.199  18.506  0.00  0.00    +0.000 C 
BRANCH  10  11
ATOM     11  C   UNL     1       2.292   7.956  18.734  0.00  0.00    +0.000 A 
ATOM     12  C   UNL     1       3.254   7.573  17.791  0.00  0.00    +0.000 A 
ATOM     13  C   UNL     1       3.973   6.389  17.942  0.00  0.00    +0.000 A 
ATOM     14  C   UNL     1       3.738   5.570  19.060  0.00  0.00    +0.000 A 
ATOM     15  C   UNL     1       2.791   5.954  20.022  0.00  0.00    +0.000 A 
ATOM     16  C   UNL     1       2.083   7.146  19.861  0.00  0.00    +0.000 A 
BRANCH  14  17
ATOM     17  N   UNL     1       4.481   4.319  19.206  0.00  0.00    +0.000 N 
ATOM     18  O   UNL     1       3.858   3.295  19.468  0.00  0.00    +0.000 OA
ATOM     19  O   UNL     1       5.728   4.375  19.063  0.00  0.00    +0.000 OA
ENDBRANCH  14  17
ENDBRANCH  10  11
ENDBRANCH   2   9
BRANCH   6  20
ATOM     20  C   UNL     1      -2.223  13.690  22.851  0.00  0.00    +0.000 C 
BRANCH  20  21
ATOM     21  C   UNL     1      -2.951  13.876  24.210  0.00  0.00    +0.000 C 
BRANCH  21  22
ATOM     22  N   UNL     1      -4.429  14.055  24.158  0.00  0.00    +0.000 NA
ATOM     23  C   UNL     1      -4.862  14.692  22.910  0.00  0.00    +0.000 C 
ATOM     24  C   UNL     1      -6.390  14.903  22.879  0.00  0.00    +0.000 C 
ATOM     25  C   UNL     1      -7.232  13.587  22.962  0.00  0.00    +0.000 C 
ATOM     26  C   UNL     1      -6.672  12.845  24.210  0.00  0.00    +0.000 C 
ATOM     27  C   UNL     1      -5.126  12.764  24.333  0.00  0.00    +0.000 C 
BRANCH  25  28
ATOM     28  C   UNL     1      -7.216  12.778  21.647  0.00  0.00    +0.000 A 
ATOM     29  C   UNL     1      -7.868  11.539  21.605  0.00  0.00    +0.000 A 
ATOM     30  N   UNL     1      -7.035  10.823  20.776  0.00  0.00    +0.000 N 
ATOM     31  C   UNL     1      -6.958  11.637  19.665  0.00  0.00    +0.000 A 
ATOM     32  C   UNL     1      -6.857  11.264  18.323  0.00  0.00    +0.000 A 
ATOM     33  C   UNL     1      -6.764  12.279  17.387  0.00  0.00    +0.000 A 
ATOM     34  C   UNL     1      -6.647  13.615  17.817  0.00  0.00    +0.000 A 
ATOM     35  C   UNL     1      -6.692  13.955  19.207  0.00  0.00    +0.000 A 
ATOM     36  C   UNL     1      -6.934  12.950  20.192  0.00  0.00    +0.000 A 
ATOM     37  H   UNL     1      -6.167  10.452  21.133  0.00  0.00    +0.000 HD
ENDBRANCH  25  28
ENDBRANCH  21  22
ENDBRANCH  20  21
ENDBRANCH   6  20
TORSDOF 7
ENDMDL
MODEL 6
REMARK VINA RESULT:      -8.1      1.693      2.107
REMARK  Name = 
REMARK  7 active torsions:
REMARK  status: ('A' for Active; 'I' for Inactive)
REMARK    1  A    between atoms: C_2  and  C_3
REMARK    2  A    between atoms: C_4  and  C_5
REMARK    3  A    between atoms: C_8  and  N_9
REMARK    4  A    between atoms: C_17  and  C_18
REMARK    5  A    between atoms: C_18  and  C_19
REMARK    6  A    between atoms: C_19  and  N_20
REMARK    7  A    between atoms: C_23  and  C_24
REMARK                            x       y       z     vdW  Elec       q    Type
REMARK                         _______ _______ _______ _____ _____    ______ ____
ROOT
ATOM      1  O   UNL     1      -1.065  10.257  17.648  0.00  0.00    +0.000 OA
ATOM      2  C   UNL     1      -0.464  10.375  18.714  0.00  0.00    +0.000 C 
ATOM      3  N   UNL     1      -0.674  11.399  19.614  0.00  0.00    +0.000 N 
ATOM      4  C   UNL     1       0.158  11.710  20.777  0.00  0.00    +0.000 C 
ATOM      5  C   UNL     1      -0.706  11.801  22.033  0.00  0.00    +0.000 C 
ATOM      6  C   UNL     1      -1.894  12.780  21.876  0.00  0.00    +0.000 C 
ATOM      7  C   UNL     1      -2.667  12.428  20.589  0.00  0.00    +0.000 C 
ATOM      8  C   UNL     1      -1.759  12.334  19.360  0.00  0.00    +0.000 C 
ENDROOT
BRANCH   2   9
ATOM      9  C   UNL     1       0.522   9.348  19.111  0.00  0.00    +0.000 C 
ATOM     10  C   UNL     1       1.403   8.910  18.194  0.00  0.00    +0.000 C 
BRANCH  10  11
ATOM     11  C   UNL     1       2.354   7.825  18.441  0.00  0.00    +0.000 A 
ATOM     12  C   UNL     1       3.374   7.612  17.506  0.00  0.00    +0.000 A 
ATOM     13  C   UNL     1       4.296   6.580  17.675  0.00  0.00    +0.000 A 
ATOM     14  C   UNL     1       4.210   5.748  18.804  0.00  0.00    +0.000 A 
ATOM     15  C   UNL     1       3.205   5.966  19.759  0.00  0.00    +0.000 A 
ATOM     16  C   UNL     1       2.292   7.006  19.580  0.00  0.00    +0.000 A 
BRANCH  14  17
ATOM     17  N   UNL     1       5.168   4.656  18.969  0.00  0.00    +0.000 N 
ATOM     18  O   UNL     1       6.298   4.924  19.369  0.00  0.00    +0.000 OA
ATOM     19  O   UNL     1       4.773   3.500  18.678  0.00  0.00    +0.000 OA
ENDBRANCH  14  17
ENDBRANCH  10  11
ENDBRANCH   2   9
BRANCH   6  20
ATOM     20  C   UNL     1      -1.436  14.256  21.921  0.00  0.00    +0.000 C 
BRANCH  20  21
ATOM     21  C   UNL     1      -2.008  15.090  23.100  0.00  0.00    +0.000 C 
BRANCH  21  22
ATOM     22  N   UNL     1      -3.421  15.545  22.974  0.00  0.00    +0.000 NA
ATOM     23  C   UNL     1      -3.899  15.474  21.590  0.00  0.00    +0.000 C 
ATOM     24  C   UNL     1      -5.352  15.978  21.463  0.00  0.00    +0.000 C 
ATOM     25  C   UNL     1      -6.401  15.159  22.286  0.00  0.00    +0.000 C 
ATOM     26  C   UNL     1      -5.818  15.117  23.728  0.00  0.00    +0.000 C 
ATOM     27  C   UNL     1      -4.311  14.763  23.856  0.00  0.00    +0.000 C 
BRANCH  25  28
ATOM     28  C   UNL     1      -6.718  13.785  21.658  0.00  0.00    +0.000 A 
ATOM     29  C   UNL     1      -7.719  12.991  22.233  0.00  0.00    +0.000 A 
ATOM     30  N   UNL     1      -7.200  11.729  22.054  0.00  0.00    +0.000 N 
ATOM     31  C   UNL     1      -6.949  11.706  20.697  0.00  0.00    +0.000 A 
ATOM     32  C   UNL     1      -7.053  10.628  19.816  0.00  0.00    +0.000 A 
ATOM     33  C   UNL     1      -6.714  10.855  18.493  0.00  0.00    +0.000 A 
ATOM     34  C   UNL     1      -6.167  12.097  18.116  0.00  0.00    +0.000 A 
ATOM     35  C   UNL     1      -6.017  13.160  19.063  0.00  0.00    +0.000 A 
ATOM     36  C   UNL     1      -6.491  13.011  20.402  0.00  0.00    +0.000 A 
ATOM     37  H   UNL     1      -6.465  11.396  22.661  0.00  0.00    +0.000 HD
ENDBRANCH  25  28
ENDBRANCH  21  22
ENDBRANCH  20  21
ENDBRANCH   6  20
TORSDOF 7
ENDMDL
MODEL 7
REMARK VINA RESULT:      -8.1      3.706      6.824
REMARK  Name = 
REMARK  7 active torsions:
REMARK  status: ('A' for Active; 'I' for Inactive)
REMARK    1  A    between atoms: C_2  and  C_3
REMARK    2  A    between atoms: C_4  and  C_5
REMARK    3  A    between atoms: C_8  and  N_9
REMARK    4  A    between atoms: C_17  and  C_18
REMARK    5  A    between atoms: C_18  and  C_19
REMARK    6  A    between atoms: C_19  and  N_20
REMARK    7  A    between atoms: C_23  and  C_24
REMARK                            x       y       z     vdW  Elec       q    Type
REMARK                         _______ _______ _______ _____ _____    ______ ____
ROOT
ATOM      1  O   UNL     1       1.694   2.221  18.249  0.00  0.00    +0.000 OA
ATOM      2  C   UNL     1       2.108   3.353  18.009  0.00  0.00    +0.000 C 
ATOM      3  N   UNL     1       1.818   4.464  18.773  0.00  0.00    +0.000 N 
ATOM      4  C   UNL     1       2.094   5.855  18.415  0.00  0.00    +0.000 C 
ATOM      5  C   UNL     1       2.861   6.547  19.540  0.00  0.00    +0.000 C 
ATOM      6  C   UNL     1       2.161   6.417  20.914  0.00  0.00    +0.000 C 
ATOM      7  C   UNL     1       1.838   4.932  21.175  0.00  0.00    +0.000 C 
ATOM      8  C   UNL     1       1.082   4.278  20.015  0.00  0.00    +0.000 C 
ENDROOT
BRANCH   2   9
ATOM      9  C   UNL     1       3.014   3.569  16.861  0.00  0.00    +0.000 C 
ATOM     10  C   UNL     1       4.276   3.966  17.099  0.00  0.00    +0.000 C 
BRANCH  10  11
ATOM     11  C   UNL     1       5.229   4.310  16.043  0.00  0.00    +0.000 A 
ATOM     12  C   UNL     1       4.969   3.861  14.743  0.00  0.00    +0.000 A 
ATOM     13  C   UNL     1       5.850   4.138  13.699  0.00  0.00    +0.000 A 
ATOM     14  C   UNL     1       7.012   4.888  13.951  0.00  0.00    +0.000 A 
ATOM     15  C   UNL     1       7.273   5.361  15.246  0.00  0.00    +0.000 A 
ATOM     16  C   UNL     1       6.378   5.081  16.280  0.00  0.00    +0.000 A 
BRANCH  14  17
ATOM     17  N   UNL     1       7.943   5.162  12.858  0.00  0.00    +0.000 N 
ATOM     18  O   UNL     1       7.705   4.685  11.752  0.00  0.00    +0.000 OA
ATOM     19  O   UNL     1       8.947   5.869  13.125  0.00  0.00    +0.000 OA
ENDBRANCH  14  17
ENDBRANCH  10  11
ENDBRANCH   2   9
BRANCH   6  20
ATOM     20  C   UNL     1       0.918   7.332  21.017  0.00  0.00    +0.000 C 
BRANCH  20  21
ATOM     21  C   UNL     1       1.136   8.797  20.550  0.00  0.00    +0.000 C 
BRANCH  21  22
ATOM     22  N   UNL     1      -0.088   9.612  20.312  0.00  0.00    +0.000 NA
ATOM     23  C   UNL     1      -0.166  10.763  21.218  0.00  0.00    +0.000 C 
ATOM     24  C   UNL     1      -1.453  11.583  20.987  0.00  0.00    +0.000 C 
ATOM     25  C   UNL     1      -1.586  12.199  19.555  0.00  0.00    +0.000 C 
ATOM     26  C   UNL     1      -1.363  10.997  18.592  0.00  0.00    +0.000 C 
ATOM     27  C   UNL     1      -0.157  10.070  18.909  0.00  0.00    +0.000 C 
BRANCH  25  28
ATOM     28  C   UNL     1      -0.655  13.410  19.331  0.00  0.00    +0.000 A 
ATOM     29  C   UNL     1      -0.986  14.637  19.919  0.00  0.00    +0.000 A 
ATOM     30  N   UNL     1      -0.562  15.523  18.954  0.00  0.00    +0.000 N 
ATOM     31  C   UNL     1       0.751  15.143  18.765  0.00  0.00    +0.000 A 
ATOM     32  C   UNL     1       1.853  15.950  18.473  0.00  0.00    +0.000 A 
ATOM     33  C   UNL     1       3.073  15.319  18.299  0.00  0.00    +0.000 A 
ATOM     34  C   UNL     1       3.137  13.912  18.297  0.00  0.00    +0.000 A 
ATOM     35  C   UNL     1       1.973  13.115  18.540  0.00  0.00    +0.000 A 
ATOM     36  C   UNL     1       0.726  13.732  18.867  0.00  0.00    +0.000 A 
ATOM     37  H   UNL     1      -1.120  15.670  18.125  0.00  0.00    +0.000 HD
ENDBRANCH  25  28
ENDBRANCH  21  22
ENDBRANCH  20  21
ENDBRANCH   6  20
TORSDOF 7
ENDMDL
MODEL 8
REMARK VINA RESULT:      -8.0      3.033      5.381
REMARK  Name = 
REMARK  7 active torsions:
REMARK  status: ('A' for Active; 'I' for Inactive)
REMARK    1  A    between atoms: C_2  and  C_3
REMARK    2  A    between atoms: C_4  and  C_5
REMARK    3  A    between atoms: C_8  and  N_9
REMARK    4  A    between atoms: C_17  and  C_18
REMARK    5  A    between atoms: C_18  and  C_19
REMARK    6  A    between atoms: C_19  and  N_20
REMARK    7  A    between atoms: C_23  and  C_24
REMARK                            x       y       z     vdW  Elec       q    Type
REMARK                         _______ _______ _______ _____ _____    ______ ____
ROOT
ATOM      1  O   UNL     1       1.437   9.726  17.431  0.00  0.00    +0.000 OA
ATOM      2  C   UNL     1       1.425   9.440  18.626  0.00  0.00    +0.000 C 
ATOM      3  N   UNL     1       0.941  10.267  19.618  0.00  0.00    +0.000 N 
ATOM      4  C   UNL     1       1.104  10.074  21.059  0.00  0.00    +0.000 C 
ATOM      5  C   UNL     1      -0.253  10.142  21.757  0.00  0.00    +0.000 C 
ATOM      6  C   UNL     1      -1.039  11.431  21.417  0.00  0.00    +0.000 C 
ATOM      7  C   UNL     1      -1.096  11.595  19.885  0.00  0.00    +0.000 C 
ATOM      8  C   UNL     1       0.284  11.505  19.229  0.00  0.00    +0.000 C 
ENDROOT
BRANCH   2   9
ATOM      9  C   UNL     1       1.912   8.113  19.061  0.00  0.00    +0.000 C 
ATOM     10  C   UNL     1       2.625   7.371  18.197  0.00  0.00    +0.000 C 
BRANCH  10  11
ATOM     11  C   UNL     1       3.069   6.006  18.478  0.00  0.00    +0.000 A 
ATOM     12  C   UNL     1       2.219   4.948  18.135  0.00  0.00    +0.000 A 
ATOM     13  C   UNL     1       2.576   3.626  18.398  0.00  0.00    +0.000 A 
ATOM     14  C   UNL     1       3.812   3.349  19.008  0.00  0.00    +0.000 A 
ATOM     15  C   UNL     1       4.682   4.399  19.337  0.00  0.00    +0.000 A 
ATOM     16  C   UNL     1       4.313   5.717  19.062  0.00  0.00    +0.000 A 
BRANCH  14  17
ATOM     17  N   UNL     1       4.177   1.963  19.298  0.00  0.00    +0.000 N 
ATOM     18  O   UNL     1       3.709   1.074  18.592  0.00  0.00    +0.000 OA
ATOM     19  O   UNL     1       4.946   1.766  20.271  0.00  0.00    +0.000 OA
ENDBRANCH  14  17
ENDBRANCH  10  11
ENDBRANCH   2   9
BRANCH   6  20
ATOM     20  C   UNL     1      -0.457  12.669  22.136  0.00  0.00    +0.000 C 
BRANCH  20  21
ATOM     21  C   UNL     1      -1.504  13.592  22.817  0.00  0.00    +0.000 C 
BRANCH  21  22
ATOM     22  N   UNL     1      -1.573  14.999  22.333  0.00  0.00    +0.000 NA
ATOM     23  C   UNL     1      -0.315  15.719  22.558  0.00  0.00    +0.000 C 
ATOM     24  C   UNL     1      -0.406  17.184  22.084  0.00  0.00    +0.000 C 
ATOM     25  C   UNL     1      -0.692  17.359  20.555  0.00  0.00    +0.000 C 
ATOM     26  C   UNL     1      -1.948  16.479  20.292  0.00  0.00    +0.000 C 
ATOM     27  C   UNL     1      -1.934  15.050  20.901  0.00  0.00    +0.000 C 
BRANCH  25  28
ATOM     28  C   UNL     1       0.535  17.045  19.673  0.00  0.00    +0.000 A 
ATOM     29  C   UNL     1       1.243  18.105  19.094  0.00  0.00    +0.000 A 
ATOM     30  N   UNL     1       1.604  17.560  17.882  0.00  0.00    +0.000 N 
ATOM     31  C   UNL     1       2.234  16.393  18.263  0.00  0.00    +0.000 A 
ATOM     32  C   UNL     1       3.326  15.764  17.663  0.00  0.00    +0.000 A 
ATOM     33  C   UNL     1       3.759  14.574  18.223  0.00  0.00    +0.000 A 
ATOM     34  C   UNL     1       3.023  13.988  19.271  0.00  0.00    +0.000 A 
ATOM     35  C   UNL     1       1.870  14.634  19.821  0.00  0.00    +0.000 A 
ATOM     36  C   UNL     1       1.480  15.931  19.367  0.00  0.00    +0.000 A 
ATOM     37  H   UNL     1       0.925  17.493  17.138  0.00  0.00    +0.000 HD
ENDBRANCH  25  28
ENDBRANCH  21  22
ENDBRANCH  20  21
ENDBRANCH   6  20
TORSDOF 7
ENDMDL
MODEL 9
REMARK VINA RESULT:      -8.0      3.688      5.908
REMARK  Name = 
REMARK  7 active torsions:
REMARK  status: ('A' for Active; 'I' for Inactive)
REMARK    1  A    between atoms: C_2  and  C_3
REMARK    2  A    between atoms: C_4  and  C_5
REMARK    3  A    between atoms: C_8  and  N_9
REMARK    4  A    between atoms: C_17  and  C_18
REMARK    5  A    between atoms: C_18  and  C_19
REMARK    6  A    between atoms: C_19  and  N_20
REMARK    7  A    between atoms: C_23  and  C_24
REMARK                            x       y       z     vdW  Elec       q    Type
REMARK                         _______ _______ _______ _____ _____    ______ ____
ROOT
ATOM      1  O   UNL     1       1.633   6.858  20.965  0.00  0.00    +0.000 OA
ATOM      2  C   UNL     1       1.647   7.641  20.018  0.00  0.00    +0.000 C 
ATOM      3  N   UNL     1       1.015   8.867  20.014  0.00  0.00    +0.000 N 
ATOM      4  C   UNL     1       0.812   9.731  18.852  0.00  0.00    +0.000 C 
ATOM      5  C   UNL     1       1.320  11.140  19.148  0.00  0.00    +0.000 C 
ATOM      6  C   UNL     1       0.718  11.738  20.441  0.00  0.00    +0.000 C 
ATOM      7  C   UNL     1       0.908  10.732  21.594  0.00  0.00    +0.000 C 
ATOM      8  C   UNL     1       0.396   9.331  21.247  0.00  0.00    +0.000 C 
ENDROOT
BRANCH   2   9
ATOM      9  C   UNL     1       2.417   7.300  18.802  0.00  0.00    +0.000 C 
ATOM     10  C   UNL     1       3.066   6.124  18.758  0.00  0.00    +0.000 C 
BRANCH  10  11
ATOM     11  C   UNL     1       3.942   5.725  17.655  0.00  0.00    +0.000 A 
ATOM     12  C   UNL     1       4.636   6.726  16.964  0.00  0.00    +0.000 A 
ATOM     13  C   UNL     1       5.468   6.410  15.891  0.00  0.00    +0.000 A 
ATOM     14  C   UNL     1       5.622   5.069  15.501  0.00  0.00    +0.000 A 
ATOM     15  C   UNL     1       4.948   4.056  16.200  0.00  0.00    +0.000 A 
ATOM     16  C   UNL     1       4.123   4.386  17.276  0.00  0.00    +0.000 A 
BRANCH  14  17
ATOM     17  N   UNL     1       6.481   4.743  14.364  0.00  0.00    +0.000 N 
ATOM     18  O   UNL     1       6.098   3.894  13.565  0.00  0.00    +0.000 OA
ATOM     19  O   UNL     1       7.576   5.353  14.282  0.00  0.00    +0.000 OA
ENDBRANCH  14  17
ENDBRANCH  10  11
ENDBRANCH   2   9
BRANCH   6  20
ATOM     20  C   UNL     1      -0.756  12.165  20.248  0.00  0.00    +0.000 C 
BRANCH  20  21
ATOM     21  C   UNL     1      -1.469  12.674  21.530  0.00  0.00    +0.000 C 
BRANCH  21  22
ATOM     22  N   UNL     1      -1.521  14.149  21.728  0.00  0.00    +0.000 NA
ATOM     23  C   UNL     1      -0.208  14.702  22.079  0.00  0.00    +0.000 C 
ATOM     24  C   UNL     1      -0.277  16.225  22.314  0.00  0.00    +0.000 C 
ATOM     25  C   UNL     1      -0.735  17.057  21.071  0.00  0.00    +0.000 C 
ATOM     26  C   UNL     1      -2.058  16.378  20.614  0.00  0.00    +0.000 C 
ATOM     27  C   UNL     1      -2.047  14.827  20.525  0.00  0.00    +0.000 C 
BRANCH  25  28
ATOM     28  C   UNL     1       0.360  17.172  19.988  0.00  0.00    +0.000 A 
ATOM     29  C   UNL     1       0.947  18.421  19.747  0.00  0.00    +0.000 A 
ATOM     30  N   UNL     1       1.143  18.371  18.386  0.00  0.00    +0.000 N 
ATOM     31  C   UNL     1       1.853  17.198  18.236  0.00  0.00    +0.000 A 
ATOM     32  C   UNL     1       2.864  16.909  17.317  0.00  0.00    +0.000 A 
ATOM     33  C   UNL     1       3.406  15.636  17.350  0.00  0.00    +0.000 A 
ATOM     34  C   UNL     1       2.847  14.661  18.198  0.00  0.00    +0.000 A 
ATOM     35  C   UNL     1       1.768  14.978  19.085  0.00  0.00    +0.000 A 
ATOM     36  C   UNL     1       1.280  16.317  19.184  0.00  0.00    +0.000 A 
ATOM     37  H   UNL     1       0.365  18.519  17.759  0.00  0.00    +0.000 HD
ENDBRANCH  25  28
ENDBRANCH  21  22
ENDBRANCH  20  21
ENDBRANCH   6  20
TORSDOF 7
ENDMDL
