MODEL 1
REMARK VINA RESULT:      -6.8      0.000      0.000
REMARK  Name = 
REMARK  7 active torsions:
REMARK  status: ('A' for Active; 'I' for Inactive)
REMARK    1  A    between atoms: C_1  and  O_2
REMARK    2  A    between atoms: O_2  and  C_3
REMARK    3  A    between atoms: C_3  and  C_5
REMARK    4  A    between atoms: C_8  and  S_9
REMARK    5  A    between atoms: S_9  and  N_12
REMARK    6  A    between atoms: C_18  and  O_19
REMARK    7  A    between atoms: O_19  and  C_20
REMARK                            x       y       z     vdW  Elec       q    Type
REMARK                         _______ _______ _______ _____ _____    ______ ____
ROOT
ATOM      1  C   UNL     1       6.586   5.729  17.379  0.00  0.00    +0.000 A 
ATOM      2  C   UNL     1       6.921   5.004  16.247  0.00  0.00    +0.000 A 
ATOM      3  S   UNL     1       5.846   3.725  15.929  0.00  0.00    +0.000 S 
ATOM      4  C   UNL     1       4.852   4.134  17.265  0.00  0.00    +0.000 A 
ATOM      5  C   UNL     1       5.337   5.250  17.931  0.00  0.00    +0.000 A 
ENDROOT
BRANCH   4   6
ATOM      6  S   UNL     1       3.399   3.089  17.502  0.00  0.00    +0.000 S 
ATOM      7  O   UNL     1       2.411   3.554  16.550  0.00  0.00    +0.000 OA
ATOM      8  O   UNL     1       3.887   1.732  17.463  0.00  0.00    +0.000 OA
BRANCH   6   9
ATOM      9  N   UNL     1       2.777   3.390  19.090  0.00  0.00    +0.000 NA
ATOM     10  C   UNL     1       1.309   3.608  19.113  0.00  0.00    +0.000 C 
ATOM     11  C   UNL     1       0.779   3.865  20.518  0.00  0.00    +0.000 C 
ATOM     12  C   UNL     1       1.242   2.793  21.490  0.00  0.00    +0.000 C 
ATOM     13  C   UNL     1       2.761   2.772  21.518  0.00  0.00    +0.000 C 
ATOM     14  C   UNL     1       3.331   2.490  20.134  0.00  0.00    +0.000 C 
ENDBRANCH   6   9
ENDBRANCH   4   6
BRANCH   1  15
ATOM     15  C   UNL     1       7.464   6.789  17.874  0.00  0.00    +0.000 C 
ATOM     16  O   UNL     1       8.207   6.671  18.838  0.00  0.00    +0.000 OA
BRANCH  15  18
ATOM     17  C   UNL     1       8.000   9.074  17.728  0.00  0.00    +0.000 C 
ATOM     18  O   UNL     1       7.334   7.944  17.154  0.00  0.00    +0.000 OA
ENDBRANCH  15  18
ENDBRANCH   1  15
BRANCH   5  19
ATOM     19  O   UNL     1       4.642   5.713  19.006  0.00  0.00    +0.000 OA
ATOM     20  C   UNL     1       3.584   6.620  18.725  0.00  0.00    +0.000 C 
ENDBRANCH   5  19
TORSDOF 5
ENDMDL
MODEL 2
REMARK VINA RESULT:      -6.4      0.575      1.136
REMARK  Name = 
REMARK  7 active torsions:
REMARK  status: ('A' for Active; 'I' for Inactive)
REMARK    1  A    between atoms: C_1  and  O_2
REMARK    2  A    between atoms: O_2  and  C_3
REMARK    3  A    between atoms: C_3  and  C_5
REMARK    4  A    between atoms: C_8  and  S_9
REMARK    5  A    between atoms: S_9  and  N_12
REMARK    6  A    between atoms: C_18  and  O_19
REMARK    7  A    between atoms: O_19  and  C_20
REMARK                            x       y       z     vdW  Elec       q    Type
REMARK                         _______ _______ _______ _____ _____    ______ ____
ROOT
ATOM      1  C   UNL     1       6.485   5.764  17.132  0.00  0.00    +0.000 A 
ATOM      2  C   UNL     1       6.847   4.944  16.076  0.00  0.00    +0.000 A 
ATOM      3  S   UNL     1       5.799   3.623  15.863  0.00  0.00    +0.000 S 
ATOM      4  C   UNL     1       4.779   4.134  17.142  0.00  0.00    +0.000 A 
ATOM      5  C   UNL     1       5.236   5.315  17.709  0.00  0.00    +0.000 A 
ENDROOT
BRANCH   4   6
ATOM      6  S   UNL     1       3.340   3.090  17.455  0.00  0.00    +0.000 S 
ATOM      7  O   UNL     1       2.310   3.543  16.542  0.00  0.00    +0.000 OA
ATOM      8  O   UNL     1       3.829   1.734  17.410  0.00  0.00    +0.000 OA
BRANCH   6   9
ATOM      9  N   UNL     1       2.788   3.408  19.065  0.00  0.00    +0.000 NA
ATOM     10  C   UNL     1       1.346   3.754  19.134  0.00  0.00    +0.000 C 
ATOM     11  C   UNL     1       0.877   4.025  20.558  0.00  0.00    +0.000 C 
ATOM     12  C   UNL     1       1.268   2.895  21.494  0.00  0.00    +0.000 C 
ATOM     13  C   UNL     1       2.780   2.739  21.480  0.00  0.00    +0.000 C 
ATOM     14  C   UNL     1       3.287   2.440  20.076  0.00  0.00    +0.000 C 
ENDBRANCH   6   9
ENDBRANCH   4   6
BRANCH   1  15
ATOM     15  C   UNL     1       7.338   6.880  17.540  0.00  0.00    +0.000 C 
ATOM     16  O   UNL     1       7.713   7.767  16.787  0.00  0.00    +0.000 OA
BRANCH  15  18
ATOM     17  C   UNL     1       8.160   5.510  19.265  0.00  0.00    +0.000 C 
ATOM     18  O   UNL     1       7.696   6.801  18.857  0.00  0.00    +0.000 OA
ENDBRANCH  15  18
ENDBRANCH   1  15
BRANCH   5  19
ATOM     19  O   UNL     1       4.518   5.862  18.728  0.00  0.00    +0.000 OA
ATOM     20  C   UNL     1       3.506   6.789  18.356  0.00  0.00    +0.000 C 
ENDBRANCH   5  19
TORSDOF 5
ENDMDL
MODEL 3
REMARK VINA RESULT:      -6.3      2.836      6.552
REMARK  Name = 
REMARK  7 active torsions:
REMARK  status: ('A' for Active; 'I' for Inactive)
REMARK    1  A    between atoms: C_1  and  O_2
REMARK    2  A    between atoms: O_2  and  C_3
REMARK    3  A    between atoms: C_3  and  C_5
REMARK    4  A    between atoms: C_8  and  S_9
REMARK    5  A    between atoms: S_9  and  N_12
REMARK    6  A    between atoms: C_18  and  O_19
REMARK    7  A    between atoms: O_19  and  C_20
REMARK                            x       y       z     vdW  Elec       q    Type
REMARK                         _______ _______ _______ _____ _____    ______ ____
ROOT
ATOM      1  C   UNL     1       2.975   5.244  18.074  0.00  0.00    +0.000 A 
ATOM      2  C   UNL     1       3.018   6.614  17.877  0.00  0.00    +0.000 A 
ATOM      3  S   UNL     1       4.476   7.145  17.182  0.00  0.00    +0.000 S 
ATOM      4  C   UNL     1       5.083   5.546  17.059  0.00  0.00    +0.000 A 
ATOM      5  C   UNL     1       4.163   4.621  17.532  0.00  0.00    +0.000 A 
ENDROOT
BRANCH   4   6
ATOM      6  S   UNL     1       6.723   5.391  16.323  0.00  0.00    +0.000 S 
ATOM      7  O   UNL     1       7.357   6.685  16.479  0.00  0.00    +0.000 OA
ATOM      8  O   UNL     1       7.300   4.206  16.910  0.00  0.00    +0.000 OA
BRANCH   6   9
ATOM      9  N   UNL     1       6.524   5.107  14.627  0.00  0.00    +0.000 NA
ATOM     10  C   UNL     1       7.757   5.363  13.840  0.00  0.00    +0.000 C 
ATOM     11  C   UNL     1       7.566   5.104  12.351  0.00  0.00    +0.000 C 
ATOM     12  C   UNL     1       6.969   3.729  12.101  0.00  0.00    +0.000 C 
ATOM     13  C   UNL     1       5.627   3.635  12.809  0.00  0.00    +0.000 C 
ATOM     14  C   UNL     1       5.780   3.862  14.307  0.00  0.00    +0.000 C 
ENDBRANCH   6   9
ENDBRANCH   4   6
BRANCH   1  15
ATOM     15  C   UNL     1       1.849   4.623  18.772  0.00  0.00    +0.000 C 
ATOM     16  O   UNL     1       1.527   4.883  19.923  0.00  0.00    +0.000 OA
BRANCH  15  18
ATOM     17  C   UNL     1       0.826   2.507  18.702  0.00  0.00    +0.000 C 
ATOM     18  O   UNL     1       1.213   3.693  17.999  0.00  0.00    +0.000 OA
ENDBRANCH  15  18
ENDBRANCH   1  15
BRANCH   5  19
ATOM     19  O   UNL     1       4.491   3.301  17.481  0.00  0.00    +0.000 OA
ATOM     20  C   UNL     1       4.566   2.625  18.730  0.00  0.00    +0.000 C 
ENDBRANCH   5  19
TORSDOF 5
ENDMDL
MODEL 4
REMARK VINA RESULT:      -6.3      2.897      6.513
REMARK  Name = 
REMARK  7 active torsions:
REMARK  status: ('A' for Active; 'I' for Inactive)
REMARK    1  A    between atoms: C_1  and  O_2
REMARK    2  A    between atoms: O_2  and  C_3
REMARK    3  A    between atoms: C_3  and  C_5
REMARK    4  A    between atoms: C_8  and  S_9
REMARK    5  A    between atoms: S_9  and  N_12
REMARK    6  A    between atoms: C_18  and  O_19
REMARK    7  A    between atoms: O_19  and  C_20
REMARK                            x       y       z     vdW  Elec       q    Type
REMARK                         _______ _______ _______ _____ _____    ______ ____
ROOT
ATOM      1  C   UNL     1       2.983   5.216  17.876  0.00  0.00    +0.000 A 
ATOM      2  C   UNL     1       3.127   6.594  17.885  0.00  0.00    +0.000 A 
ATOM      3  S   UNL     1       4.634   7.113  17.293  0.00  0.00    +0.000 S 
ATOM      4  C   UNL     1       5.129   5.510  16.942  0.00  0.00    +0.000 A 
ATOM      5  C   UNL     1       4.137   4.595  17.262  0.00  0.00    +0.000 A 
ENDROOT
BRANCH   4   6
ATOM      6  S   UNL     1       6.771   5.345  16.211  0.00  0.00    +0.000 S 
ATOM      7  O   UNL     1       7.415   6.632  16.377  0.00  0.00    +0.000 OA
ATOM      8  O   UNL     1       7.336   4.152  16.793  0.00  0.00    +0.000 OA
BRANCH   6   9
ATOM      9  N   UNL     1       6.576   5.072  14.512  0.00  0.00    +0.000 NA
ATOM     10  C   UNL     1       7.785   5.412  13.721  0.00  0.00    +0.000 C 
ATOM     11  C   UNL     1       7.598   5.161  12.230  0.00  0.00    +0.000 C 
ATOM     12  C   UNL     1       7.082   3.757  11.965  0.00  0.00    +0.000 C 
ATOM     13  C   UNL     1       5.754   3.573  12.681  0.00  0.00    +0.000 C 
ATOM     14  C   UNL     1       5.905   3.789  14.181  0.00  0.00    +0.000 C 
ENDBRANCH   6   9
ENDBRANCH   4   6
BRANCH   1  15
ATOM     15  C   UNL     1       1.800   4.584  18.460  0.00  0.00    +0.000 C 
ATOM     16  O   UNL     1       1.069   3.808  17.861  0.00  0.00    +0.000 OA
BRANCH  15  18
ATOM     17  C   UNL     1       2.335   4.260  20.727  0.00  0.00    +0.000 C 
ATOM     18  O   UNL     1       1.584   4.986  19.749  0.00  0.00    +0.000 OA
ENDBRANCH  15  18
ENDBRANCH   1  15
BRANCH   5  19
ATOM     19  O   UNL     1       4.372   3.276  17.020  0.00  0.00    +0.000 OA
ATOM     20  C   UNL     1       4.254   2.403  18.136  0.00  0.00    +0.000 C 
ENDBRANCH   5  19
TORSDOF 5
ENDMDL
MODEL 5
REMARK VINA RESULT:      -6.3      2.234      3.545
REMARK  Name = 
REMARK  7 active torsions:
REMARK  status: ('A' for Active; 'I' for Inactive)
REMARK    1  A    between atoms: C_1  and  O_2
REMARK    2  A    between atoms: O_2  and  C_3
REMARK    3  A    between atoms: C_3  and  C_5
REMARK    4  A    between atoms: C_8  and  S_9
REMARK    5  A    between atoms: S_9  and  N_12
REMARK    6  A    between atoms: C_18  and  O_19
REMARK    7  A    between atoms: O_19  and  C_20
REMARK                            x       y       z     vdW  Elec       q    Type
REMARK                         _______ _______ _______ _____ _____    ______ ____
ROOT
ATOM      1  C   UNL     1       6.199   4.636  15.271  0.00  0.00    +0.000 A 
ATOM      2  C   UNL     1       5.567   3.410  15.404  0.00  0.00    +0.000 A 
ATOM      3  S   UNL     1       4.622   3.293  16.812  0.00  0.00    +0.000 S 
ATOM      4  C   UNL     1       4.974   4.908  17.269  0.00  0.00    +0.000 A 
ATOM      5  C   UNL     1       5.794   5.527  16.336  0.00  0.00    +0.000 A 
ENDROOT
BRANCH   4   6
ATOM      6  S   UNL     1       4.198   5.471  18.798  0.00  0.00    +0.000 S 
ATOM      7  O   UNL     1       5.270   5.618  19.762  0.00  0.00    +0.000 OA
ATOM      8  O   UNL     1       3.376   6.596  18.424  0.00  0.00    +0.000 OA
BRANCH   6   9
ATOM      9  N   UNL     1       3.155   4.210  19.365  0.00  0.00    +0.000 NA
ATOM     10  C   UNL     1       3.346   3.892  20.802  0.00  0.00    +0.000 C 
ATOM     11  C   UNL     1       2.417   2.785  21.285  0.00  0.00    +0.000 C 
ATOM     12  C   UNL     1       0.971   3.078  20.922  0.00  0.00    +0.000 C 
ATOM     13  C   UNL     1       0.857   3.213  19.412  0.00  0.00    +0.000 C 
ATOM     14  C   UNL     1       1.752   4.330  18.892  0.00  0.00    +0.000 C 
ENDBRANCH   6   9
ENDBRANCH   4   6
BRANCH   1  15
ATOM     15  C   UNL     1       7.148   4.874  14.184  0.00  0.00    +0.000 C 
ATOM     16  O   UNL     1       8.082   5.661  14.248  0.00  0.00    +0.000 OA
BRANCH  15  18
ATOM     17  C   UNL     1       7.335   4.700  11.846  0.00  0.00    +0.000 C 
ATOM     18  O   UNL     1       6.852   4.138  13.071  0.00  0.00    +0.000 OA
ENDBRANCH  15  18
ENDBRANCH   1  15
BRANCH   5  19
ATOM     19  O   UNL     1       6.147   6.825  16.548  0.00  0.00    +0.000 OA
ATOM     20  C   UNL     1       7.292   7.039  17.362  0.00  0.00    +0.000 C 
ENDBRANCH   5  19
TORSDOF 5
ENDMDL
MODEL 6
REMARK VINA RESULT:      -6.2      1.632      2.539
REMARK  Name = 
REMARK  7 active torsions:
REMARK  status: ('A' for Active; 'I' for Inactive)
REMARK    1  A    between atoms: C_1  and  O_2
REMARK    2  A    between atoms: O_2  and  C_3
REMARK    3  A    between atoms: C_3  and  C_5
REMARK    4  A    between atoms: C_8  and  S_9
REMARK    5  A    between atoms: S_9  and  N_12
REMARK    6  A    between atoms: C_18  and  O_19
REMARK    7  A    between atoms: O_19  and  C_20
REMARK                            x       y       z     vdW  Elec       q    Type
REMARK                         _______ _______ _______ _____ _____    ______ ____
ROOT
ATOM      1  C   UNL     1       5.662   6.117  17.349  0.00  0.00    +0.000 A 
ATOM      2  C   UNL     1       4.798   7.091  17.824  0.00  0.00    +0.000 A 
ATOM      3  S   UNL     1       3.197   6.545  17.986  0.00  0.00    +0.000 S 
ATOM      4  C   UNL     1       3.611   4.959  17.483  0.00  0.00    +0.000 A 
ATOM      5  C   UNL     1       4.968   4.855  17.214  0.00  0.00    +0.000 A 
ENDROOT
BRANCH   4   6
ATOM      6  S   UNL     1       2.251   3.773  17.449  0.00  0.00    +0.000 S 
ATOM      7  O   UNL     1       1.044   4.551  17.253  0.00  0.00    +0.000 OA
ATOM      8  O   UNL     1       2.644   2.760  16.500  0.00  0.00    +0.000 OA
BRANCH   6   9
ATOM      9  N   UNL     1       2.147   3.033  19.011  0.00  0.00    +0.000 NA
ATOM     10  C   UNL     1       3.465   2.879  19.677  0.00  0.00    +0.000 C 
ATOM     11  C   UNL     1       3.354   2.231  21.051  0.00  0.00    +0.000 C 
ATOM     12  C   UNL     1       2.324   2.939  21.916  0.00  0.00    +0.000 C 
ATOM     13  C   UNL     1       0.974   2.887  21.220  0.00  0.00    +0.000 C 
ATOM     14  C   UNL     1       1.036   3.551  19.851  0.00  0.00    +0.000 C 
ENDBRANCH   6   9
ENDBRANCH   4   6
BRANCH   1  15
ATOM     15  C   UNL     1       7.052   6.441  17.033  0.00  0.00    +0.000 C 
ATOM     16  O   UNL     1       7.563   6.275  15.934  0.00  0.00    +0.000 OA
BRANCH  15  18
ATOM     17  C   UNL     1       7.941   5.957  19.155  0.00  0.00    +0.000 C 
ATOM     18  O   UNL     1       7.730   6.921  18.119  0.00  0.00    +0.000 OA
ENDBRANCH  15  18
ENDBRANCH   1  15
BRANCH   5  19
ATOM     19  O   UNL     1       5.457   3.646  16.822  0.00  0.00    +0.000 OA
ATOM     20  C   UNL     1       5.810   3.527  15.450  0.00  0.00    +0.000 C 
ENDBRANCH   5  19
TORSDOF 5
ENDMDL
MODEL 7
REMARK VINA RESULT:      -6.2      2.304      3.638
REMARK  Name = 
REMARK  7 active torsions:
REMARK  status: ('A' for Active; 'I' for Inactive)
REMARK    1  A    between atoms: C_1  and  O_2
REMARK    2  A    between atoms: O_2  and  C_3
REMARK    3  A    between atoms: C_3  and  C_5
REMARK    4  A    between atoms: C_8  and  S_9
REMARK    5  A    between atoms: S_9  and  N_12
REMARK    6  A    between atoms: C_18  and  O_19
REMARK    7  A    between atoms: O_19  and  C_20
REMARK                            x       y       z     vdW  Elec       q    Type
REMARK                         _______ _______ _______ _____ _____    ______ ____
ROOT
ATOM      1  C   UNL     1       6.197   4.736  15.274  0.00  0.00    +0.000 A 
ATOM      2  C   UNL     1       4.928   4.217  15.073  0.00  0.00    +0.000 A 
ATOM      3  S   UNL     1       4.016   4.104  16.502  0.00  0.00    +0.000 S 
ATOM      4  C   UNL     1       5.266   4.808  17.441  0.00  0.00    +0.000 A 
ATOM      5  C   UNL     1       6.360   5.139  16.655  0.00  0.00    +0.000 A 
ENDROOT
BRANCH   4   6
ATOM      6  S   UNL     1       4.901   5.010  19.197  0.00  0.00    +0.000 S 
ATOM      7  O   UNL     1       5.948   4.304  19.908  0.00  0.00    +0.000 OA
ATOM      8  O   UNL     1       4.696   6.425  19.390  0.00  0.00    +0.000 OA
BRANCH   6   9
ATOM      9  N   UNL     1       3.406   4.202  19.530  0.00  0.00    +0.000 NA
ATOM     10  C   UNL     1       3.588   2.839  20.089  0.00  0.00    +0.000 C 
ATOM     11  C   UNL     1       2.264   2.144  20.380  0.00  0.00    +0.000 C 
ATOM     12  C   UNL     1       1.352   3.022  21.222  0.00  0.00    +0.000 C 
ATOM     13  C   UNL     1       1.090   4.321  20.478  0.00  0.00    +0.000 C 
ATOM     14  C   UNL     1       2.390   5.060  20.191  0.00  0.00    +0.000 C 
ENDBRANCH   6   9
ENDBRANCH   4   6
BRANCH   1  15
ATOM     15  C   UNL     1       7.164   4.794  14.179  0.00  0.00    +0.000 C 
ATOM     16  O   UNL     1       8.057   5.625  14.095  0.00  0.00    +0.000 OA
BRANCH  15  18
ATOM     17  C   UNL     1       7.102   4.271  11.887  0.00  0.00    +0.000 C 
ATOM     18  O   UNL     1       6.936   3.829  13.238  0.00  0.00    +0.000 OA
ENDBRANCH  15  18
ENDBRANCH   1  15
BRANCH   5  19
ATOM     19  O   UNL     1       7.431   5.729  17.254  0.00  0.00    +0.000 OA
ATOM     20  C   UNL     1       7.395   7.147  17.346  0.00  0.00    +0.000 C 
ENDBRANCH   5  19
TORSDOF 5
ENDMDL
MODEL 8
REMARK VINA RESULT:      -6.2      2.617      6.235
REMARK  Name = 
REMARK  7 active torsions:
REMARK  status: ('A' for Active; 'I' for Inactive)
REMARK    1  A    between atoms: C_1  and  O_2
REMARK    2  A    between atoms: O_2  and  C_3
REMARK    3  A    between atoms: C_3  and  C_5
REMARK    4  A    between atoms: C_8  and  S_9
REMARK    5  A    between atoms: S_9  and  N_12
REMARK    6  A    between atoms: C_18  and  O_19
REMARK    7  A    between atoms: O_19  and  C_20
REMARK                            x       y       z     vdW  Elec       q    Type
REMARK                         _______ _______ _______ _____ _____    ______ ____
ROOT
ATOM      1  C   UNL     1       2.767   4.518  20.049  0.00  0.00    +0.000 A 
ATOM      2  C   UNL     1       2.382   5.741  19.524  0.00  0.00    +0.000 A 
ATOM      3  S   UNL     1       3.611   6.502  18.630  0.00  0.00    +0.000 S 
ATOM      4  C   UNL     1       4.690   5.189  18.858  0.00  0.00    +0.000 A 
ATOM      5  C   UNL     1       4.099   4.176  19.598  0.00  0.00    +0.000 A 
ENDROOT
BRANCH   4   6
ATOM      6  S   UNL     1       6.308   5.367  18.078  0.00  0.00    +0.000 S 
ATOM      7  O   UNL     1       6.736   6.724  18.346  0.00  0.00    +0.000 OA
ATOM      8  O   UNL     1       7.084   4.239  18.534  0.00  0.00    +0.000 OA
BRANCH   6   9
ATOM      9  N   UNL     1       6.096   5.214  16.366  0.00  0.00    +0.000 NA
ATOM     10  C   UNL     1       7.378   5.109  15.624  0.00  0.00    +0.000 C 
ATOM     11  C   UNL     1       7.173   4.970  14.120  0.00  0.00    +0.000 C 
ATOM     12  C   UNL     1       6.197   3.852  13.795  0.00  0.00    +0.000 C 
ATOM     13  C   UNL     1       4.864   4.147  14.463  0.00  0.00    +0.000 C 
ATOM     14  C   UNL     1       5.022   4.266  15.973  0.00  0.00    +0.000 C 
ENDBRANCH   6   9
ENDBRANCH   4   6
BRANCH   1  15
ATOM     15  C   UNL     1       1.881   3.777  20.946  0.00  0.00    +0.000 C 
ATOM     16  O   UNL     1       2.186   3.428  22.078  0.00  0.00    +0.000 OA
BRANCH  15  18
ATOM     17  C   UNL     1       0.766   2.601  19.242  0.00  0.00    +0.000 C 
ATOM     18  O   UNL     1       0.679   3.489  20.362  0.00  0.00    +0.000 OA
ENDBRANCH  15  18
ENDBRANCH   1  15
BRANCH   5  19
ATOM     19  O   UNL     1       4.825   3.051  19.847  0.00  0.00    +0.000 OA
ATOM     20  C   UNL     1       4.295   1.837  19.332  0.00  0.00    +0.000 C 
ENDBRANCH   5  19
TORSDOF 5
ENDMDL
MODEL 9
REMARK VINA RESULT:      -6.1      2.449      6.014
REMARK  Name = 
REMARK  7 active torsions:
REMARK  status: ('A' for Active; 'I' for Inactive)
REMARK    1  A    between atoms: C_1  and  O_2
REMARK    2  A    between atoms: O_2  and  C_3
REMARK    3  A    between atoms: C_3  and  C_5
REMARK    4  A    between atoms: C_8  and  S_9
REMARK    5  A    between atoms: S_9  and  N_12
REMARK    6  A    between atoms: C_18  and  O_19
REMARK    7  A    between atoms: O_19  and  C_20
REMARK                            x       y       z     vdW  Elec       q    Type
REMARK                         _______ _______ _______ _____ _____    ______ ____
ROOT
ATOM      1  C   UNL     1       2.063   4.590  18.674  0.00  0.00    +0.000 A 
ATOM      2  C   UNL     1       2.059   5.951  18.933  0.00  0.00    +0.000 A 
ATOM      3  S   UNL     1       3.247   6.801  18.064  0.00  0.00    +0.000 S 
ATOM      4  C   UNL     1       3.774   5.383  17.256  0.00  0.00    +0.000 A 
ATOM      5  C   UNL     1       3.029   4.278  17.643  0.00  0.00    +0.000 A 
ENDROOT
BRANCH   4   6
ATOM      6  S   UNL     1       5.118   5.614  16.075  0.00  0.00    +0.000 S 
ATOM      7  O   UNL     1       5.216   4.375  15.330  0.00  0.00    +0.000 OA
ATOM      8  O   UNL     1       4.837   6.861  15.406  0.00  0.00    +0.000 OA
BRANCH   6   9
ATOM      9  N   UNL     1       6.589   5.804  16.968  0.00  0.00    +0.000 NA
ATOM     10  C   UNL     1       6.829   7.200  17.412  0.00  0.00    +0.000 C 
ATOM     11  C   UNL     1       8.124   7.349  18.200  0.00  0.00    +0.000 C 
ATOM     12  C   UNL     1       8.203   6.337  19.331  0.00  0.00    +0.000 C 
ATOM     13  C   UNL     1       8.122   4.936  18.750  0.00  0.00    +0.000 C 
ATOM     14  C   UNL     1       6.826   4.738  17.975  0.00  0.00    +0.000 C 
ENDBRANCH   6   9
ENDBRANCH   4   6
BRANCH   1  15
ATOM     15  C   UNL     1       1.191   3.684  19.421  0.00  0.00    +0.000 C 
ATOM     16  O   UNL     1       0.547   2.776  18.914  0.00  0.00    +0.000 OA
BRANCH  15  18
ATOM     17  C   UNL     1       1.870   3.078  21.589  0.00  0.00    +0.000 C 
ATOM     18  O   UNL     1       1.150   3.989  20.753  0.00  0.00    +0.000 OA
ENDBRANCH  15  18
ENDBRANCH   1  15
BRANCH   5  19
ATOM     19  O   UNL     1       3.314   3.076  17.072  0.00  0.00    +0.000 OA
ATOM     20  C   UNL     1       3.845   2.080  17.937  0.00  0.00    +0.000 C 
ENDBRANCH   5  19
TORSDOF 5
ENDMDL
