MODEL 1
REMARK VINA RESULT:      -9.4      0.000      0.000
REMARK  Name = 
REMARK  2 active torsions:
REMARK  status: ('A' for Active; 'I' for Inactive)
REMARK    1  A    between atoms: N_2  and  C_4
REMARK    2  A    between atoms: C_8  and  C_9
REMARK                            x       y       z     vdW  Elec       q    Type
REMARK                         _______ _______ _______ _____ _____    ______ ____
ROOT
ATOM      1  C   UNL     1       5.476   5.314  15.930  0.00  0.00    +0.000 C 
ATOM      2  N   UNL     1       6.444   6.335  16.490  0.00  0.00    +0.000 NA
ATOM      3  N   UNL     1       7.529   5.632  17.258  0.00  0.00    +0.000 NA
ATOM      4  C   UNL     1       6.964   5.338  18.570  0.00  0.00    +0.000 C 
ATOM      5  C   UNL     1       5.540   5.032  18.458  0.00  0.00    +0.000 A 
ATOM      6  N   UNL     1       4.659   5.474  19.309  0.00  0.00    +0.000 NA
ATOM      7  C   UNL     1       3.488   4.950  18.930  0.00  0.00    +0.000 A 
ATOM      8  C   UNL     1       2.357   4.899  19.766  0.00  0.00    +0.000 A 
ATOM      9  C   UNL     1       1.350   4.006  19.466  0.00  0.00    +0.000 A 
ATOM     10  C   UNL     1       1.454   3.268  18.286  0.00  0.00    +0.000 A 
ATOM     11  C   UNL     1       2.530   3.430  17.345  0.00  0.00    +0.000 A 
ATOM     12  C   UNL     1       3.592   4.304  17.678  0.00  0.00    +0.000 A 
ATOM     13  N   UNL     1       4.929   4.599  17.212  0.00  0.00    +0.000 N 
ATOM     14  H   UNL     1       6.846   6.905  15.746  0.00  0.00    +0.000 HD
ATOM     15  H   UNL     1       7.771   4.730  16.840  0.00  0.00    +0.000 HD
ENDROOT
BRANCH   1  20
ATOM     16  C   UNL     1       5.985   3.505  12.468  0.00  0.00    +0.000 A 
ATOM     17  C   UNL     1       7.112   4.115  11.927  0.00  0.00    +0.000 A 
ATOM     18  C   UNL     1       7.803   5.035  12.701  0.00  0.00    +0.000 A 
ATOM     19  C   UNL     1       7.420   5.355  14.047  0.00  0.00    +0.000 A 
ATOM     20  C   UNL     1       6.297   4.763  14.663  0.00  0.00    +0.000 A 
ATOM     21  C   UNL     1       5.584   3.813  13.806  0.00  0.00    +0.000 A 
BRANCH  16  23
ATOM     22  O   UNL     1       4.069   2.979  11.253  0.00  0.00    +0.000 OA
ATOM     23  N   UNL     1       5.193   2.597  11.624  0.00  0.00    +0.000 N 
ATOM     24  O   UNL     1       5.670   1.488  11.363  0.00  0.00    +0.000 OA
ENDBRANCH  16  23
ENDBRANCH   1  20
TORSDOF 2
ENDMDL
MODEL 2
REMARK VINA RESULT:      -9.4      3.565      6.819
REMARK  Name = 
REMARK  2 active torsions:
REMARK  status: ('A' for Active; 'I' for Inactive)
REMARK    1  A    between atoms: N_2  and  C_4
REMARK    2  A    between atoms: C_8  and  C_9
REMARK                            x       y       z     vdW  Elec       q    Type
REMARK                         _______ _______ _______ _____ _____    ______ ____
ROOT
ATOM      1  C   UNL     1       4.963   3.635  16.991  0.00  0.00    +0.000 C 
ATOM      2  N   UNL     1       5.731   4.307  18.110  0.00  0.00    +0.000 NA
ATOM      3  N   UNL     1       5.263   5.728  18.259  0.00  0.00    +0.000 NA
ATOM      4  C   UNL     1       5.957   6.488  17.225  0.00  0.00    +0.000 C 
ATOM      5  C   UNL     1       6.133   5.676  16.024  0.00  0.00    +0.000 A 
ATOM      6  N   UNL     1       7.236   5.680  15.331  0.00  0.00    +0.000 NA
ATOM      7  C   UNL     1       7.014   4.879  14.284  0.00  0.00    +0.000 A 
ATOM      8  C   UNL     1       7.816   4.877  13.127  0.00  0.00    +0.000 A 
ATOM      9  C   UNL     1       7.303   4.341  11.966  0.00  0.00    +0.000 A 
ATOM     10  C   UNL     1       6.049   3.730  12.019  0.00  0.00    +0.000 A 
ATOM     11  C   UNL     1       5.292   3.586  13.234  0.00  0.00    +0.000 A 
ATOM     12  C   UNL     1       5.791   4.184  14.416  0.00  0.00    +0.000 A 
ATOM     13  N   UNL     1       5.313   4.510  15.740  0.00  0.00    +0.000 N 
ATOM     14  H   UNL     1       5.618   3.801  18.988  0.00  0.00    +0.000 HD
ATOM     15  H   UNL     1       4.263   5.824  18.065  0.00  0.00    +0.000 HD
ENDROOT
BRANCH   1  20
ATOM     16  C   UNL     1       2.556   2.891  20.019  0.00  0.00    +0.000 A 
ATOM     17  C   UNL     1       1.314   3.346  19.588  0.00  0.00    +0.000 A 
ATOM     18  C   UNL     1       1.191   3.794  18.282  0.00  0.00    +0.000 A 
ATOM     19  C   UNL     1       2.283   3.775  17.351  0.00  0.00    +0.000 A 
ATOM     20  C   UNL     1       3.565   3.313  17.718  0.00  0.00    +0.000 A 
ATOM     21  C   UNL     1       3.659   2.867  19.109  0.00  0.00    +0.000 A 
BRANCH  16  23
ATOM     22  O   UNL     1       1.793   2.754  22.217  0.00  0.00    +0.000 OA
ATOM     23  N   UNL     1       2.720   2.498  21.428  0.00  0.00    +0.000 N 
ATOM     24  O   UNL     1       3.788   1.972  21.759  0.00  0.00    +0.000 OA
ENDBRANCH  16  23
ENDBRANCH   1  20
TORSDOF 2
ENDMDL
MODEL 3
REMARK VINA RESULT:      -8.0      2.865      6.219
REMARK  Name = 
REMARK  2 active torsions:
REMARK  status: ('A' for Active; 'I' for Inactive)
REMARK    1  A    between atoms: N_2  and  C_4
REMARK    2  A    between atoms: C_8  and  C_9
REMARK                            x       y       z     vdW  Elec       q    Type
REMARK                         _______ _______ _______ _____ _____    ______ ____
ROOT
ATOM      1  C   UNL     1       5.952   3.825  17.444  0.00  0.00    +0.000 C 
ATOM      2  N   UNL     1       7.011   4.529  18.267  0.00  0.00    +0.000 NA
ATOM      3  N   UNL     1       6.634   5.975  18.437  0.00  0.00    +0.000 NA
ATOM      4  C   UNL     1       7.040   6.643  17.205  0.00  0.00    +0.000 C 
ATOM      5  C   UNL     1       6.866   5.753  16.060  0.00  0.00    +0.000 A 
ATOM      6  N   UNL     1       7.741   5.670  15.098  0.00  0.00    +0.000 NA
ATOM      7  C   UNL     1       7.225   4.817  14.207  0.00  0.00    +0.000 A 
ATOM      8  C   UNL     1       7.684   4.712  12.880  0.00  0.00    +0.000 A 
ATOM      9  C   UNL     1       6.863   4.130  11.939  0.00  0.00    +0.000 A 
ATOM     10  C   UNL     1       5.656   3.575  12.369  0.00  0.00    +0.000 A 
ATOM     11  C   UNL     1       5.252   3.536  13.749  0.00  0.00    +0.000 A 
ATOM     12  C   UNL     1       6.066   4.183  14.710  0.00  0.00    +0.000 A 
ATOM     13  N   UNL     1       5.972   4.608  16.088  0.00  0.00    +0.000 N 
ATOM     14  H   UNL     1       7.126   4.082  19.176  0.00  0.00    +0.000 HD
ATOM     15  H   UNL     1       5.622   6.102  18.512  0.00  0.00    +0.000 HD
ENDROOT
BRANCH   1  20
ATOM     16  C   UNL     1       2.297   3.152  18.749  0.00  0.00    +0.000 A 
ATOM     17  C   UNL     1       2.483   2.549  19.989  0.00  0.00    +0.000 A 
ATOM     18  C   UNL     1       3.772   2.447  20.489  0.00  0.00    +0.000 A 
ATOM     19  C   UNL     1       4.914   2.969  19.794  0.00  0.00    +0.000 A 
ATOM     20  C   UNL     1       4.796   3.605  18.539  0.00  0.00    +0.000 A 
ATOM     21  C   UNL     1       3.422   3.674  18.038  0.00  0.00    +0.000 A 
BRANCH  16  23
ATOM     22  O   UNL     1       0.138   2.306  18.523  0.00  0.00    +0.000 OA
ATOM     23  N   UNL     1       0.946   3.183  18.168  0.00  0.00    +0.000 N 
ATOM     24  O   UNL     1       0.699   4.055  17.328  0.00  0.00    +0.000 OA
ENDBRANCH  16  23
ENDBRANCH   1  20
TORSDOF 2
ENDMDL
MODEL 4
REMARK VINA RESULT:      -7.7      3.365      6.682
REMARK  Name = 
REMARK  2 active torsions:
REMARK  status: ('A' for Active; 'I' for Inactive)
REMARK    1  A    between atoms: N_2  and  C_4
REMARK    2  A    between atoms: C_8  and  C_9
REMARK                            x       y       z     vdW  Elec       q    Type
REMARK                         _______ _______ _______ _____ _____    ______ ____
ROOT
ATOM      1  C   UNL     1       5.402   3.637  17.092  0.00  0.00    +0.000 C 
ATOM      2  N   UNL     1       6.377   4.216  18.097  0.00  0.00    +0.000 NA
ATOM      3  N   UNL     1       6.064   5.670  18.320  0.00  0.00    +0.000 NA
ATOM      4  C   UNL     1       6.672   6.387  17.204  0.00  0.00    +0.000 C 
ATOM      5  C   UNL     1       6.606   5.586  15.984  0.00  0.00    +0.000 A 
ATOM      6  N   UNL     1       7.597   5.506  15.143  0.00  0.00    +0.000 NA
ATOM      7  C   UNL     1       7.160   4.748  14.132  0.00  0.00    +0.000 A 
ATOM      8  C   UNL     1       7.789   4.698  12.874  0.00  0.00    +0.000 A 
ATOM      9  C   UNL     1       7.073   4.233  11.792  0.00  0.00    +0.000 A 
ATOM     10  C   UNL     1       5.788   3.733  12.018  0.00  0.00    +0.000 A 
ATOM     11  C   UNL     1       5.198   3.633  13.326  0.00  0.00    +0.000 A 
ATOM     12  C   UNL     1       5.909   4.161  14.430  0.00  0.00    +0.000 A 
ATOM     13  N   UNL     1       5.652   4.503  15.810  0.00  0.00    +0.000 N 
ATOM     14  H   UNL     1       6.341   3.705  18.978  0.00  0.00    +0.000 HD
ATOM     15  H   UNL     1       5.060   5.858  18.269  0.00  0.00    +0.000 HD
ENDROOT
BRANCH   1  20
ATOM     16  C   UNL     1       2.362   4.720  19.351  0.00  0.00    +0.000 A 
ATOM     17  C   UNL     1       1.428   3.704  19.176  0.00  0.00    +0.000 A 
ATOM     18  C   UNL     1       1.790   2.595  18.427  0.00  0.00    +0.000 A 
ATOM     19  C   UNL     1       3.097   2.440  17.856  0.00  0.00    +0.000 A 
ATOM     20  C   UNL     1       4.097   3.425  18.006  0.00  0.00    +0.000 A 
ATOM     21  C   UNL     1       3.669   4.588  18.786  0.00  0.00    +0.000 A 
BRANCH  16  23
ATOM     22  O   UNL     1       2.484   7.017  19.725  0.00  0.00    +0.000 OA
ATOM     23  N   UNL     1       1.960   5.942  20.066  0.00  0.00    +0.000 N 
ATOM     24  O   UNL     1       1.153   5.827  20.994  0.00  0.00    +0.000 OA
ENDBRANCH  16  23
ENDBRANCH   1  20
TORSDOF 2
ENDMDL
MODEL 5
REMARK VINA RESULT:      -7.5      6.164      7.912
REMARK  Name = 
REMARK  2 active torsions:
REMARK  status: ('A' for Active; 'I' for Inactive)
REMARK    1  A    between atoms: N_2  and  C_4
REMARK    2  A    between atoms: C_8  and  C_9
REMARK                            x       y       z     vdW  Elec       q    Type
REMARK                         _______ _______ _______ _____ _____    ______ ____
ROOT
ATOM      1  C   UNL     1       1.225   9.041  18.930  0.00  0.00    +0.000 C 
ATOM      2  N   UNL     1       1.285   9.786  17.613  0.00  0.00    +0.000 NA
ATOM      3  N   UNL     1       2.441  10.747  17.632  0.00  0.00    +0.000 NA
ATOM      4  C   UNL     1       1.974  11.921  18.361  0.00  0.00    +0.000 C 
ATOM      5  C   UNL     1       1.057  11.529  19.429  0.00  0.00    +0.000 A 
ATOM      6  N   UNL     1      -0.030  12.194  19.698  0.00  0.00    +0.000 NA
ATOM      7  C   UNL     1      -0.576  11.589  20.759  0.00  0.00    +0.000 A 
ATOM      8  C   UNL     1      -1.561  12.186  21.567  0.00  0.00    +0.000 A 
ATOM      9  C   UNL     1      -1.769  11.689  22.836  0.00  0.00    +0.000 A 
ATOM     10  C   UNL     1      -1.063  10.547  23.220  0.00  0.00    +0.000 A 
ATOM     11  C   UNL     1      -0.172   9.837  22.342  0.00  0.00    +0.000 A 
ATOM     12  C   UNL     1       0.086  10.377  21.059  0.00  0.00    +0.000 A 
ATOM     13  N   UNL     1       1.029  10.185  19.981  0.00  0.00    +0.000 N 
ATOM     14  H   UNL     1       1.373   9.139  16.830  0.00  0.00    +0.000 HD
ATOM     15  H   UNL     1       3.237  10.380  18.159  0.00  0.00    +0.000 HD
ENDROOT
BRANCH   1  20
ATOM     16  C   UNL     1       3.059   5.585  19.391  0.00  0.00    +0.000 A 
ATOM     17  C   UNL     1       3.833   5.453  18.243  0.00  0.00    +0.000 A 
ATOM     18  C   UNL     1       3.877   6.513  17.349  0.00  0.00    +0.000 A 
ATOM     19  C   UNL     1       3.185   7.749  17.581  0.00  0.00    +0.000 A 
ATOM     20  C   UNL     1       2.394   7.955  18.731  0.00  0.00    +0.000 A 
ATOM     21  C   UNL     1       2.358   6.807  19.639  0.00  0.00    +0.000 A 
BRANCH  16  23
ATOM     22  O   UNL     1       2.158   4.539  21.268  0.00  0.00    +0.000 OA
ATOM     23  N   UNL     1       2.932   4.435  20.300  0.00  0.00    +0.000 N 
ATOM     24  O   UNL     1       3.632   3.442  20.075  0.00  0.00    +0.000 OA
ENDBRANCH  16  23
ENDBRANCH   1  20
TORSDOF 2
ENDMDL
MODEL 6
REMARK VINA RESULT:      -7.5      1.057      1.145
REMARK  Name = 
REMARK  2 active torsions:
REMARK  status: ('A' for Active; 'I' for Inactive)
REMARK    1  A    between atoms: N_2  and  C_4
REMARK    2  A    between atoms: C_8  and  C_9
REMARK                            x       y       z     vdW  Elec       q    Type
REMARK                         _______ _______ _______ _____ _____    ______ ____
ROOT
ATOM      1  C   UNL     1       5.468   4.945  15.566  0.00  0.00    +0.000 C 
ATOM      2  N   UNL     1       6.758   5.657  15.914  0.00  0.00    +0.000 NA
ATOM      3  N   UNL     1       7.733   4.674  16.501  0.00  0.00    +0.000 NA
ATOM      4  C   UNL     1       7.352   4.520  17.901  0.00  0.00    +0.000 C 
ATOM      5  C   UNL     1       5.902   4.611  18.050  0.00  0.00    +0.000 A 
ATOM      6  N   UNL     1       5.338   5.260  19.029  0.00  0.00    +0.000 NA
ATOM      7  C   UNL     1       4.021   5.078  18.878  0.00  0.00    +0.000 A 
ATOM      8  C   UNL     1       3.085   5.319  19.901  0.00  0.00    +0.000 A 
ATOM      9  C   UNL     1       1.839   4.737  19.811  0.00  0.00    +0.000 A 
ATOM     10  C   UNL     1       1.529   4.018  18.654  0.00  0.00    +0.000 A 
ATOM     11  C   UNL     1       2.425   3.901  17.534  0.00  0.00    +0.000 A 
ATOM     12  C   UNL     1       3.724   4.450  17.647  0.00  0.00    +0.000 A 
ATOM     13  N   UNL     1       4.985   4.381  16.945  0.00  0.00    +0.000 N 
ATOM     14  H   UNL     1       7.160   6.110  15.094  0.00  0.00    +0.000 HD
ATOM     15  H   UNL     1       7.646   3.748  16.075  0.00  0.00    +0.000 HD
ENDROOT
BRANCH   1  20
ATOM     16  C   UNL     1       4.936   3.594  11.904  0.00  0.00    +0.000 A 
ATOM     17  C   UNL     1       6.212   3.594  11.351  0.00  0.00    +0.000 A 
ATOM     18  C   UNL     1       7.287   3.915  12.167  0.00  0.00    +0.000 A 
ATOM     19  C   UNL     1       7.136   4.212  13.563  0.00  0.00    +0.000 A 
ATOM     20  C   UNL     1       5.872   4.216  14.191  0.00  0.00    +0.000 A 
ATOM     21  C   UNL     1       4.763   3.891  13.292  0.00  0.00    +0.000 A 
BRANCH  16  23
ATOM     22  O   UNL     1       3.462   4.232  10.216  0.00  0.00    +0.000 OA
ATOM     23  N   UNL     1       3.780   3.345  11.027  0.00  0.00    +0.000 N 
ATOM     24  O   UNL     1       3.164   2.284  11.173  0.00  0.00    +0.000 OA
ENDBRANCH  16  23
ENDBRANCH   1  20
TORSDOF 2
ENDMDL
MODEL 7
REMARK VINA RESULT:      -7.5      3.450      6.664
REMARK  Name = 
REMARK  2 active torsions:
REMARK  status: ('A' for Active; 'I' for Inactive)
REMARK    1  A    between atoms: N_2  and  C_4
REMARK    2  A    between atoms: C_8  and  C_9
REMARK                            x       y       z     vdW  Elec       q    Type
REMARK                         _______ _______ _______ _____ _____    ______ ____
ROOT
ATOM      1  C   UNL     1       5.849   4.071  17.761  0.00  0.00    +0.000 C 
ATOM      2  N   UNL     1       7.075   4.620  18.460  0.00  0.00    +0.000 NA
ATOM      3  N   UNL     1       6.967   6.116  18.565  0.00  0.00    +0.000 NA
ATOM      4  C   UNL     1       7.380   6.639  17.267  0.00  0.00    +0.000 C 
ATOM      5  C   UNL     1       6.964   5.738  16.195  0.00  0.00    +0.000 A 
ATOM      6  N   UNL     1       7.730   5.455  15.181  0.00  0.00    +0.000 NA
ATOM      7  C   UNL     1       7.005   4.662  14.384  0.00  0.00    +0.000 A 
ATOM      8  C   UNL     1       7.330   4.412  13.038  0.00  0.00    +0.000 A 
ATOM      9  C   UNL     1       6.347   3.937  12.196  0.00  0.00    +0.000 A 
ATOM     10  C   UNL     1       5.102   3.624  12.746  0.00  0.00    +0.000 A 
ATOM     11  C   UNL     1       4.811   3.726  14.151  0.00  0.00    +0.000 A 
ATOM     12  C   UNL     1       5.799   4.267  15.008  0.00  0.00    +0.000 A 
ATOM     13  N   UNL     1       5.892   4.770  16.359  0.00  0.00    +0.000 N 
ATOM     14  H   UNL     1       7.186   4.205  19.384  0.00  0.00    +0.000 HD
ATOM     15  H   UNL     1       6.001   6.421  18.704  0.00  0.00    +0.000 HD
ENDROOT
BRANCH   1  20
ATOM     16  C   UNL     1       2.831   5.509  19.845  0.00  0.00    +0.000 A 
ATOM     17  C   UNL     1       2.261   4.387  20.438  0.00  0.00    +0.000 A 
ATOM     18  C   UNL     1       2.892   3.163  20.281  0.00  0.00    +0.000 A 
ATOM     19  C   UNL     1       4.125   3.015  19.562  0.00  0.00    +0.000 A 
ATOM     20  C   UNL     1       4.765   4.113  18.947  0.00  0.00    +0.000 A 
ATOM     21  C   UNL     1       4.057   5.383  19.119  0.00  0.00    +0.000 A 
BRANCH  16  23
ATOM     22  O   UNL     1       1.431   7.017  20.937  0.00  0.00    +0.000 OA
ATOM     23  N   UNL     1       2.122   6.796  19.927  0.00  0.00    +0.000 N 
ATOM     24  O   UNL     1       2.219   7.570  18.969  0.00  0.00    +0.000 OA
ENDBRANCH  16  23
ENDBRANCH   1  20
TORSDOF 2
ENDMDL
MODEL 8
REMARK VINA RESULT:      -7.4      3.582      6.853
REMARK  Name = 
REMARK  2 active torsions:
REMARK  status: ('A' for Active; 'I' for Inactive)
REMARK    1  A    between atoms: N_2  and  C_4
REMARK    2  A    between atoms: C_8  and  C_9
REMARK                            x       y       z     vdW  Elec       q    Type
REMARK                         _______ _______ _______ _____ _____    ______ ____
ROOT
ATOM      1  C   UNL     1       5.086   3.917  18.424  0.00  0.00    +0.000 C 
ATOM      2  N   UNL     1       6.283   3.938  19.352  0.00  0.00    +0.000 NA
ATOM      3  N   UNL     1       6.653   5.362  19.661  0.00  0.00    +0.000 NA
ATOM      4  C   UNL     1       7.433   5.830  18.521  0.00  0.00    +0.000 C 
ATOM      5  C   UNL     1       6.938   5.234  17.283  0.00  0.00    +0.000 A 
ATOM      6  N   UNL     1       7.734   4.800  16.347  0.00  0.00    +0.000 NA
ATOM      7  C   UNL     1       6.940   4.386  15.354  0.00  0.00    +0.000 A 
ATOM      8  C   UNL     1       7.394   4.167  14.040  0.00  0.00    +0.000 A 
ATOM      9  C   UNL     1       6.473   4.142  13.015  0.00  0.00    +0.000 A 
ATOM     10  C   UNL     1       5.119   4.230  13.344  0.00  0.00    +0.000 A 
ATOM     11  C   UNL     1       4.637   4.293  14.698  0.00  0.00    +0.000 A 
ATOM     12  C   UNL     1       5.583   4.376  15.748  0.00  0.00    +0.000 A 
ATOM     13  N   UNL     1       5.598   4.686  17.159  0.00  0.00    +0.000 N 
ATOM     14  H   UNL     1       6.089   3.426  20.211  0.00  0.00    +0.000 HD
ATOM     15  H   UNL     1       5.831   5.969  19.715  0.00  0.00    +0.000 HD
ENDROOT
BRANCH   1  20
ATOM     16  C   UNL     1       2.220   6.033  20.106  0.00  0.00    +0.000 A 
ATOM     17  C   UNL     1       1.330   5.080  20.588  0.00  0.00    +0.000 A 
ATOM     18  C   UNL     1       1.677   3.741  20.491  0.00  0.00    +0.000 A 
ATOM     19  C   UNL     1       2.931   3.305  19.945  0.00  0.00    +0.000 A 
ATOM     20  C   UNL     1       3.886   4.219  19.451  0.00  0.00    +0.000 A 
ATOM     21  C   UNL     1       3.473   5.620  19.553  0.00  0.00    +0.000 A 
BRANCH  16  23
ATOM     22  O   UNL     1       1.251   7.885  21.135  0.00  0.00    +0.000 OA
ATOM     23  N   UNL     1       1.823   7.450  20.120  0.00  0.00    +0.000 N 
ATOM     24  O   UNL     1       2.043   8.121  19.106  0.00  0.00    +0.000 OA
ENDBRANCH  16  23
ENDBRANCH   1  20
TORSDOF 2
ENDMDL
MODEL 9
REMARK VINA RESULT:      -7.3      5.463      7.030
REMARK  Name = 
REMARK  2 active torsions:
REMARK  status: ('A' for Active; 'I' for Inactive)
REMARK    1  A    between atoms: N_2  and  C_4
REMARK    2  A    between atoms: C_8  and  C_9
REMARK                            x       y       z     vdW  Elec       q    Type
REMARK                         _______ _______ _______ _____ _____    ______ ____
ROOT
ATOM      1  C   UNL     1       1.436   8.613  18.737  0.00  0.00    +0.000 C 
ATOM      2  N   UNL     1       1.338   9.417  17.457  0.00  0.00    +0.000 NA
ATOM      3  N   UNL     1       2.456  10.420  17.407  0.00  0.00    +0.000 NA
ATOM      4  C   UNL     1       2.025  11.543  18.234  0.00  0.00    +0.000 C 
ATOM      5  C   UNL     1       1.235  11.069  19.368  0.00  0.00    +0.000 A 
ATOM      6  N   UNL     1       0.158  11.678  19.775  0.00  0.00    +0.000 NA
ATOM      7  C   UNL     1      -0.257  11.007  20.854  0.00  0.00    +0.000 A 
ATOM      8  C   UNL     1      -1.176  11.529  21.784  0.00  0.00    +0.000 A 
ATOM      9  C   UNL     1      -1.237  10.969  23.042  0.00  0.00    +0.000 A 
ATOM     10  C   UNL     1      -0.457   9.840  23.299  0.00  0.00    +0.000 A 
ATOM     11  C   UNL     1       0.364   9.204  22.305  0.00  0.00    +0.000 A 
ATOM     12  C   UNL     1       0.473   9.810  21.030  0.00  0.00    +0.000 A 
ATOM     13  N   UNL     1       1.308   9.702  19.855  0.00  0.00    +0.000 N 
ATOM     14  H   UNL     1       1.368   8.809  16.639  0.00  0.00    +0.000 HD
ATOM     15  H   UNL     1       3.313  10.061  17.835  0.00  0.00    +0.000 HD
ENDROOT
BRANCH   1  20
ATOM     16  C   UNL     1       3.044   5.117  17.893  0.00  0.00    +0.000 A 
ATOM     17  C   UNL     1       4.164   5.432  17.131  0.00  0.00    +0.000 A 
ATOM     18  C   UNL     1       4.497   6.767  16.963  0.00  0.00    +0.000 A 
ATOM     19  C   UNL     1       3.753   7.832  17.574  0.00  0.00    +0.000 A 
ATOM     20  C   UNL     1       2.616   7.583  18.372  0.00  0.00    +0.000 A 
ATOM     21  C   UNL     1       2.286   6.163  18.507  0.00  0.00    +0.000 A 
BRANCH  16  23
ATOM     22  O   UNL     1       2.808   3.131  19.088  0.00  0.00    +0.000 OA
ATOM     23  N   UNL     1       2.629   3.710  18.001  0.00  0.00    +0.000 N 
ATOM     24  O   UNL     1       2.162   3.167  16.995  0.00  0.00    +0.000 OA
ENDBRANCH  16  23
ENDBRANCH   1  20
TORSDOF 2
ENDMDL
