MODEL 1
REMARK VINA RESULT:      -8.8      0.000      0.000
REMARK  Name = 
REMARK  3 active torsions:
REMARK  status: ('A' for Active; 'I' for Inactive)
REMARK    1  A    between atoms: C_2  and  C_3
REMARK    2  A    between atoms: N_8  and  C_9
REMARK    3  A    between atoms: C_16  and  C_17
REMARK                            x       y       z     vdW  Elec       q    Type
REMARK                         _______ _______ _______ _____ _____    ______ ____
ROOT
ATOM      1  C   UNL     1       3.024   5.774  18.788  0.00  0.00    +0.000 A 
ATOM      2  N   UNL     1       2.874   4.689  19.571  0.00  0.00    +0.000 NA
ATOM      3  C   UNL     1       2.178   4.833  20.701  0.00  0.00    +0.000 A 
ATOM      4  N   UNL     1       1.629   5.966  21.145  0.00  0.00    +0.000 NA
ATOM      5  C   UNL     1       1.726   7.048  20.355  0.00  0.00    +0.000 A 
ATOM      6  C   UNL     1       1.117   8.261  20.736  0.00  0.00    +0.000 A 
ATOM      7  F   UNL     1       0.510   8.277  21.940  0.00  0.00    +0.000 F 
ATOM      8  C   UNL     1       1.039   9.433  19.933  0.00  0.00    +0.000 A 
ATOM      9  C   UNL     1       1.650   9.330  18.681  0.00  0.00    +0.000 A 
ATOM     10 CL   UNL     1       1.572  10.541  17.447  0.00  0.00    +0.000 Cl
ATOM     11  C   UNL     1       2.287   8.143  18.295  0.00  0.00    +0.000 A 
ATOM     12  C   UNL     1       2.380   6.997  19.123  0.00  0.00    +0.000 A 
ENDROOT
BRANCH   8  13
ATOM     13  C   UNL     1       0.181  10.576  20.360  0.00  0.00    +0.000 A 
ATOM     14  C   UNL     1       0.537  11.309  21.524  0.00  0.00    +0.000 A 
ATOM     15  C   UNL     1      -0.248  12.329  22.041  0.00  0.00    +0.000 A 
ATOM     16  C   UNL     1      -1.448  12.646  21.428  0.00  0.00    +0.000 A 
ATOM     17  F   UNL     1      -2.222  13.599  21.960  0.00  0.00    +0.000 F 
ATOM     18  C   UNL     1      -1.833  11.953  20.277  0.00  0.00    +0.000 A 
ATOM     19  S   UNL     1      -3.287  12.139  19.383  0.00  0.00    +0.000 S 
ATOM     20  C   UNL     1      -2.785  10.911  18.312  0.00  0.00    +0.000 A 
ATOM     21  N   UNL     1      -3.600  10.504  17.330  0.00  0.00    +0.000 N 
ATOM     22  N   UNL     1      -1.588  10.420  18.532  0.00  0.00    +0.000 NA
ATOM     23  C   UNL     1      -1.040  10.950  19.705  0.00  0.00    +0.000 A 
ATOM     24  H   UNL     1      -4.428  11.038  17.095  0.00  0.00    +0.000 HD
ATOM     25  H   UNL     1      -3.244   9.885  16.613  0.00  0.00    +0.000 HD
ENDBRANCH   8  13
BRANCH   1  31
ATOM     26  C   UNL     1       6.866   4.687  14.991  0.00  0.00    +0.000 C 
ATOM     27  O   UNL     1       7.814   5.454  14.845  0.00  0.00    +0.000 OA
ATOM     28  N   UNL     1       6.058   4.699  16.107  0.00  0.00    +0.000 N 
ATOM     29  C   UNL     1       6.267   5.742  17.103  0.00  0.00    +0.000 C 
ATOM     30  C   UNL     1       4.968   6.507  17.375  0.00  0.00    +0.000 C 
ATOM     31  N   UNL     1       3.838   5.615  17.679  0.00  0.00    +0.000 N 
ATOM     32  C   UNL     1       3.670   4.440  16.798  0.00  0.00    +0.000 C 
ATOM     33  C   UNL     1       5.014   3.738  16.498  0.00  0.00    +0.000 C 
BRANCH  26  35
ATOM     34  C   UNL     1       6.716   4.059  12.634  0.00  0.00    +0.000 C 
ATOM     35  C   UNL     1       6.526   3.721  13.914  0.00  0.00    +0.000 C 
ENDBRANCH  26  35
ENDBRANCH   1  31
TORSDOF 3
ENDMDL
MODEL 2
REMARK VINA RESULT:      -8.5      1.960      2.530
REMARK  Name = 
REMARK  3 active torsions:
REMARK  status: ('A' for Active; 'I' for Inactive)
REMARK    1  A    between atoms: C_2  and  C_3
REMARK    2  A    between atoms: N_8  and  C_9
REMARK    3  A    between atoms: C_16  and  C_17
REMARK                            x       y       z     vdW  Elec       q    Type
REMARK                         _______ _______ _______ _____ _____    ______ ____
ROOT
ATOM      1  C   UNL     1       2.848   6.004  18.853  0.00  0.00    +0.000 A 
ATOM      2  N   UNL     1       2.604   4.933  19.631  0.00  0.00    +0.000 NA
ATOM      3  C   UNL     1       1.911   5.129  20.755  0.00  0.00    +0.000 A 
ATOM      4  N   UNL     1       1.449   6.302  21.197  0.00  0.00    +0.000 NA
ATOM      5  C   UNL     1       1.641   7.374  20.411  0.00  0.00    +0.000 A 
ATOM      6  C   UNL     1       1.126   8.630  20.790  0.00  0.00    +0.000 A 
ATOM      7  F   UNL     1       0.510   8.692  21.988  0.00  0.00    +0.000 F 
ATOM      8  C   UNL     1       1.150   9.807  19.989  0.00  0.00    +0.000 A 
ATOM      9  C   UNL     1       1.763   9.659  18.744  0.00  0.00    +0.000 A 
ATOM     10 CL   UNL     1       1.794  10.875  17.512  0.00  0.00    +0.000 Cl
ATOM     11  C   UNL     1       2.308   8.425  18.360  0.00  0.00    +0.000 A 
ATOM     12  C   UNL     1       2.301   7.274  19.186  0.00  0.00    +0.000 A 
ENDROOT
BRANCH   8  13
ATOM     13  C   UNL     1       0.381  11.014  20.412  0.00  0.00    +0.000 A 
ATOM     14  C   UNL     1      -1.038  10.973  20.383  0.00  0.00    +0.000 A 
ATOM     15  C   UNL     1      -1.829  12.075  20.675  0.00  0.00    +0.000 A 
ATOM     16  C   UNL     1      -1.231  13.283  20.985  0.00  0.00    +0.000 A 
ATOM     17  F   UNL     1      -2.000  14.353  21.220  0.00  0.00    +0.000 F 
ATOM     18  C   UNL     1       0.163  13.365  21.030  0.00  0.00    +0.000 A 
ATOM     19  S   UNL     1       1.119  14.759  21.342  0.00  0.00    +0.000 S 
ATOM     20  C   UNL     1       2.535  13.831  21.144  0.00  0.00    +0.000 A 
ATOM     21  N   UNL     1       3.736  14.420  21.205  0.00  0.00    +0.000 N 
ATOM     22  N   UNL     1       2.350  12.549  20.929  0.00  0.00    +0.000 NA
ATOM     23  C   UNL     1       0.989  12.260  20.785  0.00  0.00    +0.000 A 
ATOM     24  H   UNL     1       3.826  15.367  21.553  0.00  0.00    +0.000 HD
ATOM     25  H   UNL     1       4.570  13.848  21.235  0.00  0.00    +0.000 HD
ENDBRANCH   8  13
BRANCH   1  31
ATOM     26  C   UNL     1       6.702   4.760  15.116  0.00  0.00    +0.000 C 
ATOM     27  O   UNL     1       7.608   5.557  14.886  0.00  0.00    +0.000 OA
ATOM     28  N   UNL     1       5.905   4.836  16.238  0.00  0.00    +0.000 N 
ATOM     29  C   UNL     1       6.072   5.976  17.131  0.00  0.00    +0.000 C 
ATOM     30  C   UNL     1       4.739   6.698  17.350  0.00  0.00    +0.000 C 
ATOM     31  N   UNL     1       3.658   5.783  17.751  0.00  0.00    +0.000 N 
ATOM     32  C   UNL     1       3.541   4.526  16.984  0.00  0.00    +0.000 C 
ATOM     33  C   UNL     1       4.915   3.866  16.730  0.00  0.00    +0.000 C 
BRANCH  26  35
ATOM     34  C   UNL     1       6.413   3.954  12.827  0.00  0.00    +0.000 C 
ATOM     35  C   UNL     1       6.400   3.684  14.137  0.00  0.00    +0.000 C 
ENDBRANCH  26  35
ENDBRANCH   1  31
TORSDOF 3
ENDMDL
MODEL 3
REMARK VINA RESULT:      -8.2      3.646      5.014
REMARK  Name = 
REMARK  3 active torsions:
REMARK  status: ('A' for Active; 'I' for Inactive)
REMARK    1  A    between atoms: C_2  and  C_3
REMARK    2  A    between atoms: N_8  and  C_9
REMARK    3  A    between atoms: C_16  and  C_17
REMARK                            x       y       z     vdW  Elec       q    Type
REMARK                         _______ _______ _______ _____ _____    ______ ____
ROOT
ATOM      1  C   UNL     1       1.893   8.210  19.277  0.00  0.00    +0.000 A 
ATOM      2  N   UNL     1       2.240   8.587  18.032  0.00  0.00    +0.000 NA
ATOM      3  C   UNL     1       1.779   9.760  17.590  0.00  0.00    +0.000 A 
ATOM      4  N   UNL     1       0.982  10.594  18.263  0.00  0.00    +0.000 NA
ATOM      5  C   UNL     1       0.665  10.258  19.524  0.00  0.00    +0.000 A 
ATOM      6  C   UNL     1      -0.123  11.122  20.312  0.00  0.00    +0.000 A 
ATOM      7  F   UNL     1      -0.579  12.238  19.707  0.00  0.00    +0.000 F 
ATOM      8  C   UNL     1      -0.418  10.942  21.692  0.00  0.00    +0.000 A 
ATOM      9  C   UNL     1       0.123   9.789  22.264  0.00  0.00    +0.000 A 
ATOM     10 CL   UNL     1       0.055   9.402  23.950  0.00  0.00    +0.000 Cl
ATOM     11  C   UNL     1       0.885   8.900  21.491  0.00  0.00    +0.000 A 
ATOM     12  C   UNL     1       1.140   9.083  20.110  0.00  0.00    +0.000 A 
ENDROOT
BRANCH   8  13
ATOM     13  C   UNL     1      -1.078  12.035  22.464  0.00  0.00    +0.000 A 
ATOM     14  C   UNL     1      -2.349  11.795  23.051  0.00  0.00    +0.000 A 
ATOM     15  C   UNL     1      -3.071  12.778  23.711  0.00  0.00    +0.000 A 
ATOM     16  C   UNL     1      -2.563  14.063  23.789  0.00  0.00    +0.000 A 
ATOM     17  F   UNL     1      -3.287  15.018  24.386  0.00  0.00    +0.000 F 
ATOM     18  C   UNL     1      -1.314  14.341  23.229  0.00  0.00    +0.000 A 
ATOM     19  S   UNL     1      -0.512  15.859  23.163  0.00  0.00    +0.000 S 
ATOM     20  C   UNL     1       0.786  15.136  22.325  0.00  0.00    +0.000 A 
ATOM     21  N   UNL     1       1.803  15.890  21.888  0.00  0.00    +0.000 N 
ATOM     22  N   UNL     1       0.696  13.838  22.150  0.00  0.00    +0.000 NA
ATOM     23  C   UNL     1      -0.539  13.359  22.597  0.00  0.00    +0.000 A 
ATOM     24  H   UNL     1       1.909  16.844  22.208  0.00  0.00    +0.000 HD
ATOM     25  H   UNL     1       2.633  15.440  21.525  0.00  0.00    +0.000 HD
ENDBRANCH   8  13
BRANCH   1  31
ATOM     26  C   UNL     1       2.735   2.865  20.318  0.00  0.00    +0.000 C 
ATOM     27  O   UNL     1       2.168   2.332  21.269  0.00  0.00    +0.000 OA
ATOM     28  N   UNL     1       2.340   4.077  19.795  0.00  0.00    +0.000 N 
ATOM     29  C   UNL     1       1.278   4.811  20.471  0.00  0.00    +0.000 C 
ATOM     30  C   UNL     1       1.731   6.232  20.818  0.00  0.00    +0.000 C 
ATOM     31  N   UNL     1       2.301   6.944  19.663  0.00  0.00    +0.000 N 
ATOM     32  C   UNL     1       3.267   6.191  18.837  0.00  0.00    +0.000 C 
ATOM     33  C   UNL     1       2.800   4.743  18.566  0.00  0.00    +0.000 C 
BRANCH  26  35
ATOM     34  C   UNL     1       3.782   1.406  18.660  0.00  0.00    +0.000 C 
ATOM     35  C   UNL     1       3.928   2.218  19.714  0.00  0.00    +0.000 C 
ENDBRANCH  26  35
ENDBRANCH   1  31
TORSDOF 3
ENDMDL
MODEL 4
REMARK VINA RESULT:      -8.2      1.068      1.418
REMARK  Name = 
REMARK  3 active torsions:
REMARK  status: ('A' for Active; 'I' for Inactive)
REMARK    1  A    between atoms: C_2  and  C_3
REMARK    2  A    between atoms: N_8  and  C_9
REMARK    3  A    between atoms: C_16  and  C_17
REMARK                            x       y       z     vdW  Elec       q    Type
REMARK                         _______ _______ _______ _____ _____    ______ ____
ROOT
ATOM      1  C   UNL     1       3.471   5.043  18.941  0.00  0.00    +0.000 A 
ATOM      2  N   UNL     1       3.224   3.993  19.747  0.00  0.00    +0.000 NA
ATOM      3  C   UNL     1       2.418   4.192  20.792  0.00  0.00    +0.000 A 
ATOM      4  N   UNL     1       1.843   5.349  21.131  0.00  0.00    +0.000 NA
ATOM      5  C   UNL     1       2.038   6.395  20.312  0.00  0.00    +0.000 A 
ATOM      6  C   UNL     1       1.411   7.629  20.578  0.00  0.00    +0.000 A 
ATOM      7  F   UNL     1       0.683   7.703  21.711  0.00  0.00    +0.000 F 
ATOM      8  C   UNL     1       1.434   8.768  19.725  0.00  0.00    +0.000 A 
ATOM      9  C   UNL     1       2.169   8.607  18.549  0.00  0.00    +0.000 A 
ATOM     10 CL   UNL     1       2.238   9.766  17.265  0.00  0.00    +0.000 Cl
ATOM     11  C   UNL     1       2.825   7.397  18.279  0.00  0.00    +0.000 A 
ATOM     12  C   UNL     1       2.815   6.286  19.158  0.00  0.00    +0.000 A 
ENDROOT
BRANCH   8  13
ATOM     13  C   UNL     1       0.554   9.937  20.014  0.00  0.00    +0.000 A 
ATOM     14  C   UNL     1       0.779  10.695  21.194  0.00  0.00    +0.000 A 
ATOM     15  C   UNL     1      -0.043  11.743  21.585  0.00  0.00    +0.000 A 
ATOM     16  C   UNL     1      -1.151  12.063  20.820  0.00  0.00    +0.000 A 
ATOM     17  F   UNL     1      -1.965  13.044  21.228  0.00  0.00    +0.000 F 
ATOM     18  C   UNL     1      -1.406  11.346  19.649  0.00  0.00    +0.000 A 
ATOM     19  S   UNL     1      -2.735  11.533  18.577  0.00  0.00    +0.000 S 
ATOM     20  C   UNL     1      -2.130  10.268  17.607  0.00  0.00    +0.000 A 
ATOM     21  N   UNL     1      -2.827   9.848  16.543  0.00  0.00    +0.000 N 
ATOM     22  N   UNL     1      -0.980   9.762  17.986  0.00  0.00    +0.000 NA
ATOM     23  C   UNL     1      -0.570  10.314  19.204  0.00  0.00    +0.000 A 
ATOM     24  H   UNL     1      -3.608  10.390  16.194  0.00  0.00    +0.000 HD
ATOM     25  H   UNL     1      -2.398   9.204  15.891  0.00  0.00    +0.000 HD
ENDBRANCH   8  13
BRANCH   1  31
ATOM     26  C   UNL     1       6.437   4.526  14.326  0.00  0.00    +0.000 C 
ATOM     27  O   UNL     1       6.333   3.509  13.645  0.00  0.00    +0.000 OA
ATOM     28  N   UNL     1       5.517   4.880  15.289  0.00  0.00    +0.000 N 
ATOM     29  C   UNL     1       4.437   3.948  15.591  0.00  0.00    +0.000 C 
ATOM     30  C   UNL     1       4.397   3.623  17.087  0.00  0.00    +0.000 C 
ATOM     31  N   UNL     1       4.393   4.829  17.930  0.00  0.00    +0.000 N 
ATOM     32  C   UNL     1       5.360   5.887  17.571  0.00  0.00    +0.000 C 
ATOM     33  C   UNL     1       5.414   6.136  16.047  0.00  0.00    +0.000 C 
BRANCH  26  35
ATOM     34  C   UNL     1       8.208   5.509  12.959  0.00  0.00    +0.000 C 
ATOM     35  C   UNL     1       7.619   5.410  14.156  0.00  0.00    +0.000 C 
ENDBRANCH  26  35
ENDBRANCH   1  31
TORSDOF 3
ENDMDL
MODEL 5
REMARK VINA RESULT:      -7.7      4.512      9.057
REMARK  Name = 
REMARK  3 active torsions:
REMARK  status: ('A' for Active; 'I' for Inactive)
REMARK    1  A    between atoms: C_2  and  C_3
REMARK    2  A    between atoms: N_8  and  C_9
REMARK    3  A    between atoms: C_16  and  C_17
REMARK                            x       y       z     vdW  Elec       q    Type
REMARK                         _______ _______ _______ _____ _____    ______ ____
ROOT
ATOM      1  C   UNL     1       0.890  10.745  20.749  0.00  0.00    +0.000 A 
ATOM      2  N   UNL     1       0.457  10.794  22.022  0.00  0.00    +0.000 NA
ATOM      3  C   UNL     1       0.304   9.636  22.668  0.00  0.00    +0.000 A 
ATOM      4  N   UNL     1       0.523   8.420  22.161  0.00  0.00    +0.000 NA
ATOM      5  C   UNL     1       1.001   8.353  20.909  0.00  0.00    +0.000 A 
ATOM      6  C   UNL     1       1.310   7.103  20.334  0.00  0.00    +0.000 A 
ATOM      7  F   UNL     1       1.035   6.014  21.080  0.00  0.00    +0.000 F 
ATOM      8  C   UNL     1       1.940   6.907  19.073  0.00  0.00    +0.000 A 
ATOM      9  C   UNL     1       2.237   8.080  18.376  0.00  0.00    +0.000 A 
ATOM     10 CL   UNL     1       3.137   8.144  16.898  0.00  0.00    +0.000 Cl
ATOM     11  C   UNL     1       1.911   9.332  18.915  0.00  0.00    +0.000 A 
ATOM     12  C   UNL     1       1.255   9.503  20.160  0.00  0.00    +0.000 A 
ENDROOT
BRANCH   8  13
ATOM     13  C   UNL     1       2.410   5.548  18.675  0.00  0.00    +0.000 A 
ATOM     14  C   UNL     1       1.458   4.590  18.236  0.00  0.00    +0.000 A 
ATOM     15  C   UNL     1       1.795   3.279  17.930  0.00  0.00    +0.000 A 
ATOM     16  C   UNL     1       3.105   2.858  18.077  0.00  0.00    +0.000 A 
ATOM     17  F   UNL     1       3.413   1.581  17.825  0.00  0.00    +0.000 F 
ATOM     18  C   UNL     1       4.074   3.771  18.501  0.00  0.00    +0.000 A 
ATOM     19  S   UNL     1       5.738   3.466  18.798  0.00  0.00    +0.000 S 
ATOM     20  C   UNL     1       5.955   5.095  19.252  0.00  0.00    +0.000 A 
ATOM     21  N   UNL     1       7.146   5.512  19.700  0.00  0.00    +0.000 N 
ATOM     22  N   UNL     1       4.897   5.863  19.137  0.00  0.00    +0.000 NA
ATOM     23  C   UNL     1       3.774   5.112  18.773  0.00  0.00    +0.000 A 
ATOM     24  H   UNL     1       7.967   4.929  19.596  0.00  0.00    +0.000 HD
ATOM     25  H   UNL     1       7.310   6.502  19.828  0.00  0.00    +0.000 HD
ENDBRANCH   8  13
BRANCH   1  31
ATOM     26  C   UNL     1       0.580  15.904  18.838  0.00  0.00    +0.000 C 
ATOM     27  O   UNL     1      -0.412  16.263  18.209  0.00  0.00    +0.000 OA
ATOM     28  N   UNL     1       0.602  14.769  19.618  0.00  0.00    +0.000 N 
ATOM     29  C   UNL     1      -0.566  13.896  19.605  0.00  0.00    +0.000 C 
ATOM     30  C   UNL     1      -0.171  12.460  19.249  0.00  0.00    +0.000 C 
ATOM     31  N   UNL     1       0.937  11.955  20.076  0.00  0.00    +0.000 N 
ATOM     32  C   UNL     1       2.086  12.865  20.263  0.00  0.00    +0.000 C 
ATOM     33  C   UNL     1       1.641  14.316  20.556  0.00  0.00    +0.000 C 
BRANCH  26  35
ATOM     34  C   UNL     1       2.696  16.441  17.739  0.00  0.00    +0.000 C 
ATOM     35  C   UNL     1       1.839  16.686  18.737  0.00  0.00    +0.000 C 
ENDBRANCH  26  35
ENDBRANCH   1  31
TORSDOF 3
ENDMDL
MODEL 6
REMARK VINA RESULT:      -7.4      4.436     10.009
REMARK  Name = 
REMARK  3 active torsions:
REMARK  status: ('A' for Active; 'I' for Inactive)
REMARK    1  A    between atoms: C_2  and  C_3
REMARK    2  A    between atoms: N_8  and  C_9
REMARK    3  A    between atoms: C_16  and  C_17
REMARK                            x       y       z     vdW  Elec       q    Type
REMARK                         _______ _______ _______ _____ _____    ______ ____
ROOT
ATOM      1  C   UNL     1      -1.543  11.514  20.065  0.00  0.00    +0.000 A 
ATOM      2  N   UNL     1      -2.418  11.859  19.102  0.00  0.00    +0.000 NA
ATOM      3  C   UNL     1      -2.230  11.347  17.883  0.00  0.00    +0.000 A 
ATOM      4  N   UNL     1      -1.235  10.534  17.519  0.00  0.00    +0.000 NA
ATOM      5  C   UNL     1      -0.380  10.140  18.477  0.00  0.00    +0.000 A 
ATOM      6  C   UNL     1       0.657   9.235  18.174  0.00  0.00    +0.000 A 
ATOM      7  F   UNL     1       0.769   8.859  16.884  0.00  0.00    +0.000 F 
ATOM      8  C   UNL     1       1.542   8.646  19.121  0.00  0.00    +0.000 A 
ATOM      9  C   UNL     1       1.339   9.046  20.443  0.00  0.00    +0.000 A 
ATOM     10 CL   UNL     1       2.163   8.375  21.810  0.00  0.00    +0.000 Cl
ATOM     11  C   UNL     1       0.333   9.968  20.763  0.00  0.00    +0.000 A 
ATOM     12  C   UNL     1      -0.517  10.566  19.799  0.00  0.00    +0.000 A 
ENDROOT
BRANCH   8  13
ATOM     13  C   UNL     1       2.452   7.540  18.705  0.00  0.00    +0.000 A 
ATOM     14  C   UNL     1       3.499   7.816  17.785  0.00  0.00    +0.000 A 
ATOM     15  C   UNL     1       4.336   6.833  17.279  0.00  0.00    +0.000 A 
ATOM     16  C   UNL     1       4.145   5.514  17.653  0.00  0.00    +0.000 A 
ATOM     17  F   UNL     1       4.927   4.564  17.125  0.00  0.00    +0.000 F 
ATOM     18  C   UNL     1       3.130   5.200  18.560  0.00  0.00    +0.000 A 
ATOM     19  S   UNL     1       2.680   3.641  19.126  0.00  0.00    +0.000 S 
ATOM     20  C   UNL     1       1.443   4.341  20.067  0.00  0.00    +0.000 A 
ATOM     21  N   UNL     1       0.607   3.559  20.763  0.00  0.00    +0.000 N 
ATOM     22  N   UNL     1       1.382   5.652  20.042  0.00  0.00    +0.000 NA
ATOM     23  C   UNL     1       2.298   6.175  19.124  0.00  0.00    +0.000 A 
ATOM     24  H   UNL     1       0.811   2.576  20.891  0.00  0.00    +0.000 HD
ATOM     25  H   UNL     1      -0.027   3.979  21.430  0.00  0.00    +0.000 HD
ENDBRANCH   8  13
BRANCH   1  31
ATOM     26  C   UNL     1      -1.957  14.835  24.443  0.00  0.00    +0.000 C 
ATOM     27  O   UNL     1      -0.956  15.102  25.103  0.00  0.00    +0.000 OA
ATOM     28  N   UNL     1      -1.897  14.299  23.175  0.00  0.00    +0.000 N 
ATOM     29  C   UNL     1      -0.593  13.927  22.640  0.00  0.00    +0.000 C 
ATOM     30  C   UNL     1      -0.585  12.465  22.184  0.00  0.00    +0.000 C 
ATOM     31  N   UNL     1      -1.707  12.145  21.288  0.00  0.00    +0.000 N 
ATOM     32  C   UNL     1      -3.038  12.640  21.695  0.00  0.00    +0.000 C 
ATOM     33  C   UNL     1      -2.988  14.097  22.209  0.00  0.00    +0.000 C 
BRANCH  26  35
ATOM     34  C   UNL     1      -3.840  16.274  25.039  0.00  0.00    +0.000 C 
ATOM     35  C   UNL     1      -3.305  15.048  25.030  0.00  0.00    +0.000 C 
ENDBRANCH  26  35
ENDBRANCH   1  31
TORSDOF 3
ENDMDL
MODEL 7
REMARK VINA RESULT:      -7.4      3.532      4.516
REMARK  Name = 
REMARK  3 active torsions:
REMARK  status: ('A' for Active; 'I' for Inactive)
REMARK    1  A    between atoms: C_2  and  C_3
REMARK    2  A    between atoms: N_8  and  C_9
REMARK    3  A    between atoms: C_16  and  C_17
REMARK                            x       y       z     vdW  Elec       q    Type
REMARK                         _______ _______ _______ _____ _____    ______ ____
ROOT
ATOM      1  C   UNL     1       2.030   8.244  19.217  0.00  0.00    +0.000 A 
ATOM      2  N   UNL     1       2.614   8.590  18.055  0.00  0.00    +0.000 NA
ATOM      3  C   UNL     1       2.276   9.764  17.519  0.00  0.00    +0.000 A 
ATOM      4  N   UNL     1       1.389  10.629  18.019  0.00  0.00    +0.000 NA
ATOM      5  C   UNL     1       0.832  10.324  19.202  0.00  0.00    +0.000 A 
ATOM      6  C   UNL     1      -0.067  11.220  19.814  0.00  0.00    +0.000 A 
ATOM      7  F   UNL     1      -0.371  12.336  19.120  0.00  0.00    +0.000 F 
ATOM      8  C   UNL     1      -0.621  11.073  21.117  0.00  0.00    +0.000 A 
ATOM      9  C   UNL     1      -0.228   9.918  21.796  0.00  0.00    +0.000 A 
ATOM     10 CL   UNL     1      -0.622   9.564  23.444  0.00  0.00    +0.000 Cl
ATOM     11  C   UNL     1       0.642   8.997  21.193  0.00  0.00    +0.000 A 
ATOM     12  C   UNL     1       1.157   9.149  19.882  0.00  0.00    +0.000 A 
ENDROOT
BRANCH   8  13
ATOM     13  C   UNL     1      -1.385  12.194  21.736  0.00  0.00    +0.000 A 
ATOM     14  C   UNL     1      -0.854  12.839  22.885  0.00  0.00    +0.000 A 
ATOM     15  C   UNL     1      -1.537  13.832  23.574  0.00  0.00    +0.000 A 
ATOM     16  C   UNL     1      -2.802  14.206  23.158  0.00  0.00    +0.000 A 
ATOM     17  F   UNL     1      -3.473  15.131  23.856  0.00  0.00    +0.000 F 
ATOM     18  C   UNL     1      -3.359  13.600  22.029  0.00  0.00    +0.000 A 
ATOM     19  S   UNL     1      -4.919  13.868  21.362  0.00  0.00    +0.000 S 
ATOM     20  C   UNL     1      -4.599  12.711  20.150  0.00  0.00    +0.000 A 
ATOM     21  N   UNL     1      -5.552  12.384  19.268  0.00  0.00    +0.000 N 
ATOM     22  N   UNL     1      -3.394  12.189  20.167  0.00  0.00    +0.000 NA
ATOM     23  C   UNL     1      -2.677  12.629  21.285  0.00  0.00    +0.000 A 
ATOM     24  H   UNL     1      -6.391  12.944  19.187  0.00  0.00    +0.000 HD
ATOM     25  H   UNL     1      -5.313  11.812  18.468  0.00  0.00    +0.000 HD
ENDBRANCH   8  13
BRANCH   1  31
ATOM     26  C   UNL     1       2.485   2.905  20.506  0.00  0.00    +0.000 C 
ATOM     27  O   UNL     1       1.767   2.425  21.379  0.00  0.00    +0.000 OA
ATOM     28  N   UNL     1       2.222   4.115  19.900  0.00  0.00    +0.000 N 
ATOM     29  C   UNL     1       1.106   4.910  20.398  0.00  0.00    +0.000 C 
ATOM     30  C   UNL     1       1.565   6.323  20.770  0.00  0.00    +0.000 C 
ATOM     31  N   UNL     1       2.324   6.976  19.691  0.00  0.00    +0.000 N 
ATOM     32  C   UNL     1       3.364   6.160  19.032  0.00  0.00    +0.000 C 
ATOM     33  C   UNL     1       2.879   4.723  18.734  0.00  0.00    +0.000 C 
BRANCH  26  35
ATOM     34  C   UNL     1       3.746   1.506  18.948  0.00  0.00    +0.000 C 
ATOM     35  C   UNL     1       3.723   2.194  20.096  0.00  0.00    +0.000 C 
ENDBRANCH  26  35
ENDBRANCH   1  31
TORSDOF 3
ENDMDL
MODEL 8
REMARK VINA RESULT:      -7.2      3.533      5.414
REMARK  Name = 
REMARK  3 active torsions:
REMARK  status: ('A' for Active; 'I' for Inactive)
REMARK    1  A    between atoms: C_2  and  C_3
REMARK    2  A    between atoms: N_8  and  C_9
REMARK    3  A    between atoms: C_16  and  C_17
REMARK                            x       y       z     vdW  Elec       q    Type
REMARK                         _______ _______ _______ _____ _____    ______ ____
ROOT
ATOM      1  C   UNL     1       1.546  10.256  18.950  0.00  0.00    +0.000 A 
ATOM      2  N   UNL     1       2.297  10.911  18.046  0.00  0.00    +0.000 NA
ATOM      3  C   UNL     1       2.168  12.238  17.979  0.00  0.00    +0.000 A 
ATOM      4  N   UNL     1       1.341  12.984  18.717  0.00  0.00    +0.000 NA
ATOM      5  C   UNL     1       0.619  12.354  19.657  0.00  0.00    +0.000 A 
ATOM      6  C   UNL     1      -0.229  13.088  20.511  0.00  0.00    +0.000 A 
ATOM      7  F   UNL     1      -0.314  14.414  20.278  0.00  0.00    +0.000 F 
ATOM      8  C   UNL     1      -0.943  12.558  21.622  0.00  0.00    +0.000 A 
ATOM      9  C   UNL     1      -0.774  11.188  21.830  0.00  0.00    +0.000 A 
ATOM     10 CL   UNL     1      -1.395  10.316  23.191  0.00  0.00    +0.000 Cl
ATOM     11  C   UNL     1       0.041  10.433  20.975  0.00  0.00    +0.000 A 
ATOM     12  C   UNL     1       0.718  10.976  19.855  0.00  0.00    +0.000 A 
ENDROOT
BRANCH   8  13
ATOM     13  C   UNL     1      -1.632  13.476  22.575  0.00  0.00    +0.000 A 
ATOM     14  C   UNL     1      -0.849  14.312  23.416  0.00  0.00    +0.000 A 
ATOM     15  C   UNL     1      -1.402  15.131  24.389  0.00  0.00    +0.000 A 
ATOM     16  C   UNL     1      -2.772  15.130  24.586  0.00  0.00    +0.000 A 
ATOM     17  F   UNL     1      -3.293  15.888  25.558  0.00  0.00    +0.000 F 
ATOM     18  C   UNL     1      -3.579  14.327  23.776  0.00  0.00    +0.000 A 
ATOM     19  S   UNL     1      -5.283  14.129  23.869  0.00  0.00    +0.000 S 
ATOM     20  C   UNL     1      -5.224  13.022  22.574  0.00  0.00    +0.000 A 
ATOM     21  N   UNL     1      -6.340  12.398  22.174  0.00  0.00    +0.000 N 
ATOM     22  N   UNL     1      -4.040  12.839  22.036  0.00  0.00    +0.000 NA
ATOM     23  C   UNL     1      -3.055  13.524  22.755  0.00  0.00    +0.000 A 
ATOM     24  H   UNL     1      -7.246  12.710  22.498  0.00  0.00    +0.000 HD
ATOM     25  H   UNL     1      -6.328  11.859  21.318  0.00  0.00    +0.000 HD
ENDBRANCH   8  13
BRANCH   1  31
ATOM     26  C   UNL     1       2.813   4.894  19.042  0.00  0.00    +0.000 C 
ATOM     27  O   UNL     1       3.262   4.356  18.034  0.00  0.00    +0.000 OA
ATOM     28  N   UNL     1       2.781   6.261  19.211  0.00  0.00    +0.000 N 
ATOM     29  C   UNL     1       3.193   7.106  18.096  0.00  0.00    +0.000 C 
ATOM     30  C   UNL     1       2.099   8.120  17.746  0.00  0.00    +0.000 C 
ATOM     31  N   UNL     1       1.628   8.873  18.920  0.00  0.00    +0.000 N 
ATOM     32  C   UNL     1       1.350   8.087  20.139  0.00  0.00    +0.000 C 
ATOM     33  C   UNL     1       2.445   7.033  20.417  0.00  0.00    +0.000 C 
BRANCH  26  35
ATOM     34  C   UNL     1       0.952   3.680  20.060  0.00  0.00    +0.000 C 
ATOM     35  C   UNL     1       2.233   4.060  20.127  0.00  0.00    +0.000 C 
ENDBRANCH  26  35
ENDBRANCH   1  31
TORSDOF 3
ENDMDL
MODEL 9
REMARK VINA RESULT:      -7.2      3.921      6.143
REMARK  Name = 
REMARK  3 active torsions:
REMARK  status: ('A' for Active; 'I' for Inactive)
REMARK    1  A    between atoms: C_2  and  C_3
REMARK    2  A    between atoms: N_8  and  C_9
REMARK    3  A    between atoms: C_16  and  C_17
REMARK                            x       y       z     vdW  Elec       q    Type
REMARK                         _______ _______ _______ _____ _____    ______ ____
ROOT
ATOM      1  C   UNL     1       1.182  11.093  19.223  0.00  0.00    +0.000 A 
ATOM      2  N   UNL     1       2.015  11.712  18.366  0.00  0.00    +0.000 NA
ATOM      3  C   UNL     1       1.962  13.044  18.304  0.00  0.00    +0.000 A 
ATOM      4  N   UNL     1       1.138  13.829  19.004  0.00  0.00    +0.000 NA
ATOM      5  C   UNL     1       0.334  13.234  19.899  0.00  0.00    +0.000 A 
ATOM      6  C   UNL     1      -0.517  14.008  20.713  0.00  0.00    +0.000 A 
ATOM      7  F   UNL     1      -0.517  15.338  20.489  0.00  0.00    +0.000 F 
ATOM      8  C   UNL     1      -1.317  13.511  21.781  0.00  0.00    +0.000 A 
ATOM      9  C   UNL     1      -1.233  12.132  21.985  0.00  0.00    +0.000 A 
ATOM     10 CL   UNL     1      -1.972  11.287  23.303  0.00  0.00    +0.000 Cl
ATOM     11  C   UNL     1      -0.416  11.339  21.167  0.00  0.00    +0.000 A 
ATOM     12  C   UNL     1       0.348  11.851  20.090  0.00  0.00    +0.000 A 
ENDROOT
BRANCH   8  13
ATOM     13  C   UNL     1      -2.004  14.459  22.704  0.00  0.00    +0.000 A 
ATOM     14  C   UNL     1      -1.262  15.054  23.760  0.00  0.00    +0.000 A 
ATOM     15  C   UNL     1      -1.840  15.878  24.715  0.00  0.00    +0.000 A 
ATOM     16  C   UNL     1      -3.201  16.124  24.673  0.00  0.00    +0.000 A 
ATOM     17  F   UNL     1      -3.759  16.882  25.625  0.00  0.00    +0.000 F 
ATOM     18  C   UNL     1      -3.967  15.562  23.648  0.00  0.00    +0.000 A 
ATOM     19  S   UNL     1      -5.665  15.688  23.423  0.00  0.00    +0.000 S 
ATOM     20  C   UNL     1      -5.554  14.705  22.035  0.00  0.00    +0.000 A 
ATOM     21  N   UNL     1      -6.664  14.343  21.379  0.00  0.00    +0.000 N 
ATOM     22  N   UNL     1      -4.340  14.344  21.689  0.00  0.00    +0.000 NA
ATOM     23  C   UNL     1      -3.406  14.764  22.643  0.00  0.00    +0.000 A 
ATOM     24  H   UNL     1      -7.548  14.795  21.578  0.00  0.00    +0.000 HD
ATOM     25  H   UNL     1      -6.584  13.887  20.480  0.00  0.00    +0.000 HD
ENDBRANCH   8  13
BRANCH   1  31
ATOM     26  C   UNL     1       2.168   5.671  19.262  0.00  0.00    +0.000 C 
ATOM     27  O   UNL     1       2.565   5.116  18.241  0.00  0.00    +0.000 OA
ATOM     28  N   UNL     1       2.211   7.038  19.437  0.00  0.00    +0.000 N 
ATOM     29  C   UNL     1       2.642   7.866  18.318  0.00  0.00    +0.000 C 
ATOM     30  C   UNL     1       1.596   8.938  17.997  0.00  0.00    +0.000 C 
ATOM     31  N   UNL     1       1.191   9.708  19.184  0.00  0.00    +0.000 N 
ATOM     32  C   UNL     1       0.899   8.930  20.406  0.00  0.00    +0.000 C 
ATOM     33  C   UNL     1       1.943   7.818  20.654  0.00  0.00    +0.000 C 
BRANCH  26  35
ATOM     34  C   UNL     1       0.983   3.694  20.073  0.00  0.00    +0.000 C 
ATOM     35  C   UNL     1       1.569   4.863  20.355  0.00  0.00    +0.000 C 
ENDBRANCH  26  35
ENDBRANCH   1  31
TORSDOF 3
ENDMDL
