MODEL 1
REMARK VINA RESULT:      -8.2      0.000      0.000
REMARK  Name = 
REMARK  4 active torsions:
REMARK  status: ('A' for Active; 'I' for Inactive)
REMARK    1  A    between atoms: C_1  and  C_2
REMARK    2  A    between atoms: C_2  and  C_3
REMARK    3  A    between atoms: C_19  and  O_20
REMARK    4  A    between atoms: O_20  and  C_21
REMARK                            x       y       z     vdW  Elec       q    Type
REMARK                         _______ _______ _______ _____ _____    ______ ____
ROOT
ATOM      1  C   UNL     1       5.510   4.819  19.225  0.00  0.00    +0.000 C 
ATOM      2  N   UNL     1       5.062   3.482  18.942  0.00  0.00    +0.000 N 
ATOM      3  C   UNL     1       4.486   3.211  17.719  0.00  0.00    +0.000 C 
ATOM      4  O   UNL     1       3.764   2.243  17.545  0.00  0.00    +0.000 OA
ATOM      5  C   UNL     1       4.867   4.115  16.626  0.00  0.00    +0.000 A 
ATOM      6  C   UNL     1       5.879   3.560  15.829  0.00  0.00    +0.000 A 
ATOM      7  C   UNL     1       6.634   4.410  15.045  0.00  0.00    +0.000 A 
ATOM      8  C   UNL     1       6.273   5.752  15.012  0.00  0.00    +0.000 A 
ATOM      9  N   UNL     1       5.263   6.310  15.741  0.00  0.00    +0.000 NA
ATOM     10  C   UNL     1       4.601   5.518  16.615  0.00  0.00    +0.000 A 
ATOM     11  N   UNL     1       3.929   6.142  17.729  0.00  0.00    +0.000 N 
ATOM     12  C   UNL     1       4.208   5.636  18.968  0.00  0.00    +0.000 A 
ATOM     13  N   UNL     1       3.380   5.721  19.959  0.00  0.00    +0.000 NA
ATOM     14  C   UNL     1       2.243   6.513  19.774  0.00  0.00    +0.000 A 
ATOM     15  C   UNL     1       1.342   6.522  20.822  0.00  0.00    +0.000 A 
ATOM     16  C   UNL     1       1.058   7.727  21.417  0.00  0.00    +0.000 A 
ATOM     17  C   UNL     1       1.235   8.892  20.678  0.00  0.00    +0.000 A 
ATOM     18  C   UNL     1       1.763   8.829  19.366  0.00  0.00    +0.000 A 
ATOM     19  C   UNL     1       2.342   7.614  18.933  0.00  0.00    +0.000 A 
ATOM     20  C   UNL     1       3.149   7.329  17.663  0.00  0.00    +0.000 A 
ATOM     21  O   UNL     1       3.048   8.099  16.725  0.00  0.00    +0.000 OA
ATOM     22  H   UNL     1       4.626   2.971  19.706  0.00  0.00    +0.000 HD
ENDROOT
BRANCH   1  24
ATOM     23  C   UNL     1       7.985   5.837  19.464  0.00  0.00    +0.000 C 
ATOM     24  C   UNL     1       6.868   5.275  18.583  0.00  0.00    +0.000 C 
ENDBRANCH   1  24
BRANCH  17  25
ATOM     25  O   UNL     1       0.805   9.964  21.400  0.00  0.00    +0.000 OA
ATOM     26  C   UNL     1       0.045   9.764  22.568  0.00  0.00    +0.000 C 
ENDBRANCH  17  25
TORSDOF 2
ENDMDL
MODEL 2
REMARK VINA RESULT:      -7.0      5.627      8.831
REMARK  Name = 
REMARK  4 active torsions:
REMARK  status: ('A' for Active; 'I' for Inactive)
REMARK    1  A    between atoms: C_1  and  C_2
REMARK    2  A    between atoms: C_2  and  C_3
REMARK    3  A    between atoms: C_19  and  O_20
REMARK    4  A    between atoms: O_20  and  C_21
REMARK                            x       y       z     vdW  Elec       q    Type
REMARK                         _______ _______ _______ _____ _____    ______ ____
ROOT
ATOM      1  C   UNL     1      -1.748  11.895  18.315  0.00  0.00    +0.000 C 
ATOM      2  N   UNL     1      -0.816  12.879  17.837  0.00  0.00    +0.000 N 
ATOM      3  C   UNL     1       0.456  12.915  18.367  0.00  0.00    +0.000 C 
ATOM      4  O   UNL     1       1.157  13.911  18.300  0.00  0.00    +0.000 OA
ATOM      5  C   UNL     1       0.937  11.652  18.941  0.00  0.00    +0.000 A 
ATOM      6  C   UNL     1       1.759  10.958  18.041  0.00  0.00    +0.000 A 
ATOM      7  C   UNL     1       1.946   9.603  18.237  0.00  0.00    +0.000 A 
ATOM      8  C   UNL     1       1.395   9.033  19.378  0.00  0.00    +0.000 A 
ATOM      9  N   UNL     1       0.631   9.694  20.295  0.00  0.00    +0.000 NA
ATOM     10  C   UNL     1       0.325  10.989  20.049  0.00  0.00    +0.000 A 
ATOM     11  N   UNL     1      -0.851  11.544  20.673  0.00  0.00    +0.000 N 
ATOM     12  C   UNL     1      -1.733  12.182  19.847  0.00  0.00    +0.000 A 
ATOM     13  N   UNL     1      -2.529  13.114  20.263  0.00  0.00    +0.000 NA
ATOM     14  C   UNL     1      -2.587  13.335  21.642  0.00  0.00    +0.000 A 
ATOM     15  C   UNL     1      -3.387  14.387  22.047  0.00  0.00    +0.000 A 
ATOM     16  C   UNL     1      -4.433  14.111  22.893  0.00  0.00    +0.000 A 
ATOM     17  C   UNL     1      -4.357  12.981  23.700  0.00  0.00    +0.000 A 
ATOM     18  C   UNL     1      -3.251  12.104  23.592  0.00  0.00    +0.000 A 
ATOM     19  C   UNL     1      -2.380  12.253  22.487  0.00  0.00    +0.000 A 
ATOM     20  C   UNL     1      -1.245  11.337  22.024  0.00  0.00    +0.000 A 
ATOM     21  O   UNL     1      -0.772  10.547  22.820  0.00  0.00    +0.000 OA
ATOM     22  H   UNL     1      -1.186  13.806  17.636  0.00  0.00    +0.000 HD
ENDROOT
BRANCH   1  24
ATOM     23  C   UNL     1      -2.349   9.963  16.546  0.00  0.00    +0.000 C 
ATOM     24  C   UNL     1      -1.581  10.427  17.785  0.00  0.00    +0.000 C 
ENDBRANCH   1  24
BRANCH  17  25
ATOM     25  O   UNL     1      -5.431  12.938  24.535  0.00  0.00    +0.000 OA
ATOM     26  C   UNL     1      -6.732  12.877  24.000  0.00  0.00    +0.000 C 
ENDBRANCH  17  25
TORSDOF 2
ENDMDL
MODEL 3
REMARK VINA RESULT:      -6.8      2.435      4.378
REMARK  Name = 
REMARK  4 active torsions:
REMARK  status: ('A' for Active; 'I' for Inactive)
REMARK    1  A    between atoms: C_1  and  C_2
REMARK    2  A    between atoms: C_2  and  C_3
REMARK    3  A    between atoms: C_19  and  O_20
REMARK    4  A    between atoms: O_20  and  C_21
REMARK                            x       y       z     vdW  Elec       q    Type
REMARK                         _______ _______ _______ _____ _____    ______ ____
ROOT
ATOM      1  C   UNL     1       2.550   5.470  17.517  0.00  0.00    +0.000 C 
ATOM      2  N   UNL     1       3.984   5.409  17.434  0.00  0.00    +0.000 N 
ATOM      3  C   UNL     1       4.723   5.328  18.594  0.00  0.00    +0.000 C 
ATOM      4  O   UNL     1       5.901   5.643  18.635  0.00  0.00    +0.000 OA
ATOM      5  C   UNL     1       4.021   4.760  19.752  0.00  0.00    +0.000 A 
ATOM      6  C   UNL     1       4.331   3.403  19.927  0.00  0.00    +0.000 A 
ATOM      7  C   UNL     1       3.468   2.626  20.675  0.00  0.00    +0.000 A 
ATOM      8  C   UNL     1       2.401   3.261  21.298  0.00  0.00    +0.000 A 
ATOM      9  N   UNL     1       2.102   4.588  21.184  0.00  0.00    +0.000 NA
ATOM     10  C   UNL     1       2.857   5.336  20.348  0.00  0.00    +0.000 A 
ATOM     11  N   UNL     1       2.285   6.547  19.810  0.00  0.00    +0.000 N 
ATOM     12  C   UNL     1       2.353   6.700  18.453  0.00  0.00    +0.000 A 
ATOM     13  N   UNL     1       2.353   7.861  17.882  0.00  0.00    +0.000 NA
ATOM     14  C   UNL     1       2.101   8.971  18.692  0.00  0.00    +0.000 A 
ATOM     15  C   UNL     1       2.183  10.201  18.067  0.00  0.00    +0.000 A 
ATOM     16  C   UNL     1       1.065  10.999  18.066  0.00  0.00    +0.000 A 
ATOM     17  C   UNL     1       0.121  10.824  19.072  0.00  0.00    +0.000 A 
ATOM     18  C   UNL     1       0.286   9.794  20.030  0.00  0.00    +0.000 A 
ATOM     19  C   UNL     1       1.267   8.804  19.790  0.00  0.00    +0.000 A 
ATOM     20  C   UNL     1       1.519   7.495  20.542  0.00  0.00    +0.000 A 
ATOM     21  O   UNL     1       1.080   7.378  21.672  0.00  0.00    +0.000 OA
ATOM     22  H   UNL     1       4.429   5.984  16.721  0.00  0.00    +0.000 HD
ENDROOT
BRANCH   1  24
ATOM     23  C   UNL     1       2.293   2.812  17.212  0.00  0.00    +0.000 C 
ATOM     24  C   UNL     1       1.787   4.128  17.805  0.00  0.00    +0.000 C 
ENDBRANCH   1  24
BRANCH  17  25
ATOM     25  O   UNL     1      -0.852  11.769  18.960  0.00  0.00    +0.000 OA
ATOM     26  C   UNL     1      -1.819  11.663  17.942  0.00  0.00    +0.000 C 
ENDBRANCH  17  25
TORSDOF 2
ENDMDL
MODEL 4
REMARK VINA RESULT:      -6.7      3.798      8.359
REMARK  Name = 
REMARK  4 active torsions:
REMARK  status: ('A' for Active; 'I' for Inactive)
REMARK    1  A    between atoms: C_1  and  C_2
REMARK    2  A    between atoms: C_2  and  C_3
REMARK    3  A    between atoms: C_19  and  O_20
REMARK    4  A    between atoms: O_20  and  C_21
REMARK                            x       y       z     vdW  Elec       q    Type
REMARK                         _______ _______ _______ _____ _____    ______ ____
ROOT
ATOM      1  C   UNL     1       1.420  12.251  19.114  0.00  0.00    +0.000 C 
ATOM      2  N   UNL     1       0.383  12.571  18.172  0.00  0.00    +0.000 N 
ATOM      3  C   UNL     1      -0.922  12.244  18.471  0.00  0.00    +0.000 C 
ATOM      4  O   UNL     1      -1.777  12.137  17.606  0.00  0.00    +0.000 OA
ATOM      5  C   UNL     1      -1.230  12.118  19.901  0.00  0.00    +0.000 A 
ATOM      6  C   UNL     1      -1.823  13.285  20.405  0.00  0.00    +0.000 A 
ATOM      7  C   UNL     1      -1.789  13.500  21.769  0.00  0.00    +0.000 A 
ATOM      8  C   UNL     1      -1.264  12.492  22.569  0.00  0.00    +0.000 A 
ATOM      9  N   UNL     1      -0.724  11.326  22.109  0.00  0.00    +0.000 NA
ATOM     10  C   UNL     1      -0.626  11.159  20.770  0.00  0.00    +0.000 A 
ATOM     11  N   UNL     1       0.366  10.240  20.267  0.00  0.00    +0.000 N 
ATOM     12  C   UNL     1       1.202  10.719  19.297  0.00  0.00    +0.000 A 
ATOM     13  N   UNL     1       1.776   9.951  18.429  0.00  0.00    +0.000 NA
ATOM     14  C   UNL     1       1.656   8.571  18.620  0.00  0.00    +0.000 A 
ATOM     15  C   UNL     1       2.214   7.778  17.635  0.00  0.00    +0.000 A 
ATOM     16  C   UNL     1       3.202   6.898  18.001  0.00  0.00    +0.000 A 
ATOM     17  C   UNL     1       3.243   6.453  19.318  0.00  0.00    +0.000 A 
ATOM     18  C   UNL     1       2.325   6.960  20.269  0.00  0.00    +0.000 A 
ATOM     19  C   UNL     1       1.557   8.096  19.921  0.00  0.00    +0.000 A 
ATOM     20  C   UNL     1       0.652   8.956  20.808  0.00  0.00    +0.000 A 
ATOM     21  O   UNL     1       0.247   8.486  21.856  0.00  0.00    +0.000 OA
ATOM     22  H   UNL     1       0.604  12.453  17.185  0.00  0.00    +0.000 HD
ENDROOT
BRANCH   1  24
ATOM     23  C   UNL     1       1.626  14.703  20.197  0.00  0.00    +0.000 C 
ATOM     24  C   UNL     1       1.567  13.184  20.369  0.00  0.00    +0.000 C 
ENDBRANCH   1  24
BRANCH  17  25
ATOM     25  O   UNL     1       4.220   5.515  19.457  0.00  0.00    +0.000 OA
ATOM     26  C   UNL     1       3.924   4.157  19.231  0.00  0.00    +0.000 C 
ENDBRANCH  17  25
TORSDOF 2
ENDMDL
MODEL 5
REMARK VINA RESULT:      -6.6      1.460      1.890
REMARK  Name = 
REMARK  4 active torsions:
REMARK  status: ('A' for Active; 'I' for Inactive)
REMARK    1  A    between atoms: C_1  and  C_2
REMARK    2  A    between atoms: C_2  and  C_3
REMARK    3  A    between atoms: C_19  and  O_20
REMARK    4  A    between atoms: O_20  and  C_21
REMARK                            x       y       z     vdW  Elec       q    Type
REMARK                         _______ _______ _______ _____ _____    ______ ____
ROOT
ATOM      1  C   UNL     1       3.737   5.323  19.943  0.00  0.00    +0.000 C 
ATOM      2  N   UNL     1       3.009   4.163  19.508  0.00  0.00    +0.000 N 
ATOM      3  C   UNL     1       2.518   4.120  18.220  0.00  0.00    +0.000 C 
ATOM      4  O   UNL     1       1.605   3.377  17.900  0.00  0.00    +0.000 OA
ATOM      5  C   UNL     1       3.223   4.964  17.247  0.00  0.00    +0.000 A 
ATOM      6  C   UNL     1       4.148   4.222  16.498  0.00  0.00    +0.000 A 
ATOM      7  C   UNL     1       5.168   4.901  15.860  0.00  0.00    +0.000 A 
ATOM      8  C   UNL     1       5.150   6.290  15.910  0.00  0.00    +0.000 A 
ATOM      9  N   UNL     1       4.236   7.039  16.592  0.00  0.00    +0.000 NA
ATOM     10  C   UNL     1       3.311   6.387  17.333  0.00  0.00    +0.000 A 
ATOM     11  N   UNL     1       2.697   7.091  18.433  0.00  0.00    +0.000 N 
ATOM     12  C   UNL     1       2.710   6.456  19.644  0.00  0.00    +0.000 A 
ATOM     13  N   UNL     1       1.827   6.686  20.561  0.00  0.00    +0.000 NA
ATOM     14  C   UNL     1       0.944   7.749  20.346  0.00  0.00    +0.000 A 
ATOM     15  C   UNL     1      -0.035   7.920  21.307  0.00  0.00    +0.000 A 
ATOM     16  C   UNL     1      -0.077   9.118  21.976  0.00  0.00    +0.000 A 
ATOM     17  C   UNL     1       0.457  10.245  21.358  0.00  0.00    +0.000 A 
ATOM     18  C   UNL     1       1.091  10.131  20.097  0.00  0.00    +0.000 A 
ATOM     19  C   UNL     1       1.398   8.838  19.614  0.00  0.00    +0.000 A 
ATOM     20  C   UNL     1       2.242   8.438  18.401  0.00  0.00    +0.000 A 
ATOM     21  O   UNL     1       2.434   9.264  17.526  0.00  0.00    +0.000 OA
ATOM     22  H   UNL     1       2.382   3.731  20.184  0.00  0.00    +0.000 HD
ENDROOT
BRANCH   1  24
ATOM     23  C   UNL     1       6.113   4.221  19.340  0.00  0.00    +0.000 C 
ATOM     24  C   UNL     1       5.226   5.461  19.466  0.00  0.00    +0.000 C 
ENDBRANCH   1  24
BRANCH  17  25
ATOM     25  O   UNL     1       0.228  11.344  22.128  0.00  0.00    +0.000 OA
ATOM     26  C   UNL     1      -0.994  11.477  22.814  0.00  0.00    +0.000 C 
ENDBRANCH  17  25
TORSDOF 2
ENDMDL
MODEL 6
REMARK VINA RESULT:      -6.5      8.988     11.830
REMARK  Name = 
REMARK  4 active torsions:
REMARK  status: ('A' for Active; 'I' for Inactive)
REMARK    1  A    between atoms: C_1  and  C_2
REMARK    2  A    between atoms: C_2  and  C_3
REMARK    3  A    between atoms: C_19  and  O_20
REMARK    4  A    between atoms: O_20  and  C_21
REMARK                            x       y       z     vdW  Elec       q    Type
REMARK                         _______ _______ _______ _____ _____    ______ ____
ROOT
ATOM      1  C   UNL     1      -4.758  14.601  21.173  0.00  0.00    +0.000 C 
ATOM      2  N   UNL     1      -5.629  13.981  22.134  0.00  0.00    +0.000 N 
ATOM      3  C   UNL     1      -5.095  13.115  23.065  0.00  0.00    +0.000 C 
ATOM      4  O   UNL     1      -5.778  12.288  23.646  0.00  0.00    +0.000 OA
ATOM      5  C   UNL     1      -3.672  13.313  23.368  0.00  0.00    +0.000 A 
ATOM      6  C   UNL     1      -3.495  14.058  24.544  0.00  0.00    +0.000 A 
ATOM      7  C   UNL     1      -2.280  14.684  24.744  0.00  0.00    +0.000 A 
ATOM      8  C   UNL     1      -1.270  14.447  23.820  0.00  0.00    +0.000 A 
ATOM      9  N   UNL     1      -1.400  13.689  22.692  0.00  0.00    +0.000 NA
ATOM     10  C   UNL     1      -2.621  13.179  22.410  0.00  0.00    +0.000 A 
ATOM     11  N   UNL     1      -2.920  12.843  21.039  0.00  0.00    +0.000 N 
ATOM     12  C   UNL     1      -4.080  13.355  20.528  0.00  0.00    +0.000 A 
ATOM     13  N   UNL     1      -4.723  12.790  19.558  0.00  0.00    +0.000 NA
ATOM     14  C   UNL     1      -4.098  11.718  18.916  0.00  0.00    +0.000 A 
ATOM     15  C   UNL     1      -4.842  11.088  17.936  0.00  0.00    +0.000 A 
ATOM     16  C   UNL     1      -4.334  11.060  16.660  0.00  0.00    +0.000 A 
ATOM     17  C   UNL     1      -2.957  11.165  16.489  0.00  0.00    +0.000 A 
ATOM     18  C   UNL     1      -2.115  11.367  17.610  0.00  0.00    +0.000 A 
ATOM     19  C   UNL     1      -2.711  11.717  18.843  0.00  0.00    +0.000 A 
ATOM     20  C   UNL     1      -2.041  12.179  20.140  0.00  0.00    +0.000 A 
ATOM     21  O   UNL     1      -0.860  11.934  20.306  0.00  0.00    +0.000 OA
ATOM     22  H   UNL     1      -6.547  13.690  21.804  0.00  0.00    +0.000 HD
ENDROOT
BRANCH   1  24
ATOM     23  C   UNL     1      -2.884  16.473  20.717  0.00  0.00    +0.000 C 
ATOM     24  C   UNL     1      -3.885  15.809  21.665  0.00  0.00    +0.000 C 
ENDBRANCH   1  24
BRANCH  17  25
ATOM     25  O   UNL     1      -2.643  11.013  15.173  0.00  0.00    +0.000 OA
ATOM     26  C   UNL     1      -3.357  10.091  14.385  0.00  0.00    +0.000 C 
ENDBRANCH  17  25
TORSDOF 2
ENDMDL
MODEL 7
REMARK VINA RESULT:      -6.4      5.566      8.838
REMARK  Name = 
REMARK  4 active torsions:
REMARK  status: ('A' for Active; 'I' for Inactive)
REMARK    1  A    between atoms: C_1  and  C_2
REMARK    2  A    between atoms: C_2  and  C_3
REMARK    3  A    between atoms: C_19  and  O_20
REMARK    4  A    between atoms: O_20  and  C_21
REMARK                            x       y       z     vdW  Elec       q    Type
REMARK                         _______ _______ _______ _____ _____    ______ ____
ROOT
ATOM      1  C   UNL     1      -1.367  12.036  18.472  0.00  0.00    +0.000 C 
ATOM      2  N   UNL     1      -0.271  12.681  17.802  0.00  0.00    +0.000 N 
ATOM      3  C   UNL     1       1.008  12.514  18.289  0.00  0.00    +0.000 C 
ATOM      4  O   UNL     1       1.907  13.294  18.025  0.00  0.00    +0.000 OA
ATOM      5  C   UNL     1       1.230  11.293  19.074  0.00  0.00    +0.000 A 
ATOM      6  C   UNL     1       1.819  10.283  18.298  0.00  0.00    +0.000 A 
ATOM      7  C   UNL     1       1.711   8.977  18.734  0.00  0.00    +0.000 A 
ATOM      8  C   UNL     1       1.120   8.754  19.971  0.00  0.00    +0.000 A 
ATOM      9  N   UNL     1       0.581   9.723  20.769  0.00  0.00    +0.000 NA
ATOM     10  C   UNL     1       0.557  10.990  20.296  0.00  0.00    +0.000 A 
ATOM     11  N   UNL     1      -0.424  11.901  20.834  0.00  0.00    +0.000 N 
ATOM     12  C   UNL     1      -1.193  12.572  19.925  0.00  0.00    +0.000 A 
ATOM     13  N   UNL     1      -1.733  13.720  20.180  0.00  0.00    +0.000 NA
ATOM     14  C   UNL     1      -1.654  14.184  21.497  0.00  0.00    +0.000 A 
ATOM     15  C   UNL     1      -2.172  15.446  21.721  0.00  0.00    +0.000 A 
ATOM     16  C   UNL     1      -3.198  15.569  22.625  0.00  0.00    +0.000 A 
ATOM     17  C   UNL     1      -3.324  14.608  23.623  0.00  0.00    +0.000 A 
ATOM     18  C   UNL     1      -2.451  13.494  23.653  0.00  0.00    +0.000 A 
ATOM     19  C   UNL     1      -1.640  13.246  22.521  0.00  0.00    +0.000 A 
ATOM     20  C   UNL     1      -0.769  12.027  22.208  0.00  0.00    +0.000 A 
ATOM     21  O   UNL     1      -0.434  11.299  23.126  0.00  0.00    +0.000 OA
ATOM     22  H   UNL     1      -0.438  13.619  17.443  0.00  0.00    +0.000 HD
ENDROOT
BRANCH   1  24
ATOM     23  C   UNL     1      -2.098  10.005  16.870  0.00  0.00    +0.000 C 
ATOM     24  C   UNL     1      -1.565  10.499  18.216  0.00  0.00    +0.000 C 
ENDBRANCH   1  24
BRANCH  17  25
ATOM     25  O   UNL     1      -4.327  14.959  24.475  0.00  0.00    +0.000 OA
ATOM     26  C   UNL     1      -4.833  16.272  24.460  0.00  0.00    +0.000 C 
ENDBRANCH  17  25
TORSDOF 2
ENDMDL
MODEL 8
REMARK VINA RESULT:      -6.4      8.904      9.764
REMARK  Name = 
REMARK  4 active torsions:
REMARK  status: ('A' for Active; 'I' for Inactive)
REMARK    1  A    between atoms: C_1  and  C_2
REMARK    2  A    between atoms: C_2  and  C_3
REMARK    3  A    between atoms: C_19  and  O_20
REMARK    4  A    between atoms: O_20  and  C_21
REMARK                            x       y       z     vdW  Elec       q    Type
REMARK                         _______ _______ _______ _____ _____    ______ ____
ROOT
ATOM      1  C   UNL     1       9.829  15.231  20.496  0.00  0.00    +0.000 C 
ATOM      2  N   UNL     1       9.891  14.415  21.678  0.00  0.00    +0.000 N 
ATOM      3  C   UNL     1       9.734  13.051  21.564  0.00  0.00    +0.000 C 
ATOM      4  O   UNL     1       9.406  12.356  22.511  0.00  0.00    +0.000 OA
ATOM      5  C   UNL     1      10.068  12.484  20.251  0.00  0.00    +0.000 A 
ATOM      6  C   UNL     1      11.361  11.938  20.240  0.00  0.00    +0.000 A 
ATOM      7  C   UNL     1      11.983  11.754  19.021  0.00  0.00    +0.000 A 
ATOM      8  C   UNL     1      11.247  12.020  17.872  0.00  0.00    +0.000 A 
ATOM      9  N   UNL     1       9.972  12.507  17.853  0.00  0.00    +0.000 NA
ATOM     10  C   UNL     1       9.396  12.821  19.036  0.00  0.00    +0.000 A 
ATOM     11  N   UNL     1       8.322  13.783  19.039  0.00  0.00    +0.000 N 
ATOM     12  C   UNL     1       8.439  14.823  19.919  0.00  0.00    +0.000 A 
ATOM     13  N   UNL     1       7.415  15.456  20.391  0.00  0.00    +0.000 NA
ATOM     14  C   UNL     1       6.168  15.160  19.832  0.00  0.00    +0.000 A 
ATOM     15  C   UNL     1       5.085  15.796  20.410  0.00  0.00    +0.000 A 
ATOM     16  C   UNL     1       4.314  16.606  19.612  0.00  0.00    +0.000 A 
ATOM     17  C   UNL     1       4.296  16.367  18.241  0.00  0.00    +0.000 A 
ATOM     18  C   UNL     1       5.114  15.354  17.685  0.00  0.00    +0.000 A 
ATOM     19  C   UNL     1       6.122  14.784  18.496  0.00  0.00    +0.000 A 
ATOM     20  C   UNL     1       7.254  13.833  18.100  0.00  0.00    +0.000 A 
ATOM     21  O   UNL     1       7.150  13.202  17.064  0.00  0.00    +0.000 OA
ATOM     22  H   UNL     1       9.464  14.793  22.521  0.00  0.00    +0.000 HD
ENDROOT
BRANCH   1  24
ATOM     23  C   UNL     1      11.070  16.030  18.250  0.00  0.00    +0.000 C 
ATOM     24  C   UNL     1      11.094  15.252  19.567  0.00  0.00    +0.000 C 
ENDBRANCH   1  24
BRANCH  17  25
ATOM     25  O   UNL     1       3.401  17.199  17.641  0.00  0.00    +0.000 OA
ATOM     26  C   UNL     1       2.047  17.168  18.027  0.00  0.00    +0.000 C 
ENDBRANCH  17  25
TORSDOF 2
ENDMDL
MODEL 9
REMARK VINA RESULT:      -6.4      8.624     10.043
REMARK  Name = 
REMARK  4 active torsions:
REMARK  status: ('A' for Active; 'I' for Inactive)
REMARK    1  A    between atoms: C_1  and  C_2
REMARK    2  A    between atoms: C_2  and  C_3
REMARK    3  A    between atoms: C_19  and  O_20
REMARK    4  A    between atoms: O_20  and  C_21
REMARK                            x       y       z     vdW  Elec       q    Type
REMARK                         _______ _______ _______ _____ _____    ______ ____
ROOT
ATOM      1  C   UNL     1      10.020  11.801  20.397  0.00  0.00    +0.000 C 
ATOM      2  N   UNL     1       9.202  12.002  19.231  0.00  0.00    +0.000 N 
ATOM      3  C   UNL     1       8.850  13.284  18.869  0.00  0.00    +0.000 C 
ATOM      4  O   UNL     1       7.890  13.513  18.151  0.00  0.00    +0.000 OA
ATOM      5  C   UNL     1       9.754  14.343  19.334  0.00  0.00    +0.000 A 
ATOM      6  C   UNL     1      10.654  14.730  18.329  0.00  0.00    +0.000 A 
ATOM      7  C   UNL     1      11.812  15.382  18.705  0.00  0.00    +0.000 A 
ATOM      8  C   UNL     1      11.963  15.713  20.046  0.00  0.00    +0.000 A 
ATOM      9  N   UNL     1      11.082  15.391  21.037  0.00  0.00    +0.000 NA
ATOM     10  C   UNL     1      10.009  14.635  20.709  0.00  0.00    +0.000 A 
ATOM     11  N   UNL     1       9.375  13.861  21.749  0.00  0.00    +0.000 N 
ATOM     12  C   UNL     1       9.179  12.534  21.486  0.00  0.00    +0.000 A 
ATOM     13  N   UNL     1       8.240  11.843  22.046  0.00  0.00    +0.000 NA
ATOM     14  C   UNL     1       7.525  12.457  23.078  0.00  0.00    +0.000 A 
ATOM     15  C   UNL     1       6.478  11.722  23.603  0.00  0.00    +0.000 A 
ATOM     16  C   UNL     1       6.515  11.415  24.941  0.00  0.00    +0.000 A 
ATOM     17  C   UNL     1       7.248  12.235  25.793  0.00  0.00    +0.000 A 
ATOM     18  C   UNL     1       7.993  13.319  25.269  0.00  0.00    +0.000 A 
ATOM     19  C   UNL     1       8.186  13.387  23.869  0.00  0.00    +0.000 A 
ATOM     20  C   UNL     1       9.097  14.319  23.066  0.00  0.00    +0.000 A 
ATOM     21  O   UNL     1       9.482  15.350  23.589  0.00  0.00    +0.000 OA
ATOM     22  H   UNL     1       8.458  11.326  19.068  0.00  0.00    +0.000 HD
ENDROOT
BRANCH   1  24
ATOM     23  C   UNL     1      12.331  11.573  19.045  0.00  0.00    +0.000 C 
ATOM     24  C   UNL     1      11.557  12.090  20.258  0.00  0.00    +0.000 C 
ENDBRANCH   1  24
BRANCH  17  25
ATOM     25  O   UNL     1       7.077  11.830  27.081  0.00  0.00    +0.000 OA
ATOM     26  C   UNL     1       6.166  10.799  27.378  0.00  0.00    +0.000 C 
ENDBRANCH  17  25
TORSDOF 2
ENDMDL
