MODEL 1
REMARK VINA RESULT:      -6.9      0.000      0.000
REMARK  Name = 
REMARK  12 active torsions:
REMARK  status: ('A' for Active; 'I' for Inactive)
REMARK    1  A    between atoms: C_1  and  C_2
REMARK    2  A    between atoms: C_2  and  C_3
REMARK    3  A    between atoms: C_6  and  C_7
REMARK    4  A    between atoms: C_7  and  C_8
REMARK    5  A    between atoms: C_9  and  N_10
REMARK    6  A    between atoms: N_13  and  C_14
REMARK    7  A    between atoms: C_14  and  C_15
REMARK    8  A    between atoms: C_14  and  C_16
REMARK    9  A    between atoms: C_14  and  C_17
REMARK   10  A    between atoms: C_17  and  C_18
REMARK   11  A    between atoms: C_18  and  S_19
REMARK   12  A    between atoms: S_19  and  C_20
REMARK                            x       y       z     vdW  Elec       q    Type
REMARK                         _______ _______ _______ _____ _____    ______ ____
ROOT
ATOM      1  N   UNL     1       2.708   7.034  19.013  0.00  0.00    +0.000 N 
ATOM      2  C   UNL     1       2.191   8.174  18.457  0.00  0.00    +0.000 C 
ATOM      3  O   UNL     1       2.123   8.365  17.233  0.00  0.00    +0.000 OA
ATOM      4  N   UNL     1       1.697   9.096  19.378  0.00  0.00    +0.000 N 
ATOM      5  H   UNL     1       2.461   6.829  19.966  0.00  0.00    +0.000 HD
ATOM      6  H   UNL     1       2.034   9.011  20.328  0.00  0.00    +0.000 HD
ENDROOT
BRANCH   1  11
ATOM      7  C   UNL     1       4.913   5.225  16.617  0.00  0.00    +0.000 A 
ATOM      8  C   UNL     1       4.333   3.959  16.573  0.00  0.00    +0.000 A 
ATOM      9  C   UNL     1       3.200   3.684  17.350  0.00  0.00    +0.000 A 
ATOM     10  C   UNL     1       2.611   4.657  18.193  0.00  0.00    +0.000 A 
ATOM     11  C   UNL     1       3.175   5.961  18.193  0.00  0.00    +0.000 A 
ATOM     12  C   UNL     1       4.317   6.215  17.408  0.00  0.00    +0.000 A 
BRANCH   7  14
ATOM     13  C   UNL     1       6.314   4.654  14.619  0.00  0.00    +0.000 C 
ATOM     14  C   UNL     1       6.157   5.556  15.832  0.00  0.00    +0.000 C 
ENDBRANCH   7  14
BRANCH  10  15
ATOM     15  C   UNL     1       1.454   4.208  19.053  0.00  0.00    +0.000 C 
ATOM     16  C   UNL     1       0.952   2.770  18.860  0.00  0.00    +0.000 C 
ENDBRANCH  10  15
ENDBRANCH   1  11
BRANCH   4  17
ATOM     17  C   UNL     1       1.132  10.411  18.962  0.00  0.00    +0.000 C 
ATOM     18  C   UNL     1       2.088  11.109  17.961  0.00  0.00    +0.000 C 
ATOM     19  C   UNL     1      -0.246  10.185  18.296  0.00  0.00    +0.000 C 
BRANCH  17  20
ATOM     20  C   UNL     1       0.970  11.344  20.204  0.00  0.00    +0.000 C 
BRANCH  20  21
ATOM     21  C   UNL     1      -0.236  11.007  21.081  0.00  0.00    +0.000 C 
BRANCH  21  22
ATOM     22  S   UNL     1       0.104   9.875  22.408  0.00  0.00    +0.000 S 
ATOM     23  C   UNL     1      -0.591   8.334  21.871  0.00  0.00    +0.000 C 
ATOM     24  O   UNL     1       1.542   9.717  22.512  0.00  0.00    +0.000 OA
ATOM     25  O   UNL     1      -0.669  10.323  23.551  0.00  0.00    +0.000 OA
ENDBRANCH  21  22
ENDBRANCH  20  21
ENDBRANCH  17  20
ENDBRANCH   4  17
TORSDOF 7
ENDMDL
MODEL 2
REMARK VINA RESULT:      -6.8      1.214      1.478
REMARK  Name = 
REMARK  12 active torsions:
REMARK  status: ('A' for Active; 'I' for Inactive)
REMARK    1  A    between atoms: C_1  and  C_2
REMARK    2  A    between atoms: C_2  and  C_3
REMARK    3  A    between atoms: C_6  and  C_7
REMARK    4  A    between atoms: C_7  and  C_8
REMARK    5  A    between atoms: C_9  and  N_10
REMARK    6  A    between atoms: N_13  and  C_14
REMARK    7  A    between atoms: C_14  and  C_15
REMARK    8  A    between atoms: C_14  and  C_16
REMARK    9  A    between atoms: C_14  and  C_17
REMARK   10  A    between atoms: C_17  and  C_18
REMARK   11  A    between atoms: C_18  and  S_19
REMARK   12  A    between atoms: S_19  and  C_20
REMARK                            x       y       z     vdW  Elec       q    Type
REMARK                         _______ _______ _______ _____ _____    ______ ____
ROOT
ATOM      1  N   UNL     1       2.739   6.765  18.985  0.00  0.00    +0.000 N 
ATOM      2  C   UNL     1       2.331   7.955  18.444  0.00  0.00    +0.000 C 
ATOM      3  O   UNL     1       2.583   8.295  17.277  0.00  0.00    +0.000 OA
ATOM      4  N   UNL     1       1.560   8.745  19.294  0.00  0.00    +0.000 N 
ATOM      5  H   UNL     1       2.257   6.438  19.805  0.00  0.00    +0.000 HD
ATOM      6  H   UNL     1       1.634   8.549  20.284  0.00  0.00    +0.000 HD
ENDROOT
BRANCH   1  11
ATOM      7  C   UNL     1       5.678   5.148  17.365  0.00  0.00    +0.000 A 
ATOM      8  C   UNL     1       5.116   4.009  16.792  0.00  0.00    +0.000 A 
ATOM      9  C   UNL     1       3.746   3.757  16.944  0.00  0.00    +0.000 A 
ATOM     10  C   UNL     1       2.896   4.625  17.669  0.00  0.00    +0.000 A 
ATOM     11  C   UNL     1       3.465   5.812  18.206  0.00  0.00    +0.000 A 
ATOM     12  C   UNL     1       4.845   6.044  18.045  0.00  0.00    +0.000 A 
BRANCH   7  14
ATOM     13  C   UNL     1       7.744   5.825  18.611  0.00  0.00    +0.000 C 
ATOM     14  C   UNL     1       7.153   5.440  17.265  0.00  0.00    +0.000 C 
ENDBRANCH   7  14
BRANCH  10  15
ATOM     15  C   UNL     1       1.460   4.191  17.844  0.00  0.00    +0.000 C 
ATOM     16  C   UNL     1       1.214   2.831  18.512  0.00  0.00    +0.000 C 
ENDBRANCH  10  15
ENDBRANCH   1  11
BRANCH   4  17
ATOM     17  C   UNL     1       1.059  10.091  18.893  0.00  0.00    +0.000 C 
ATOM     18  C   UNL     1       2.122  10.820  18.033  0.00  0.00    +0.000 C 
ATOM     19  C   UNL     1      -0.247   9.925  18.080  0.00  0.00    +0.000 C 
BRANCH  17  20
ATOM     20  C   UNL     1       0.784  10.961  20.161  0.00  0.00    +0.000 C 
BRANCH  20  21
ATOM     21  C   UNL     1      -0.523  10.621  20.876  0.00  0.00    +0.000 C 
BRANCH  21  22
ATOM     22  S   UNL     1      -0.354   9.491  22.236  0.00  0.00    +0.000 S 
ATOM     23  C   UNL     1       1.387   9.454  22.573  0.00  0.00    +0.000 C 
ATOM     24  O   UNL     1      -1.030  10.060  23.385  0.00  0.00    +0.000 OA
ATOM     25  O   UNL     1      -0.727   8.179  21.741  0.00  0.00    +0.000 OA
ENDBRANCH  21  22
ENDBRANCH  20  21
ENDBRANCH  17  20
ENDBRANCH   4  17
TORSDOF 7
ENDMDL
MODEL 3
REMARK VINA RESULT:      -6.7      2.174      2.910
REMARK  Name = 
REMARK  12 active torsions:
REMARK  status: ('A' for Active; 'I' for Inactive)
REMARK    1  A    between atoms: C_1  and  C_2
REMARK    2  A    between atoms: C_2  and  C_3
REMARK    3  A    between atoms: C_6  and  C_7
REMARK    4  A    between atoms: C_7  and  C_8
REMARK    5  A    between atoms: C_9  and  N_10
REMARK    6  A    between atoms: N_13  and  C_14
REMARK    7  A    between atoms: C_14  and  C_15
REMARK    8  A    between atoms: C_14  and  C_16
REMARK    9  A    between atoms: C_14  and  C_17
REMARK   10  A    between atoms: C_17  and  C_18
REMARK   11  A    between atoms: C_18  and  S_19
REMARK   12  A    between atoms: S_19  and  C_20
REMARK                            x       y       z     vdW  Elec       q    Type
REMARK                         _______ _______ _______ _____ _____    ______ ____
ROOT
ATOM      1  N   UNL     1       2.987   5.757  20.034  0.00  0.00    +0.000 N 
ATOM      2  C   UNL     1       2.346   6.965  19.959  0.00  0.00    +0.000 C 
ATOM      3  O   UNL     1       2.362   7.683  18.946  0.00  0.00    +0.000 OA
ATOM      4  N   UNL     1       1.626   7.312  21.100  0.00  0.00    +0.000 N 
ATOM      5  H   UNL     1       2.689   5.118  20.751  0.00  0.00    +0.000 HD
ATOM      6  H   UNL     1       1.883   6.840  21.957  0.00  0.00    +0.000 HD
ENDROOT
BRANCH   1  11
ATOM      7  C   UNL     1       5.908   4.857  17.905  0.00  0.00    +0.000 A 
ATOM      8  C   UNL     1       5.310   4.175  16.847  0.00  0.00    +0.000 A 
ATOM      9  C   UNL     1       3.920   3.996  16.832  0.00  0.00    +0.000 A 
ATOM     10  C   UNL     1       3.085   4.487  17.863  0.00  0.00    +0.000 A 
ATOM     11  C   UNL     1       3.695   5.227  18.912  0.00  0.00    +0.000 A 
ATOM     12  C   UNL     1       5.094   5.392  18.911  0.00  0.00    +0.000 A 
BRANCH   7  14
ATOM     13  C   UNL     1       7.813   5.756  19.264  0.00  0.00    +0.000 C 
ATOM     14  C   UNL     1       7.402   5.038  17.988  0.00  0.00    +0.000 C 
ENDBRANCH   7  14
BRANCH  10  15
ATOM     15  C   UNL     1       1.618   4.143  17.780  0.00  0.00    +0.000 C 
ATOM     16  C   UNL     1       1.139   2.910  18.561  0.00  0.00    +0.000 C 
ENDBRANCH  10  15
ENDBRANCH   1  11
BRANCH   4  17
ATOM     17  C   UNL     1       0.897   8.608  21.218  0.00  0.00    +0.000 C 
ATOM     18  C   UNL     1      -0.594   8.351  21.554  0.00  0.00    +0.000 C 
ATOM     19  C   UNL     1       1.546   9.456  22.337  0.00  0.00    +0.000 C 
BRANCH  17  20
ATOM     20  C   UNL     1       0.959   9.385  19.864  0.00  0.00    +0.000 C 
BRANCH  20  21
ATOM     21  C   UNL     1      -0.342  10.096  19.496  0.00  0.00    +0.000 C 
BRANCH  21  22
ATOM     22  S   UNL     1      -0.350  11.844  19.817  0.00  0.00    +0.000 S 
ATOM     23  C   UNL     1       1.362  12.307  19.814  0.00  0.00    +0.000 C 
ATOM     24  O   UNL     1      -1.005  12.505  18.704  0.00  0.00    +0.000 OA
ATOM     25  O   UNL     1      -0.844  12.021  21.169  0.00  0.00    +0.000 OA
ENDBRANCH  21  22
ENDBRANCH  20  21
ENDBRANCH  17  20
ENDBRANCH   4  17
TORSDOF 7
ENDMDL
MODEL 4
REMARK VINA RESULT:      -6.7      1.058      1.303
REMARK  Name = 
REMARK  12 active torsions:
REMARK  status: ('A' for Active; 'I' for Inactive)
REMARK    1  A    between atoms: C_1  and  C_2
REMARK    2  A    between atoms: C_2  and  C_3
REMARK    3  A    between atoms: C_6  and  C_7
REMARK    4  A    between atoms: C_7  and  C_8
REMARK    5  A    between atoms: C_9  and  N_10
REMARK    6  A    between atoms: N_13  and  C_14
REMARK    7  A    between atoms: C_14  and  C_15
REMARK    8  A    between atoms: C_14  and  C_16
REMARK    9  A    between atoms: C_14  and  C_17
REMARK   10  A    between atoms: C_17  and  C_18
REMARK   11  A    between atoms: C_18  and  S_19
REMARK   12  A    between atoms: S_19  and  C_20
REMARK                            x       y       z     vdW  Elec       q    Type
REMARK                         _______ _______ _______ _____ _____    ______ ____
ROOT
ATOM      1  N   UNL     1       2.624   7.108  18.978  0.00  0.00    +0.000 N 
ATOM      2  C   UNL     1       2.096   8.251  18.441  0.00  0.00    +0.000 C 
ATOM      3  O   UNL     1       2.326   8.627  17.280  0.00  0.00    +0.000 OA
ATOM      4  N   UNL     1       1.234   8.945  19.286  0.00  0.00    +0.000 N 
ATOM      5  H   UNL     1       2.169   6.723  19.790  0.00  0.00    +0.000 HD
ATOM      6  H   UNL     1       1.315   8.750  20.275  0.00  0.00    +0.000 HD
ENDROOT
BRANCH   1  11
ATOM      7  C   UNL     1       5.740   5.837  17.381  0.00  0.00    +0.000 A 
ATOM      8  C   UNL     1       5.314   4.646  16.798  0.00  0.00    +0.000 A 
ATOM      9  C   UNL     1       3.980   4.241  16.936  0.00  0.00    +0.000 A 
ATOM     10  C   UNL     1       3.031   5.005  17.656  0.00  0.00    +0.000 A 
ATOM     11  C   UNL     1       3.458   6.245  18.203  0.00  0.00    +0.000 A 
ATOM     12  C   UNL     1       4.806   6.631  18.057  0.00  0.00    +0.000 A 
BRANCH   7  14
ATOM     13  C   UNL     1       7.857   6.258  18.655  0.00  0.00    +0.000 C 
ATOM     14  C   UNL     1       7.174   6.292  17.297  0.00  0.00    +0.000 C 
ENDBRANCH   7  14
BRANCH  10  15
ATOM     15  C   UNL     1       1.651   4.413  17.814  0.00  0.00    +0.000 C 
ATOM     16  C   UNL     1       1.365   3.636  19.107  0.00  0.00    +0.000 C 
ENDBRANCH  10  15
ENDBRANCH   1  11
BRANCH   4  17
ATOM     17  C   UNL     1       0.595  10.233  18.888  0.00  0.00    +0.000 C 
ATOM     18  C   UNL     1       1.676  11.245  18.432  0.00  0.00    +0.000 C 
ATOM     19  C   UNL     1      -0.397   9.971  17.729  0.00  0.00    +0.000 C 
BRANCH  17  20
ATOM     20  C   UNL     1      -0.166  10.854  20.102  0.00  0.00    +0.000 C 
BRANCH  20  21
ATOM     21  C   UNL     1       0.673  10.952  21.376  0.00  0.00    +0.000 C 
BRANCH  21  22
ATOM     22  S   UNL     1       0.066   9.990  22.741  0.00  0.00    +0.000 S 
ATOM     23  C   UNL     1      -0.664   8.558  21.991  0.00  0.00    +0.000 C 
ATOM     24  O   UNL     1       1.203   9.562  23.534  0.00  0.00    +0.000 OA
ATOM     25  O   UNL     1      -1.006  10.754  23.350  0.00  0.00    +0.000 OA
ENDBRANCH  21  22
ENDBRANCH  20  21
ENDBRANCH  17  20
ENDBRANCH   4  17
TORSDOF 7
ENDMDL
MODEL 5
REMARK VINA RESULT:      -6.7      0.855      1.017
REMARK  Name = 
REMARK  12 active torsions:
REMARK  status: ('A' for Active; 'I' for Inactive)
REMARK    1  A    between atoms: C_1  and  C_2
REMARK    2  A    between atoms: C_2  and  C_3
REMARK    3  A    between atoms: C_6  and  C_7
REMARK    4  A    between atoms: C_7  and  C_8
REMARK    5  A    between atoms: C_9  and  N_10
REMARK    6  A    between atoms: N_13  and  C_14
REMARK    7  A    between atoms: C_14  and  C_15
REMARK    8  A    between atoms: C_14  and  C_16
REMARK    9  A    between atoms: C_14  and  C_17
REMARK   10  A    between atoms: C_17  and  C_18
REMARK   11  A    between atoms: C_18  and  S_19
REMARK   12  A    between atoms: S_19  and  C_20
REMARK                            x       y       z     vdW  Elec       q    Type
REMARK                         _______ _______ _______ _____ _____    ______ ____
ROOT
ATOM      1  N   UNL     1       2.673   6.953  18.897  0.00  0.00    +0.000 N 
ATOM      2  C   UNL     1       2.252   8.120  18.318  0.00  0.00    +0.000 C 
ATOM      3  O   UNL     1       2.376   8.364  17.108  0.00  0.00    +0.000 OA
ATOM      4  N   UNL     1       1.621   9.005  19.190  0.00  0.00    +0.000 N 
ATOM      5  H   UNL     1       2.280   6.709  19.790  0.00  0.00    +0.000 HD
ATOM      6  H   UNL     1       1.805   8.876  20.176  0.00  0.00    +0.000 HD
ENDROOT
BRANCH   1  11
ATOM      7  C   UNL     1       5.245   5.209  16.842  0.00  0.00    +0.000 A 
ATOM      8  C   UNL     1       4.657   3.967  16.616  0.00  0.00    +0.000 A 
ATOM      9  C   UNL     1       3.394   3.686  17.155  0.00  0.00    +0.000 A 
ATOM     10  C   UNL     1       2.680   4.628  17.931  0.00  0.00    +0.000 A 
ATOM     11  C   UNL     1       3.261   5.912  18.114  0.00  0.00    +0.000 A 
ATOM     12  C   UNL     1       4.534   6.172  17.568  0.00  0.00    +0.000 A 
BRANCH   7  14
ATOM     13  C   UNL     1       7.000   4.670  15.136  0.00  0.00    +0.000 C 
ATOM     14  C   UNL     1       6.620   5.543  16.321  0.00  0.00    +0.000 C 
ENDBRANCH   7  14
BRANCH  10  15
ATOM     15  C   UNL     1       1.374   4.170  18.536  0.00  0.00    +0.000 C 
ATOM     16  C   UNL     1       1.396   3.737  20.009  0.00  0.00    +0.000 C 
ENDBRANCH  10  15
ENDBRANCH   1  11
BRANCH   4  17
ATOM     17  C   UNL     1       1.130  10.342  18.749  0.00  0.00    +0.000 C 
ATOM     18  C   UNL     1       2.163  11.002  17.802  0.00  0.00    +0.000 C 
ATOM     19  C   UNL     1      -0.219  10.170  18.011  0.00  0.00    +0.000 C 
BRANCH  17  20
ATOM     20  C   UNL     1       0.940  11.279  19.984  0.00  0.00    +0.000 C 
BRANCH  20  21
ATOM     21  C   UNL     1      -0.252  10.909  20.867  0.00  0.00    +0.000 C 
BRANCH  21  22
ATOM     22  S   UNL     1       0.071   9.624  22.051  0.00  0.00    +0.000 S 
ATOM     23  C   UNL     1      -0.880  10.080  23.477  0.00  0.00    +0.000 C 
ATOM     24  O   UNL     1      -0.459   8.380  21.526  0.00  0.00    +0.000 OA
ATOM     25  O   UNL     1       1.472   9.730  22.414  0.00  0.00    +0.000 OA
ENDBRANCH  21  22
ENDBRANCH  20  21
ENDBRANCH  17  20
ENDBRANCH   4  17
TORSDOF 7
ENDMDL
MODEL 6
REMARK VINA RESULT:      -6.6      2.492      3.238
REMARK  Name = 
REMARK  12 active torsions:
REMARK  status: ('A' for Active; 'I' for Inactive)
REMARK    1  A    between atoms: C_1  and  C_2
REMARK    2  A    between atoms: C_2  and  C_3
REMARK    3  A    between atoms: C_6  and  C_7
REMARK    4  A    between atoms: C_7  and  C_8
REMARK    5  A    between atoms: C_9  and  N_10
REMARK    6  A    between atoms: N_13  and  C_14
REMARK    7  A    between atoms: C_14  and  C_15
REMARK    8  A    between atoms: C_14  and  C_16
REMARK    9  A    between atoms: C_14  and  C_17
REMARK   10  A    between atoms: C_17  and  C_18
REMARK   11  A    between atoms: C_18  and  S_19
REMARK   12  A    between atoms: S_19  and  C_20
REMARK                            x       y       z     vdW  Elec       q    Type
REMARK                         _______ _______ _______ _____ _____    ______ ____
ROOT
ATOM      1  N   UNL     1       2.265   7.418  19.553  0.00  0.00    +0.000 N 
ATOM      2  C   UNL     1       1.608   8.465  18.964  0.00  0.00    +0.000 C 
ATOM      3  O   UNL     1       1.394   8.534  17.743  0.00  0.00    +0.000 OA
ATOM      4  N   UNL     1       1.149   9.436  19.851  0.00  0.00    +0.000 N 
ATOM      5  H   UNL     1       2.139   7.289  20.543  0.00  0.00    +0.000 HD
ATOM      6  H   UNL     1       1.592   9.463  20.760  0.00  0.00    +0.000 HD
ENDROOT
BRANCH   1  11
ATOM      7  C   UNL     1       4.340   5.531  17.101  0.00  0.00    +0.000 A 
ATOM      8  C   UNL     1       3.843   4.236  17.223  0.00  0.00    +0.000 A 
ATOM      9  C   UNL     1       2.813   3.967  18.133  0.00  0.00    +0.000 A 
ATOM     10  C   UNL     1       2.246   4.975  18.948  0.00  0.00    +0.000 A 
ATOM     11  C   UNL     1       2.720   6.305  18.782  0.00  0.00    +0.000 A 
ATOM     12  C   UNL     1       3.760   6.552  17.865  0.00  0.00    +0.000 A 
BRANCH   7  14
ATOM     13  C   UNL     1       5.644   4.804  15.088  0.00  0.00    +0.000 C 
ATOM     14  C   UNL     1       5.477   5.861  16.168  0.00  0.00    +0.000 C 
ENDBRANCH   7  14
BRANCH  10  15
ATOM     15  C   UNL     1       1.210   4.540  19.957  0.00  0.00    +0.000 C 
ATOM     16  C   UNL     1       1.307   3.102  20.486  0.00  0.00    +0.000 C 
ENDBRANCH  10  15
ENDBRANCH   1  11
BRANCH   4  17
ATOM     17  C   UNL     1       0.446  10.667  19.390  0.00  0.00    +0.000 C 
ATOM     18  C   UNL     1      -0.300  11.330  20.576  0.00  0.00    +0.000 C 
ATOM     19  C   UNL     1       1.484  11.657  18.808  0.00  0.00    +0.000 C 
BRANCH  17  20
ATOM     20  C   UNL     1      -0.609  10.307  18.296  0.00  0.00    +0.000 C 
BRANCH  20  21
ATOM     21  C   UNL     1      -1.821  11.237  18.272  0.00  0.00    +0.000 C 
BRANCH  21  22
ATOM     22  S   UNL     1      -3.138  10.713  17.201  0.00  0.00    +0.000 S 
ATOM     23  C   UNL     1      -4.511  11.746  17.641  0.00  0.00    +0.000 C 
ATOM     24  O   UNL     1      -2.759  11.016  15.834  0.00  0.00    +0.000 OA
ATOM     25  O   UNL     1      -3.478   9.356  17.584  0.00  0.00    +0.000 OA
ENDBRANCH  21  22
ENDBRANCH  20  21
ENDBRANCH  17  20
ENDBRANCH   4  17
TORSDOF 7
ENDMDL
MODEL 7
REMARK VINA RESULT:      -6.6      1.681      1.915
REMARK  Name = 
REMARK  12 active torsions:
REMARK  status: ('A' for Active; 'I' for Inactive)
REMARK    1  A    between atoms: C_1  and  C_2
REMARK    2  A    between atoms: C_2  and  C_3
REMARK    3  A    between atoms: C_6  and  C_7
REMARK    4  A    between atoms: C_7  and  C_8
REMARK    5  A    between atoms: C_9  and  N_10
REMARK    6  A    between atoms: N_13  and  C_14
REMARK    7  A    between atoms: C_14  and  C_15
REMARK    8  A    between atoms: C_14  and  C_16
REMARK    9  A    between atoms: C_14  and  C_17
REMARK   10  A    between atoms: C_17  and  C_18
REMARK   11  A    between atoms: C_18  and  S_19
REMARK   12  A    between atoms: S_19  and  C_20
REMARK                            x       y       z     vdW  Elec       q    Type
REMARK                         _______ _______ _______ _____ _____    ______ ____
ROOT
ATOM      1  N   UNL     1       2.732   7.179  17.483  0.00  0.00    +0.000 N 
ATOM      2  C   UNL     1       2.109   7.962  18.418  0.00  0.00    +0.000 C 
ATOM      3  O   UNL     1       2.174   7.747  19.639  0.00  0.00    +0.000 OA
ATOM      4  N   UNL     1       1.427   9.058  17.896  0.00  0.00    +0.000 N 
ATOM      5  H   UNL     1       2.879   7.575  16.570  0.00  0.00    +0.000 HD
ATOM      6  H   UNL     1       1.179   9.012  16.916  0.00  0.00    +0.000 HD
ENDROOT
BRANCH   1  11
ATOM      7  C   UNL     1       5.761   5.354  18.654  0.00  0.00    +0.000 A 
ATOM      8  C   UNL     1       5.299   4.044  18.761  0.00  0.00    +0.000 A 
ATOM      9  C   UNL     1       3.964   3.749  18.454  0.00  0.00    +0.000 A 
ATOM     10  C   UNL     1       3.050   4.743  18.031  0.00  0.00    +0.000 A 
ATOM     11  C   UNL     1       3.541   6.068  17.872  0.00  0.00    +0.000 A 
ATOM     12  C   UNL     1       4.885   6.344  18.192  0.00  0.00    +0.000 A 
BRANCH   7  14
ATOM     13  C   UNL     1       7.734   6.789  18.081  0.00  0.00    +0.000 C 
ATOM     14  C   UNL     1       7.175   5.728  19.015  0.00  0.00    +0.000 C 
ENDBRANCH   7  14
BRANCH  10  15
ATOM     15  C   UNL     1       1.617   4.316  17.825  0.00  0.00    +0.000 C 
ATOM     16  C   UNL     1       1.153   3.043  18.548  0.00  0.00    +0.000 C 
ENDBRANCH  10  15
ENDBRANCH   1  11
BRANCH   4  17
ATOM     17  C   UNL     1       0.656  10.000  18.757  0.00  0.00    +0.000 C 
ATOM     18  C   UNL     1       1.503  11.264  19.055  0.00  0.00    +0.000 C 
ATOM     19  C   UNL     1      -0.647  10.405  18.027  0.00  0.00    +0.000 C 
BRANCH  17  20
ATOM     20  C   UNL     1       0.307   9.320  20.119  0.00  0.00    +0.000 C 
BRANCH  20  21
ATOM     21  C   UNL     1       0.606  10.189  21.341  0.00  0.00    +0.000 C 
BRANCH  21  22
ATOM     22  S   UNL     1      -0.216   9.681  22.832  0.00  0.00    +0.000 S 
ATOM     23  C   UNL     1      -1.396  10.966  23.153  0.00  0.00    +0.000 C 
ATOM     24  O   UNL     1      -0.940   8.455  22.556  0.00  0.00    +0.000 OA
ATOM     25  O   UNL     1       0.772   9.726  23.893  0.00  0.00    +0.000 OA
ENDBRANCH  21  22
ENDBRANCH  20  21
ENDBRANCH  17  20
ENDBRANCH   4  17
TORSDOF 7
ENDMDL
MODEL 8
REMARK VINA RESULT:      -6.5      1.828      2.453
REMARK  Name = 
REMARK  12 active torsions:
REMARK  status: ('A' for Active; 'I' for Inactive)
REMARK    1  A    between atoms: C_1  and  C_2
REMARK    2  A    between atoms: C_2  and  C_3
REMARK    3  A    between atoms: C_6  and  C_7
REMARK    4  A    between atoms: C_7  and  C_8
REMARK    5  A    between atoms: C_9  and  N_10
REMARK    6  A    between atoms: N_13  and  C_14
REMARK    7  A    between atoms: C_14  and  C_15
REMARK    8  A    between atoms: C_14  and  C_16
REMARK    9  A    between atoms: C_14  and  C_17
REMARK   10  A    between atoms: C_17  and  C_18
REMARK   11  A    between atoms: C_18  and  S_19
REMARK   12  A    between atoms: S_19  and  C_20
REMARK                            x       y       z     vdW  Elec       q    Type
REMARK                         _______ _______ _______ _____ _____    ______ ____
ROOT
ATOM      1  N   UNL     1       2.661   7.024  19.000  0.00  0.00    +0.000 N 
ATOM      2  C   UNL     1       2.172   8.205  18.510  0.00  0.00    +0.000 C 
ATOM      3  O   UNL     1       2.312   8.563  17.329  0.00  0.00    +0.000 OA
ATOM      4  N   UNL     1       1.453   8.963  19.432  0.00  0.00    +0.000 N 
ATOM      5  H   UNL     1       2.263   6.675  19.855  0.00  0.00    +0.000 HD
ATOM      6  H   UNL     1       1.619   8.761  20.409  0.00  0.00    +0.000 HD
ENDROOT
BRANCH   1  11
ATOM      7  C   UNL     1       5.455   5.596  16.992  0.00  0.00    +0.000 A 
ATOM      8  C   UNL     1       4.924   4.383  16.558  0.00  0.00    +0.000 A 
ATOM      9  C   UNL     1       3.625   4.017  16.937  0.00  0.00    +0.000 A 
ATOM     10  C   UNL     1       2.818   4.842  17.755  0.00  0.00    +0.000 A 
ATOM     11  C   UNL     1       3.346   6.101  18.151  0.00  0.00    +0.000 A 
ATOM     12  C   UNL     1       4.656   6.447  17.764  0.00  0.00    +0.000 A 
BRANCH   7  14
ATOM     13  C   UNL     1       7.473   6.886  17.732  0.00  0.00    +0.000 C 
ATOM     14  C   UNL     1       6.862   6.014  16.648  0.00  0.00    +0.000 C 
ENDBRANCH   7  14
BRANCH  10  15
ATOM     15  C   UNL     1       1.476   4.291  18.173  0.00  0.00    +0.000 C 
ATOM     16  C   UNL     1       1.392   3.612  19.548  0.00  0.00    +0.000 C 
ENDBRANCH  10  15
ENDBRANCH   1  11
BRANCH   4  17
ATOM     17  C   UNL     1       0.878  10.296  19.091  0.00  0.00    +0.000 C 
ATOM     18  C   UNL     1       1.923  11.146  18.325  0.00  0.00    +0.000 C 
ATOM     19  C   UNL     1      -0.379  10.096  18.211  0.00  0.00    +0.000 C 
BRANCH  17  20
ATOM     20  C   UNL     1       0.493  11.064  20.395  0.00  0.00    +0.000 C 
BRANCH  20  21
ATOM     21  C   UNL     1       0.164  12.540  20.172  0.00  0.00    +0.000 C 
BRANCH  21  22
ATOM     22  S   UNL     1       1.142  13.672  21.130  0.00  0.00    +0.000 S 
ATOM     23  C   UNL     1       1.180  15.159  20.165  0.00  0.00    +0.000 C 
ATOM     24  O   UNL     1       0.436  13.947  22.366  0.00  0.00    +0.000 OA
ATOM     25  O   UNL     1       2.492  13.141  21.160  0.00  0.00    +0.000 OA
ENDBRANCH  21  22
ENDBRANCH  20  21
ENDBRANCH  17  20
ENDBRANCH   4  17
TORSDOF 7
ENDMDL
MODEL 9
REMARK VINA RESULT:      -6.5      2.358      3.048
REMARK  Name = 
REMARK  12 active torsions:
REMARK  status: ('A' for Active; 'I' for Inactive)
REMARK    1  A    between atoms: C_1  and  C_2
REMARK    2  A    between atoms: C_2  and  C_3
REMARK    3  A    between atoms: C_6  and  C_7
REMARK    4  A    between atoms: C_7  and  C_8
REMARK    5  A    between atoms: C_9  and  N_10
REMARK    6  A    between atoms: N_13  and  C_14
REMARK    7  A    between atoms: C_14  and  C_15
REMARK    8  A    between atoms: C_14  and  C_16
REMARK    9  A    between atoms: C_14  and  C_17
REMARK   10  A    between atoms: C_17  and  C_18
REMARK   11  A    between atoms: C_18  and  S_19
REMARK   12  A    between atoms: S_19  and  C_20
REMARK                            x       y       z     vdW  Elec       q    Type
REMARK                         _______ _______ _______ _____ _____    ______ ____
ROOT
ATOM      1  N   UNL     1       2.542   7.037  19.621  0.00  0.00    +0.000 N 
ATOM      2  C   UNL     1       1.881   8.138  19.145  0.00  0.00    +0.000 C 
ATOM      3  O   UNL     1       1.684   8.346  17.938  0.00  0.00    +0.000 OA
ATOM      4  N   UNL     1       1.398   8.996  20.132  0.00  0.00    +0.000 N 
ATOM      5  H   UNL     1       2.403   6.794  20.587  0.00  0.00    +0.000 HD
ATOM      6  H   UNL     1       1.827   8.922  21.045  0.00  0.00    +0.000 HD
ENDROOT
BRANCH   1  11
ATOM      7  C   UNL     1       4.665   5.471  16.991  0.00  0.00    +0.000 A 
ATOM      8  C   UNL     1       4.191   4.162  16.962  0.00  0.00    +0.000 A 
ATOM      9  C   UNL     1       3.159   3.776  17.828  0.00  0.00    +0.000 A 
ATOM     10  C   UNL     1       2.569   4.677  18.746  0.00  0.00    +0.000 A 
ATOM     11  C   UNL     1       3.021   6.025  18.734  0.00  0.00    +0.000 A 
ATOM     12  C   UNL     1       4.063   6.390  17.859  0.00  0.00    +0.000 A 
BRANCH   7  14
ATOM     13  C   UNL     1       7.083   6.127  16.903  0.00  0.00    +0.000 C 
ATOM     14  C   UNL     1       5.802   5.922  16.110  0.00  0.00    +0.000 C 
ENDBRANCH   7  14
BRANCH  10  15
ATOM     15  C   UNL     1       1.535   4.115  19.691  0.00  0.00    +0.000 C 
ATOM     16  C   UNL     1       0.747   2.884  19.219  0.00  0.00    +0.000 C 
ENDBRANCH  10  15
ENDBRANCH   1  11
BRANCH   4  17
ATOM     17  C   UNL     1       0.687  10.265  19.804  0.00  0.00    +0.000 C 
ATOM     18  C   UNL     1       0.588  11.160  21.066  0.00  0.00    +0.000 C 
ATOM     19  C   UNL     1       1.466  11.011  18.695  0.00  0.00    +0.000 C 
BRANCH  17  20
ATOM     20  C   UNL     1      -0.764   9.958  19.314  0.00  0.00    +0.000 C 
BRANCH  20  21
ATOM     21  C   UNL     1      -1.054  10.439  17.893  0.00  0.00    +0.000 C 
BRANCH  21  22
ATOM     22  S   UNL     1      -2.780  10.571  17.492  0.00  0.00    +0.000 S 
ATOM     23  C   UNL     1      -2.811  10.878  15.745  0.00  0.00    +0.000 C 
ATOM     24  O   UNL     1      -3.403   9.286  17.741  0.00  0.00    +0.000 OA
ATOM     25  O   UNL     1      -3.275  11.766  18.150  0.00  0.00    +0.000 OA
ENDBRANCH  21  22
ENDBRANCH  20  21
ENDBRANCH  17  20
ENDBRANCH   4  17
TORSDOF 7
ENDMDL
