MODEL 1
REMARK VINA RESULT:      -7.4      0.000      0.000
REMARK  Name = 
REMARK  5 active torsions:
REMARK  status: ('A' for Active; 'I' for Inactive)
REMARK    1  A    between atoms: C_2  and  C_3
REMARK    2  A    between atoms: C_11  and  C_12
REMARK    3  A    between atoms: C_14  and  O_15
REMARK    4  A    between atoms: N_19  and  C_20
REMARK    5  A    between atoms: C_20  and  C_21
REMARK                            x       y       z     vdW  Elec       q    Type
REMARK                         _______ _______ _______ _____ _____    ______ ____
ROOT
ATOM      1  C   UNL     1       4.772  15.782  18.256  0.00  0.00    +0.000 A 
ATOM      2  N   UNL     1       4.906  16.994  18.850  0.00  0.00    +0.000 NA
ATOM      3  C   UNL     1       6.115  17.335  19.322  0.00  0.00    +0.000 A 
ATOM      4  C   UNL     1       7.194  16.478  19.204  0.00  0.00    +0.000 A 
ATOM      5  N   UNL     1       8.494  16.530  19.605  0.00  0.00    +0.000 NA
ATOM      6  N   UNL     1       9.064  15.380  19.275  0.00  0.00    +0.000 NA
ATOM      7  N   UNL     1       8.162  14.652  18.573  0.00  0.00    +0.000 N 
ATOM      8  C   UNL     1       6.940  15.278  18.562  0.00  0.00    +0.000 A 
ATOM      9  N   UNL     1       5.755  14.863  18.071  0.00  0.00    +0.000 NA
ENDROOT
BRANCH   1  15
ATOM     10  O   UNL     1      -0.178  14.521  21.115  0.00  0.00    +0.000 OA
ATOM     11  C   UNL     1       0.465  13.787  20.359  0.00  0.00    +0.000 C 
ATOM     12  N   UNL     1       1.510  14.314  19.579  0.00  0.00    +0.000 N 
ATOM     13  C   UNL     1       1.788  15.746  19.687  0.00  0.00    +0.000 C 
ATOM     14  C   UNL     1       2.273  16.323  18.360  0.00  0.00    +0.000 C 
ATOM     15  C   UNL     1       3.386  15.500  17.700  0.00  0.00    +0.000 C 
ATOM     16  C   UNL     1       3.070  14.000  17.713  0.00  0.00    +0.000 C 
ATOM     17  C   UNL     1       2.637  13.519  19.091  0.00  0.00    +0.000 C 
BRANCH  11  18
ATOM     18  C   UNL     1       0.151  12.369  20.214  0.00  0.00    +0.000 A 
ATOM     19  C   UNL     1      -0.049  11.612  19.070  0.00  0.00    +0.000 A 
ATOM     20  C   UNL     1      -0.269  10.233  19.355  0.00  0.00    +0.000 A 
ATOM     21  C   UNL     1      -0.332   9.996  20.709  0.00  0.00    +0.000 A 
ATOM     22  S   UNL     1      -0.088  11.420  21.624  0.00  0.00    +0.000 S 
ENDBRANCH  11  18
ENDBRANCH   1  15
BRANCH   3  23
ATOM     23  O   UNL     1       6.176  18.560  19.922  0.00  0.00    +0.000 OA
ATOM     24  H   UNL     1       7.029  18.502  20.384  0.00  0.00    +0.000 HD
ENDBRANCH   3  23
BRANCH   7  25
ATOM     25  C   UNL     1       8.507  13.299  18.159  0.00  0.00    +0.000 C 
BRANCH  25  26
ATOM     26  C   UNL     1       9.825  12.778  18.701  0.00  0.00    +0.000 A 
ATOM     27  C   UNL     1      11.030  12.862  17.969  0.00  0.00    +0.000 A 
ATOM     28 CL   UNL     1      11.134  13.565  16.394  0.00  0.00    +0.000 Cl
ATOM     29  C   UNL     1      12.251  12.434  18.509  0.00  0.00    +0.000 A 
ATOM     30  C   UNL     1      12.315  11.946  19.807  0.00  0.00    +0.000 A 
ATOM     31  C   UNL     1      11.152  11.878  20.562  0.00  0.00    +0.000 A 
ATOM     32  C   UNL     1       9.923  12.280  20.018  0.00  0.00    +0.000 A 
ATOM     33 CL   UNL     1       8.557  12.169  21.075  0.00  0.00    +0.000 Cl
ENDBRANCH  25  26
ENDBRANCH   7  25
TORSDOF 5
ENDMDL
MODEL 2
REMARK VINA RESULT:      -7.1      9.156     11.995
REMARK  Name = 
REMARK  5 active torsions:
REMARK  status: ('A' for Active; 'I' for Inactive)
REMARK    1  A    between atoms: C_2  and  C_3
REMARK    2  A    between atoms: C_11  and  C_12
REMARK    3  A    between atoms: C_14  and  O_15
REMARK    4  A    between atoms: N_19  and  C_20
REMARK    5  A    between atoms: C_20  and  C_21
REMARK                            x       y       z     vdW  Elec       q    Type
REMARK                         _______ _______ _______ _____ _____    ______ ____
ROOT
ATOM      1  C   UNL     1      -1.750  11.967  19.801  0.00  0.00    +0.000 A 
ATOM      2  N   UNL     1      -0.933  11.092  19.163  0.00  0.00    +0.000 NA
ATOM      3  C   UNL     1      -1.376  10.525  18.031  0.00  0.00    +0.000 A 
ATOM      4  C   UNL     1      -2.627  10.827  17.525  0.00  0.00    +0.000 A 
ATOM      5  N   UNL     1      -3.344  10.398  16.449  0.00  0.00    +0.000 NA
ATOM      6  N   UNL     1      -4.530  10.989  16.494  0.00  0.00    +0.000 NA
ATOM      7  N   UNL     1      -4.523  11.866  17.527  0.00  0.00    +0.000 N 
ATOM      8  C   UNL     1      -3.363  11.749  18.252  0.00  0.00    +0.000 A 
ATOM      9  N   UNL     1      -2.989  12.351  19.399  0.00  0.00    +0.000 NA
ENDROOT
BRANCH   1  15
ATOM     10  O   UNL     1      -4.144  12.768  25.082  0.00  0.00    +0.000 OA
ATOM     11  C   UNL     1      -3.812  13.631  24.265  0.00  0.00    +0.000 C 
ATOM     12  N   UNL     1      -3.047  13.283  23.137  0.00  0.00    +0.000 N 
ATOM     13  C   UNL     1      -2.657  11.882  22.983  0.00  0.00    +0.000 C 
ATOM     14  C   UNL     1      -1.293  11.752  22.309  0.00  0.00    +0.000 C 
ATOM     15  C   UNL     1      -1.148  12.604  21.043  0.00  0.00    +0.000 C 
ATOM     16  C   UNL     1      -1.669  14.030  21.252  0.00  0.00    +0.000 C 
ATOM     17  C   UNL     1      -3.052  14.046  21.889  0.00  0.00    +0.000 C 
BRANCH  11  18
ATOM     18  C   UNL     1      -4.157  15.037  24.450  0.00  0.00    +0.000 A 
ATOM     19  C   UNL     1      -5.340  15.709  24.184  0.00  0.00    +0.000 A 
ATOM     20  C   UNL     1      -5.294  17.079  24.572  0.00  0.00    +0.000 A 
ATOM     21  C   UNL     1      -4.047  17.438  25.028  0.00  0.00    +0.000 A 
ATOM     22  S   UNL     1      -2.955  16.121  25.023  0.00  0.00    +0.000 S 
ENDBRANCH  11  18
ENDBRANCH   1  15
BRANCH   3  23
ATOM     23  O   UNL     1      -0.511   9.643  17.450  0.00  0.00    +0.000 OA
ATOM     24  H   UNL     1       0.085   9.448  18.193  0.00  0.00    +0.000 HD
ENDBRANCH   3  23
BRANCH   7  25
ATOM     25  C   UNL     1      -5.743  12.591  17.853  0.00  0.00    +0.000 C 
BRANCH  25  26
ATOM     26  C   UNL     1      -6.195  12.471  19.297  0.00  0.00    +0.000 A 
ATOM     27  C   UNL     1      -6.231  13.579  20.172  0.00  0.00    +0.000 A 
ATOM     28 CL   UNL     1      -5.772  15.176  19.698  0.00  0.00    +0.000 Cl
ATOM     29  C   UNL     1      -6.712  13.465  21.485  0.00  0.00    +0.000 A 
ATOM     30  C   UNL     1      -7.207  12.255  21.951  0.00  0.00    +0.000 A 
ATOM     31  C   UNL     1      -7.211  11.154  21.104  0.00  0.00    +0.000 A 
ATOM     32  C   UNL     1      -6.708  11.256  19.798  0.00  0.00    +0.000 A 
ATOM     33 CL   UNL     1      -6.798   9.818  18.841  0.00  0.00    +0.000 Cl
ENDBRANCH  25  26
ENDBRANCH   7  25
TORSDOF 5
ENDMDL
MODEL 3
REMARK VINA RESULT:      -6.9      7.596      9.008
REMARK  Name = 
REMARK  5 active torsions:
REMARK  status: ('A' for Active; 'I' for Inactive)
REMARK    1  A    between atoms: C_2  and  C_3
REMARK    2  A    between atoms: C_11  and  C_12
REMARK    3  A    between atoms: C_14  and  O_15
REMARK    4  A    between atoms: N_19  and  C_20
REMARK    5  A    between atoms: C_20  and  C_21
REMARK                            x       y       z     vdW  Elec       q    Type
REMARK                         _______ _______ _______ _____ _____    ______ ____
ROOT
ATOM      1  C   UNL     1      -1.204  12.320  20.114  0.00  0.00    +0.000 A 
ATOM      2  N   UNL     1      -2.245  12.403  19.247  0.00  0.00    +0.000 NA
ATOM      3  C   UNL     1      -2.268  11.555  18.207  0.00  0.00    +0.000 A 
ATOM      4  C   UNL     1      -1.265  10.622  18.026  0.00  0.00    +0.000 A 
ATOM      5  N   UNL     1      -1.005   9.681  17.076  0.00  0.00    +0.000 NA
ATOM      6  N   UNL     1       0.151   9.108  17.381  0.00  0.00    +0.000 NA
ATOM      7  N   UNL     1       0.564   9.606  18.572  0.00  0.00    +0.000 N 
ATOM      8  C   UNL     1      -0.266  10.618  18.986  0.00  0.00    +0.000 A 
ATOM      9  N   UNL     1      -0.170  11.443  20.049  0.00  0.00    +0.000 NA
ENDROOT
BRANCH   1  15
ATOM     10  O   UNL     1      -4.699  12.133  24.806  0.00  0.00    +0.000 OA
ATOM     11  C   UNL     1      -4.695  12.971  23.901  0.00  0.00    +0.000 C 
ATOM     12  N   UNL     1      -3.647  12.998  22.963  0.00  0.00    +0.000 N 
ATOM     13  C   UNL     1      -2.572  12.018  23.113  0.00  0.00    +0.000 C 
ATOM     14  C   UNL     1      -1.230  12.586  22.659  0.00  0.00    +0.000 C 
ATOM     15  C   UNL     1      -1.285  13.278  21.291  0.00  0.00    +0.000 C 
ATOM     16  C   UNL     1      -2.493  14.213  21.173  0.00  0.00    +0.000 C 
ATOM     17  C   UNL     1      -3.785  13.536  21.609  0.00  0.00    +0.000 C 
BRANCH  11  18
ATOM     18  C   UNL     1      -5.742  13.982  23.785  0.00  0.00    +0.000 A 
ATOM     19  C   UNL     1      -5.682  15.355  23.967  0.00  0.00    +0.000 A 
ATOM     20  C   UNL     1      -6.921  16.001  23.690  0.00  0.00    +0.000 A 
ATOM     21  C   UNL     1      -7.916  15.095  23.404  0.00  0.00    +0.000 A 
ATOM     22  S   UNL     1      -7.346  13.483  23.432  0.00  0.00    +0.000 S 
ENDBRANCH  11  18
ENDBRANCH   1  15
BRANCH   3  23
ATOM     23  O   UNL     1      -3.333  11.704  17.366  0.00  0.00    +0.000 OA
ATOM     24  H   UNL     1      -3.720  10.812  17.394  0.00  0.00    +0.000 HD
ENDBRANCH   3  23
BRANCH   7  25
ATOM     25  C   UNL     1       1.860   9.204  19.101  0.00  0.00    +0.000 C 
BRANCH  25  26
ATOM     26  C   UNL     1       2.003   7.722  19.391  0.00  0.00    +0.000 A 
ATOM     27  C   UNL     1       2.814   6.873  18.607  0.00  0.00    +0.000 A 
ATOM     28 CL   UNL     1       3.726   7.425  17.247  0.00  0.00    +0.000 Cl
ATOM     29  C   UNL     1       2.987   5.518  18.926  0.00  0.00    +0.000 A 
ATOM     30  C   UNL     1       2.389   4.979  20.056  0.00  0.00    +0.000 A 
ATOM     31  C   UNL     1       1.608   5.796  20.864  0.00  0.00    +0.000 A 
ATOM     32  C   UNL     1       1.411   7.146  20.536  0.00  0.00    +0.000 A 
ATOM     33 CL   UNL     1       0.440   8.057  21.640  0.00  0.00    +0.000 Cl
ENDBRANCH  25  26
ENDBRANCH   7  25
TORSDOF 5
ENDMDL
MODEL 4
REMARK VINA RESULT:      -6.9      7.550      9.162
REMARK  Name = 
REMARK  5 active torsions:
REMARK  status: ('A' for Active; 'I' for Inactive)
REMARK    1  A    between atoms: C_2  and  C_3
REMARK    2  A    between atoms: C_11  and  C_12
REMARK    3  A    between atoms: C_14  and  O_15
REMARK    4  A    between atoms: N_19  and  C_20
REMARK    5  A    between atoms: C_20  and  C_21
REMARK                            x       y       z     vdW  Elec       q    Type
REMARK                         _______ _______ _______ _____ _____    ______ ____
ROOT
ATOM      1  C   UNL     1      -1.191  12.369  20.349  0.00  0.00    +0.000 A 
ATOM      2  N   UNL     1      -2.241  12.469  19.495  0.00  0.00    +0.000 NA
ATOM      3  C   UNL     1      -2.259  11.664  18.421  0.00  0.00    +0.000 A 
ATOM      4  C   UNL     1      -1.242  10.757  18.193  0.00  0.00    +0.000 A 
ATOM      5  N   UNL     1      -0.974   9.861  17.203  0.00  0.00    +0.000 NA
ATOM      6  N   UNL     1       0.194   9.297  17.474  0.00  0.00    +0.000 NA
ATOM      7  N   UNL     1       0.610   9.753  18.680  0.00  0.00    +0.000 N 
ATOM      8  C   UNL     1      -0.234  10.732  19.143  0.00  0.00    +0.000 A 
ATOM      9  N   UNL     1      -0.142  11.514  20.239  0.00  0.00    +0.000 NA
ENDROOT
BRANCH   1  15
ATOM     10  O   UNL     1      -4.959  12.209  24.825  0.00  0.00    +0.000 OA
ATOM     11  C   UNL     1      -4.848  13.085  23.963  0.00  0.00    +0.000 C 
ATOM     12  N   UNL     1      -3.747  13.083  23.088  0.00  0.00    +0.000 N 
ATOM     13  C   UNL     1      -2.749  12.025  23.248  0.00  0.00    +0.000 C 
ATOM     14  C   UNL     1      -1.349  12.520  22.898  0.00  0.00    +0.000 C 
ATOM     15  C   UNL     1      -1.278  13.275  21.565  0.00  0.00    +0.000 C 
ATOM     16  C   UNL     1      -2.413  14.296  21.426  0.00  0.00    +0.000 C 
ATOM     17  C   UNL     1      -3.769  13.689  21.757  0.00  0.00    +0.000 C 
BRANCH  11  18
ATOM     18  C   UNL     1      -5.817  14.169  23.840  0.00  0.00    +0.000 A 
ATOM     19  C   UNL     1      -5.641  15.541  23.938  0.00  0.00    +0.000 A 
ATOM     20  C   UNL     1      -6.839  16.269  23.684  0.00  0.00    +0.000 A 
ATOM     21  C   UNL     1      -7.915  15.432  23.501  0.00  0.00    +0.000 A 
ATOM     22  S   UNL     1      -7.472  13.783  23.595  0.00  0.00    +0.000 S 
ENDBRANCH  11  18
ENDBRANCH   1  15
BRANCH   3  23
ATOM     23  O   UNL     1      -3.335  11.828  17.596  0.00  0.00    +0.000 OA
ATOM     24  H   UNL     1      -3.455  10.923  17.262  0.00  0.00    +0.000 HD
ENDBRANCH   3  23
BRANCH   7  25
ATOM     25  C   UNL     1       1.917   9.353  19.181  0.00  0.00    +0.000 C 
BRANCH  25  26
ATOM     26  C   UNL     1       2.046   7.884  19.537  0.00  0.00    +0.000 A 
ATOM     27  C   UNL     1       1.354   7.306  20.625  0.00  0.00    +0.000 A 
ATOM     28 CL   UNL     1       0.295   8.200  21.656  0.00  0.00    +0.000 Cl
ATOM     29  C   UNL     1       1.434   5.934  20.903  0.00  0.00    +0.000 A 
ATOM     30  C   UNL     1       2.171   5.090  20.084  0.00  0.00    +0.000 A 
ATOM     31  C   UNL     1       2.839   5.624  18.989  0.00  0.00    +0.000 A 
ATOM     32  C   UNL     1       2.784   7.000  18.721  0.00  0.00    +0.000 A 
ATOM     33 CL   UNL     1       3.638   7.528  17.312  0.00  0.00    +0.000 Cl
ENDBRANCH  25  26
ENDBRANCH   7  25
TORSDOF 5
ENDMDL
MODEL 5
REMARK VINA RESULT:      -6.9      6.225     10.872
REMARK  Name = 
REMARK  5 active torsions:
REMARK  status: ('A' for Active; 'I' for Inactive)
REMARK    1  A    between atoms: C_2  and  C_3
REMARK    2  A    between atoms: C_11  and  C_12
REMARK    3  A    between atoms: C_14  and  O_15
REMARK    4  A    between atoms: N_19  and  C_20
REMARK    5  A    between atoms: C_20  and  C_21
REMARK                            x       y       z     vdW  Elec       q    Type
REMARK                         _______ _______ _______ _____ _____    ______ ____
ROOT
ATOM      1  C   UNL     1      -3.284  11.666  18.655  0.00  0.00    +0.000 A 
ATOM      2  N   UNL     1      -4.223  11.640  17.676  0.00  0.00    +0.000 NA
ATOM      3  C   UNL     1      -5.461  12.060  17.979  0.00  0.00    +0.000 A 
ATOM      4  C   UNL     1      -5.770  12.511  19.248  0.00  0.00    +0.000 A 
ATOM      5  N   UNL     1      -6.912  12.953  19.846  0.00  0.00    +0.000 NA
ATOM      6  N   UNL     1      -6.633  13.193  21.119  0.00  0.00    +0.000 NA
ATOM      7  N   UNL     1      -5.302  13.010  21.299  0.00  0.00    +0.000 N 
ATOM      8  C   UNL     1      -4.725  12.510  20.157  0.00  0.00    +0.000 A 
ATOM      9  N   UNL     1      -3.462  12.095  19.931  0.00  0.00    +0.000 NA
ENDROOT
BRANCH   1  15
ATOM     10  O   UNL     1       1.895  12.624  21.210  0.00  0.00    +0.000 OA
ATOM     11  C   UNL     1       1.496  13.058  20.126  0.00  0.00    +0.000 C 
ATOM     12  N   UNL     1       0.315  12.556  19.552  0.00  0.00    +0.000 N 
ATOM     13  C   UNL     1      -0.401  11.504  20.273  0.00  0.00    +0.000 C 
ATOM     14  C   UNL     1      -1.085  10.534  19.313  0.00  0.00    +0.000 C 
ATOM     15  C   UNL     1      -1.898  11.227  18.213  0.00  0.00    +0.000 C 
ATOM     16  C   UNL     1      -1.120  12.382  17.571  0.00  0.00    +0.000 C 
ATOM     17  C   UNL     1      -0.515  13.312  18.614  0.00  0.00    +0.000 C 
BRANCH  11  18
ATOM     18  C   UNL     1       2.241  14.070  19.383  0.00  0.00    +0.000 A 
ATOM     19  C   UNL     1       3.113  13.932  18.315  0.00  0.00    +0.000 A 
ATOM     20  C   UNL     1       3.585  15.184  17.825  0.00  0.00    +0.000 A 
ATOM     21  C   UNL     1       3.141  16.234  18.595  0.00  0.00    +0.000 A 
ATOM     22  S   UNL     1       2.132  15.712  19.874  0.00  0.00    +0.000 S 
ENDBRANCH  11  18
ENDBRANCH   1  15
BRANCH   3  23
ATOM     23  O   UNL     1      -6.359  11.992  16.953  0.00  0.00    +0.000 OA
ATOM     24  H   UNL     1      -5.774  12.087  16.183  0.00  0.00    +0.000 HD
ENDBRANCH   3  23
BRANCH   7  25
ATOM     25  C   UNL     1      -4.742  13.128  22.638  0.00  0.00    +0.000 C 
BRANCH  25  26
ATOM     26  C   UNL     1      -3.417  13.863  22.717  0.00  0.00    +0.000 A 
ATOM     27  C   UNL     1      -2.203  13.203  23.010  0.00  0.00    +0.000 A 
ATOM     28 CL   UNL     1      -2.095  11.505  23.304  0.00  0.00    +0.000 Cl
ATOM     29  C   UNL     1      -0.977  13.886  23.016  0.00  0.00    +0.000 A 
ATOM     30  C   UNL     1      -0.919  15.234  22.693  0.00  0.00    +0.000 A 
ATOM     31  C   UNL     1      -2.093  15.904  22.371  0.00  0.00    +0.000 A 
ATOM     32  C   UNL     1      -3.326  15.233  22.388  0.00  0.00    +0.000 A 
ATOM     33 CL   UNL     1      -4.705  16.177  21.942  0.00  0.00    +0.000 Cl
ENDBRANCH  25  26
ENDBRANCH   7  25
TORSDOF 5
ENDMDL
MODEL 6
REMARK VINA RESULT:      -6.9      6.204     10.913
REMARK  Name = 
REMARK  5 active torsions:
REMARK  status: ('A' for Active; 'I' for Inactive)
REMARK    1  A    between atoms: C_2  and  C_3
REMARK    2  A    between atoms: C_11  and  C_12
REMARK    3  A    between atoms: C_14  and  O_15
REMARK    4  A    between atoms: N_19  and  C_20
REMARK    5  A    between atoms: C_20  and  C_21
REMARK                            x       y       z     vdW  Elec       q    Type
REMARK                         _______ _______ _______ _____ _____    ______ ____
ROOT
ATOM      1  C   UNL     1      -3.058  11.728  18.821  0.00  0.00    +0.000 A 
ATOM      2  N   UNL     1      -3.911  11.696  17.767  0.00  0.00    +0.000 NA
ATOM      3  C   UNL     1      -5.176  12.097  17.967  0.00  0.00    +0.000 A 
ATOM      4  C   UNL     1      -5.597  12.535  19.209  0.00  0.00    +0.000 A 
ATOM      5  N   UNL     1      -6.790  12.957  19.711  0.00  0.00    +0.000 NA
ATOM      6  N   UNL     1      -6.622  13.192  21.005  0.00  0.00    +0.000 NA
ATOM      7  N   UNL     1      -5.309  13.025  21.294  0.00  0.00    +0.000 N 
ATOM      8  C   UNL     1      -4.631  12.542  20.202  0.00  0.00    +0.000 A 
ATOM      9  N   UNL     1      -3.348  12.146  20.080  0.00  0.00    +0.000 NA
ENDROOT
BRANCH   1  15
ATOM     10  O   UNL     1       1.965  13.462  21.277  0.00  0.00    +0.000 OA
ATOM     11  C   UNL     1       1.576  13.672  20.125  0.00  0.00    +0.000 C 
ATOM     12  N   UNL     1       0.448  12.999  19.623  0.00  0.00    +0.000 N 
ATOM     13  C   UNL     1      -0.225  12.045  20.504  0.00  0.00    +0.000 C 
ATOM     14  C   UNL     1      -0.817  10.878  19.717  0.00  0.00    +0.000 C 
ATOM     15  C   UNL     1      -1.633  11.311  18.494  0.00  0.00    +0.000 C 
ATOM     16  C   UNL     1      -0.908  12.385  17.675  0.00  0.00    +0.000 C 
ATOM     17  C   UNL     1      -0.396  13.521  18.548  0.00  0.00    +0.000 C 
BRANCH  11  18
ATOM     18  C   UNL     1       2.281  14.585  19.230  0.00  0.00    +0.000 A 
ATOM     19  C   UNL     1       3.170  14.318  18.201  0.00  0.00    +0.000 A 
ATOM     20  C   UNL     1       3.589  15.495  17.517  0.00  0.00    +0.000 A 
ATOM     21  C   UNL     1       3.089  16.633  18.106  0.00  0.00    +0.000 A 
ATOM     22  S   UNL     1       2.091  16.277  19.449  0.00  0.00    +0.000 S 
ENDBRANCH  11  18
ENDBRANCH   1  15
BRANCH   3  23
ATOM     23  O   UNL     1      -5.985  12.023  16.870  0.00  0.00    +0.000 OA
ATOM     24  H   UNL     1      -6.125  12.966  16.675  0.00  0.00    +0.000 HD
ENDBRANCH   3  23
BRANCH   7  25
ATOM     25  C   UNL     1      -4.864  13.142  22.676  0.00  0.00    +0.000 C 
BRANCH  25  26
ATOM     26  C   UNL     1      -3.581  13.927  22.873  0.00  0.00    +0.000 A 
ATOM     27  C   UNL     1      -3.541  15.337  22.813  0.00  0.00    +0.000 A 
ATOM     28 CL   UNL     1      -4.935  16.313  22.515  0.00  0.00    +0.000 Cl
ATOM     29  C   UNL     1      -2.359  16.052  23.061  0.00  0.00    +0.000 A 
ATOM     30  C   UNL     1      -1.194  15.386  23.414  0.00  0.00    +0.000 A 
ATOM     31  C   UNL     1      -1.209  14.000  23.510  0.00  0.00    +0.000 A 
ATOM     32  C   UNL     1      -2.381  13.278  23.238  0.00  0.00    +0.000 A 
ATOM     33 CL   UNL     1      -2.270  11.562  23.421  0.00  0.00    +0.000 Cl
ENDBRANCH  25  26
ENDBRANCH   7  25
TORSDOF 5
ENDMDL
MODEL 7
REMARK VINA RESULT:      -6.9      7.125      8.500
REMARK  Name = 
REMARK  5 active torsions:
REMARK  status: ('A' for Active; 'I' for Inactive)
REMARK    1  A    between atoms: C_2  and  C_3
REMARK    2  A    between atoms: C_11  and  C_12
REMARK    3  A    between atoms: C_14  and  O_15
REMARK    4  A    between atoms: N_19  and  C_20
REMARK    5  A    between atoms: C_20  and  C_21
REMARK                            x       y       z     vdW  Elec       q    Type
REMARK                         _______ _______ _______ _____ _____    ______ ____
ROOT
ATOM      1  C   UNL     1       0.210  10.331  19.256  0.00  0.00    +0.000 A 
ATOM      2  N   UNL     1      -0.129  10.157  20.558  0.00  0.00    +0.000 NA
ATOM      3  C   UNL     1       0.417   9.125  21.220  0.00  0.00    +0.000 A 
ATOM      4  C   UNL     1       1.301   8.266  20.595  0.00  0.00    +0.000 A 
ATOM      5  N   UNL     1       1.968   7.144  20.985  0.00  0.00    +0.000 NA
ATOM      6  N   UNL     1       2.636   6.687  19.934  0.00  0.00    +0.000 NA
ATOM      7  N   UNL     1       2.479   7.573  18.921  0.00  0.00    +0.000 N 
ATOM      8  C   UNL     1       1.586   8.555  19.271  0.00  0.00    +0.000 A 
ATOM      9  N   UNL     1       1.071   9.564  18.539  0.00  0.00    +0.000 NA
ENDROOT
BRANCH   1  15
ATOM     10  O   UNL     1      -4.144  13.751  21.156  0.00  0.00    +0.000 OA
ATOM     11  C   UNL     1      -4.143  13.007  20.172  0.00  0.00    +0.000 C 
ATOM     12  N   UNL     1      -2.944  12.423  19.725  0.00  0.00    +0.000 N 
ATOM     13  C   UNL     1      -1.717  12.740  20.454  0.00  0.00    +0.000 C 
ATOM     14  C   UNL     1      -0.507  12.773  19.525  0.00  0.00    +0.000 C 
ATOM     15  C   UNL     1      -0.408  11.554  18.599  0.00  0.00    +0.000 C 
ATOM     16  C   UNL     1      -1.756  11.222  17.949  0.00  0.00    +0.000 C 
ATOM     17  C   UNL     1      -2.886  11.173  18.967  0.00  0.00    +0.000 C 
BRANCH  11  18
ATOM     18  C   UNL     1      -5.360  12.734  19.414  0.00  0.00    +0.000 A 
ATOM     19  C   UNL     1      -5.762  13.199  18.172  0.00  0.00    +0.000 A 
ATOM     20  C   UNL     1      -7.001  12.637  17.748  0.00  0.00    +0.000 A 
ATOM     21  C   UNL     1      -7.558  11.839  18.720  0.00  0.00    +0.000 A 
ATOM     22  S   UNL     1      -6.573  11.741  20.115  0.00  0.00    +0.000 S 
ENDBRANCH  11  18
ENDBRANCH   1  15
BRANCH   3  23
ATOM     23  O   UNL     1       0.021   9.000  22.520  0.00  0.00    +0.000 OA
ATOM     24  H   UNL     1       0.874   9.059  22.983  0.00  0.00    +0.000 HD
ENDBRANCH   3  23
BRANCH   7  25
ATOM     25  C   UNL     1       3.046   7.267  17.614  0.00  0.00    +0.000 C 
BRANCH  25  26
ATOM     26  C   UNL     1       3.744   5.924  17.516  0.00  0.00    +0.000 A 
ATOM     27  C   UNL     1       3.035   4.703  17.496  0.00  0.00    +0.000 A 
ATOM     28 CL   UNL     1       1.312   4.607  17.577  0.00  0.00    +0.000 Cl
ATOM     29  C   UNL     1       3.691   3.473  17.340  0.00  0.00    +0.000 A 
ATOM     30  C   UNL     1       5.066   3.425  17.160  0.00  0.00    +0.000 A 
ATOM     31  C   UNL     1       5.788   4.612  17.146  0.00  0.00    +0.000 A 
ATOM     32  C   UNL     1       5.141   5.844  17.327  0.00  0.00    +0.000 A 
ATOM     33 CL   UNL     1       6.153   7.245  17.261  0.00  0.00    +0.000 Cl
ENDBRANCH  25  26
ENDBRANCH   7  25
TORSDOF 5
ENDMDL
MODEL 8
REMARK VINA RESULT:      -6.9      6.062      9.248
REMARK  Name = 
REMARK  5 active torsions:
REMARK  status: ('A' for Active; 'I' for Inactive)
REMARK    1  A    between atoms: C_2  and  C_3
REMARK    2  A    between atoms: C_11  and  C_12
REMARK    3  A    between atoms: C_14  and  O_15
REMARK    4  A    between atoms: N_19  and  C_20
REMARK    5  A    between atoms: C_20  and  C_21
REMARK                            x       y       z     vdW  Elec       q    Type
REMARK                         _______ _______ _______ _____ _____    ______ ____
ROOT
ATOM      1  C   UNL     1       0.912  11.406  19.130  0.00  0.00    +0.000 A 
ATOM      2  N   UNL     1       1.935  11.764  18.313  0.00  0.00    +0.000 NA
ATOM      3  C   UNL     1       2.585  12.907  18.580  0.00  0.00    +0.000 A 
ATOM      4  C   UNL     1       2.227  13.696  19.657  0.00  0.00    +0.000 A 
ATOM      5  N   UNL     1       2.663  14.891  20.145  0.00  0.00    +0.000 NA
ATOM      6  N   UNL     1       1.897  15.207  21.179  0.00  0.00    +0.000 NA
ATOM      7  N   UNL     1       1.056  14.171  21.412  0.00  0.00    +0.000 N 
ATOM      8  C   UNL     1       1.181  13.219  20.430  0.00  0.00    +0.000 A 
ATOM      9  N   UNL     1       0.476  12.088  20.220  0.00  0.00    +0.000 NA
ENDROOT
BRANCH   1  15
ATOM     10  O   UNL     1       2.148   6.068  21.187  0.00  0.00    +0.000 OA
ATOM     11  C   UNL     1       2.299   6.486  20.036  0.00  0.00    +0.000 C 
ATOM     12  N   UNL     1       1.747   7.722  19.653  0.00  0.00    +0.000 N 
ATOM     13  C   UNL     1       0.987   8.470  20.654  0.00  0.00    +0.000 C 
ATOM     14  C   UNL     1      -0.155   9.257  20.017  0.00  0.00    +0.000 C 
ATOM     15  C   UNL     1       0.269  10.072  18.789  0.00  0.00    +0.000 C 
ATOM     16  C   UNL     1       1.145   9.253  17.835  0.00  0.00    +0.000 C 
ATOM     17  C   UNL     1       2.277   8.544  18.565  0.00  0.00    +0.000 C 
BRANCH  11  18
ATOM     18  C   UNL     1       3.012   5.714  19.024  0.00  0.00    +0.000 A 
ATOM     19  C   UNL     1       2.540   5.087  17.882  0.00  0.00    +0.000 A 
ATOM     20  C   UNL     1       3.580   4.488  17.113  0.00  0.00    +0.000 A 
ATOM     21  C   UNL     1       4.800   4.587  17.741  0.00  0.00    +0.000 A 
ATOM     22  S   UNL     1       4.694   5.429  19.226  0.00  0.00    +0.000 S 
ENDBRANCH  11  18
ENDBRANCH   1  15
BRANCH   3  23
ATOM     23  O   UNL     1       3.591  13.215  17.710  0.00  0.00    +0.000 OA
ATOM     24  H   UNL     1       3.223  13.998  17.266  0.00  0.00    +0.000 HD
ENDBRANCH   3  23
BRANCH   7  25
ATOM     25  C   UNL     1       0.043  14.295  22.450  0.00  0.00    +0.000 C 
BRANCH  25  26
ATOM     26  C   UNL     1      -1.388  14.133  21.973  0.00  0.00    +0.000 A 
ATOM     27  C   UNL     1      -2.140  12.964  22.221  0.00  0.00    +0.000 A 
ATOM     28 CL   UNL     1      -1.519  11.605  23.089  0.00  0.00    +0.000 Cl
ATOM     29  C   UNL     1      -3.483  12.855  21.830  0.00  0.00    +0.000 A 
ATOM     30  C   UNL     1      -4.126  13.920  21.216  0.00  0.00    +0.000 A 
ATOM     31  C   UNL     1      -3.421  15.094  20.985  0.00  0.00    +0.000 A 
ATOM     32  C   UNL     1      -2.071  15.200  21.351  0.00  0.00    +0.000 A 
ATOM     33 CL   UNL     1      -1.320  16.726  21.031  0.00  0.00    +0.000 Cl
ENDBRANCH  25  26
ENDBRANCH   7  25
TORSDOF 5
ENDMDL
MODEL 9
REMARK VINA RESULT:      -6.9      1.317      1.572
REMARK  Name = 
REMARK  5 active torsions:
REMARK  status: ('A' for Active; 'I' for Inactive)
REMARK    1  A    between atoms: C_2  and  C_3
REMARK    2  A    between atoms: C_11  and  C_12
REMARK    3  A    between atoms: C_14  and  O_15
REMARK    4  A    between atoms: N_19  and  C_20
REMARK    5  A    between atoms: C_20  and  C_21
REMARK                            x       y       z     vdW  Elec       q    Type
REMARK                         _______ _______ _______ _____ _____    ______ ____
ROOT
ATOM      1  C   UNL     1       5.012  15.854  18.625  0.00  0.00    +0.000 A 
ATOM      2  N   UNL     1       4.710  16.589  19.725  0.00  0.00    +0.000 NA
ATOM      3  C   UNL     1       5.721  17.016  20.495  0.00  0.00    +0.000 A 
ATOM      4  C   UNL     1       7.034  16.720  20.177  0.00  0.00    +0.000 A 
ATOM      5  N   UNL     1       8.234  16.977  20.768  0.00  0.00    +0.000 NA
ATOM      6  N   UNL     1       9.174  16.386  20.044  0.00  0.00    +0.000 NA
ATOM      7  N   UNL     1       8.585  15.854  18.946  0.00  0.00    +0.000 N 
ATOM      8  C   UNL     1       7.220  15.981  19.020  0.00  0.00    +0.000 A 
ATOM      9  N   UNL     1       6.256  15.509  18.204  0.00  0.00    +0.000 NA
ENDROOT
BRANCH   1  15
ATOM     10  O   UNL     1      -0.503  14.802  20.282  0.00  0.00    +0.000 OA
ATOM     11  C   UNL     1       0.311  14.000  19.815  0.00  0.00    +0.000 C 
ATOM     12  N   UNL     1       1.520  14.459  19.261  0.00  0.00    +0.000 N 
ATOM     13  C   UNL     1       1.762  15.901  19.249  0.00  0.00    +0.000 C 
ATOM     14  C   UNL     1       2.569  16.322  18.024  0.00  0.00    +0.000 C 
ATOM     15  C   UNL     1       3.813  15.459  17.779  0.00  0.00    +0.000 C 
ATOM     16  C   UNL     1       3.503  13.963  17.907  0.00  0.00    +0.000 C 
ATOM     17  C   UNL     1       2.734  13.646  19.182  0.00  0.00    +0.000 C 
BRANCH  11  18
ATOM     18  C   UNL     1       0.043  12.566  19.780  0.00  0.00    +0.000 A 
ATOM     19  C   UNL     1      -0.275  11.742  18.712  0.00  0.00    +0.000 A 
ATOM     20  C   UNL     1      -0.393  10.374  19.089  0.00  0.00    +0.000 A 
ATOM     21  C   UNL     1      -0.263  10.206  20.448  0.00  0.00    +0.000 A 
ATOM     22  S   UNL     1       0.039  11.684  21.254  0.00  0.00    +0.000 S 
ENDBRANCH  11  18
ENDBRANCH   1  15
BRANCH   3  23
ATOM     23  O   UNL     1       5.346  17.735  21.593  0.00  0.00    +0.000 OA
ATOM     24  H   UNL     1       4.467  17.359  21.773  0.00  0.00    +0.000 HD
ENDBRANCH   3  23
BRANCH   7  25
ATOM     25  C   UNL     1       9.387  15.069  18.018  0.00  0.00    +0.000 C 
BRANCH  25  26
ATOM     26  C   UNL     1       9.699  13.656  18.475  0.00  0.00    +0.000 A 
ATOM     27  C   UNL     1       8.924  12.544  18.079  0.00  0.00    +0.000 A 
ATOM     28 CL   UNL     1       7.552  12.669  17.037  0.00  0.00    +0.000 Cl
ATOM     29  C   UNL     1       9.264  11.237  18.458  0.00  0.00    +0.000 A 
ATOM     30  C   UNL     1      10.405  10.995  19.210  0.00  0.00    +0.000 A 
ATOM     31  C   UNL     1      11.204  12.066  19.591  0.00  0.00    +0.000 A 
ATOM     32  C   UNL     1      10.856  13.378  19.236  0.00  0.00    +0.000 A 
ATOM     33 CL   UNL     1      11.951  14.615  19.750  0.00  0.00    +0.000 Cl
ENDBRANCH  25  26
ENDBRANCH   7  25
TORSDOF 5
ENDMDL
