MODEL 1
REMARK VINA RESULT:      -6.4      0.000      0.000
REMARK  Name = 
REMARK  6 active torsions:
REMARK  status: ('A' for Active; 'I' for Inactive)
REMARK    1  A    between atoms: C_1  and  O_2
REMARK    2  A    between atoms: O_2  and  C_3
REMARK    3  A    between atoms: C_8  and  O_9
REMARK    4  A    between atoms: O_9  and  C_10
REMARK    5  A    between atoms: C_16  and  O_17
REMARK    6  A    between atoms: N_22  and  C_23
REMARK                            x       y       z     vdW  Elec       q    Type
REMARK                         _______ _______ _______ _____ _____    ______ ____
ROOT
ATOM      1  C   UNL     1       6.286   6.544  17.531  0.00  0.00    +0.000 A 
ATOM      2  C   UNL     1       5.331   7.212  16.732  0.00  0.00    +0.000 A 
ATOM      3  C   UNL     1       4.004   6.818  16.754  0.00  0.00    +0.000 A 
ATOM      4  C   UNL     1       3.642   5.696  17.497  0.00  0.00    +0.000 A 
ATOM      5  C   UNL     1       4.617   4.839  18.061  0.00  0.00    +0.000 A 
ATOM      6  C   UNL     1       5.944   5.331  18.179  0.00  0.00    +0.000 A 
ATOM      7  C   UNL     1       4.005   3.569  18.698  0.00  0.00    +0.000 C 
ATOM      8  C   UNL     1       3.473   2.664  17.510  0.00  0.00    +0.000 C 
ATOM      9  C   UNL     1       2.440   1.634  18.000  0.00  0.00    +0.000 C 
ATOM     10  C   UNL     1       1.252   2.391  18.472  0.00  0.00    +0.000 C 
ATOM     11  O   UNL     1       0.155   2.123  17.997  0.00  0.00    +0.000 OA
ATOM     12  C   UNL     1       1.455   3.755  19.075  0.00  0.00    +0.000 C 
ATOM     13  O   UNL     1       1.359   4.657  17.963  0.00  0.00    +0.000 OA
ATOM     14  C   UNL     1       2.261   5.727  18.202  0.00  0.00    +0.000 C 
ATOM     15  C   UNL     1       2.656   5.599  19.676  0.00  0.00    +0.000 C 
ATOM     16  C   UNL     1       2.868   4.080  19.689  0.00  0.00    +0.000 C 
ATOM     17  N   UNL     1       3.349   3.653  21.022  0.00  0.00    +0.000 NA
ATOM     18  C   UNL     1       2.491   3.666  22.204  0.00  0.00    +0.000 C 
ATOM     19  C   UNL     1       4.153   2.450  20.878  0.00  0.00    +0.000 C 
ATOM     20  C   UNL     1       4.877   2.606  19.561  0.00  0.00    +0.000 C 
ENDROOT
BRANCH   1  22
ATOM     21  C   UNL     1       7.909   8.364  17.779  0.00  0.00    +0.000 C 
ATOM     22  O   UNL     1       7.523   7.047  17.731  0.00  0.00    +0.000 OA
ENDBRANCH   1  22
BRANCH   6  23
ATOM     23  O   UNL     1       6.818   4.675  18.981  0.00  0.00    +0.000 OA
ATOM     24  C   UNL     1       7.692   5.154  19.938  0.00  0.00    +0.000 C 
ENDBRANCH   6  23
BRANCH  12  25
ATOM     25  O   UNL     1       0.406   4.031  19.980  0.00  0.00    +0.000 OA
ATOM     26  H   UNL     1       0.762   3.921  20.900  0.00  0.00    +0.000 HD
ENDBRANCH  12  25
TORSDOF 3
ENDMDL
MODEL 2
REMARK VINA RESULT:      -6.0      2.028      5.579
REMARK  Name = 
REMARK  6 active torsions:
REMARK  status: ('A' for Active; 'I' for Inactive)
REMARK    1  A    between atoms: C_1  and  O_2
REMARK    2  A    between atoms: O_2  and  C_3
REMARK    3  A    between atoms: C_8  and  O_9
REMARK    4  A    between atoms: O_9  and  C_10
REMARK    5  A    between atoms: C_16  and  O_17
REMARK    6  A    between atoms: N_22  and  C_23
REMARK                            x       y       z     vdW  Elec       q    Type
REMARK                         _______ _______ _______ _____ _____    ______ ____
ROOT
ATOM      1  C   UNL     1       1.916   4.194  20.510  0.00  0.00    +0.000 A 
ATOM      2  C   UNL     1       1.575   5.545  20.743  0.00  0.00    +0.000 A 
ATOM      3  C   UNL     1       2.249   6.559  20.084  0.00  0.00    +0.000 A 
ATOM      4  C   UNL     1       3.329   6.235  19.267  0.00  0.00    +0.000 A 
ATOM      5  C   UNL     1       3.877   4.930  19.251  0.00  0.00    +0.000 A 
ATOM      6  C   UNL     1       3.092   3.874  19.786  0.00  0.00    +0.000 A 
ATOM      7  C   UNL     1       5.169   4.830  18.406  0.00  0.00    +0.000 C 
ATOM      8  C   UNL     1       6.301   5.612  19.194  0.00  0.00    +0.000 C 
ATOM      9  C   UNL     1       7.471   5.997  18.273  0.00  0.00    +0.000 C 
ATOM     10  C   UNL     1       6.948   6.971  17.280  0.00  0.00    +0.000 C 
ATOM     11  O   UNL     1       7.508   8.055  17.166  0.00  0.00    +0.000 OA
ATOM     12  C   UNL     1       5.513   6.859  16.841  0.00  0.00    +0.000 C 
ATOM     13  O   UNL     1       4.790   7.688  17.762  0.00  0.00    +0.000 OA
ATOM     14  C   UNL     1       3.526   7.080  17.982  0.00  0.00    +0.000 C 
ATOM     15  C   UNL     1       3.392   6.021  16.883  0.00  0.00    +0.000 C 
ATOM     16  C   UNL     1       4.813   5.455  16.985  0.00  0.00    +0.000 C 
ATOM     17  N   UNL     1       4.965   4.315  16.053  0.00  0.00    +0.000 NA
ATOM     18  C   UNL     1       5.008   4.489  14.604  0.00  0.00    +0.000 C 
ATOM     19  C   UNL     1       5.968   3.400  16.577  0.00  0.00    +0.000 C 
ATOM     20  C   UNL     1       5.808   3.445  18.079  0.00  0.00    +0.000 C 
ENDROOT
BRANCH   1  22
ATOM     21  C   UNL     1       1.294   2.376  22.032  0.00  0.00    +0.000 C 
ATOM     22  O   UNL     1       1.131   3.179  20.930  0.00  0.00    +0.000 OA
ENDBRANCH   1  22
BRANCH   6  23
ATOM     23  O   UNL     1       3.439   2.594  19.512  0.00  0.00    +0.000 OA
ATOM     24  C   UNL     1       2.992   1.733  18.527  0.00  0.00    +0.000 C 
ENDBRANCH   6  23
BRANCH  12  25
ATOM     25  O   UNL     1       5.375   7.390  15.540  0.00  0.00    +0.000 OA
ATOM     26  H   UNL     1       6.255   7.315  15.086  0.00  0.00    +0.000 HD
ENDBRANCH  12  25
TORSDOF 3
ENDMDL
MODEL 3
REMARK VINA RESULT:      -6.0      1.576      1.996
REMARK  Name = 
REMARK  6 active torsions:
REMARK  status: ('A' for Active; 'I' for Inactive)
REMARK    1  A    between atoms: C_1  and  O_2
REMARK    2  A    between atoms: O_2  and  C_3
REMARK    3  A    between atoms: C_8  and  O_9
REMARK    4  A    between atoms: O_9  and  C_10
REMARK    5  A    between atoms: C_16  and  O_17
REMARK    6  A    between atoms: N_22  and  C_23
REMARK                            x       y       z     vdW  Elec       q    Type
REMARK                         _______ _______ _______ _____ _____    ______ ____
ROOT
ATOM      1  C   UNL     1       5.142   6.728  16.865  0.00  0.00    +0.000 A 
ATOM      2  C   UNL     1       4.233   7.696  17.346  0.00  0.00    +0.000 A 
ATOM      3  C   UNL     1       3.191   7.325  18.178  0.00  0.00    +0.000 A 
ATOM      4  C   UNL     1       2.994   5.974  18.454  0.00  0.00    +0.000 A 
ATOM      5  C   UNL     1       3.700   4.967  17.754  0.00  0.00    +0.000 A 
ATOM      6  C   UNL     1       4.866   5.349  17.039  0.00  0.00    +0.000 A 
ATOM      7  C   UNL     1       3.210   3.540  18.097  0.00  0.00    +0.000 C 
ATOM      8  C   UNL     1       1.766   3.379  17.463  0.00  0.00    +0.000 C 
ATOM      9  C   UNL     1       0.985   2.226  18.115  0.00  0.00    +0.000 C 
ATOM     10  C   UNL     1       0.745   2.603  19.533  0.00  0.00    +0.000 C 
ATOM     11  O   UNL     1      -0.405   2.601  19.957  0.00  0.00    +0.000 OA
ATOM     12  C   UNL     1       1.765   3.454  20.239  0.00  0.00    +0.000 C 
ATOM     13  O   UNL     1       1.336   4.801  19.999  0.00  0.00    +0.000 OA
ATOM     14  C   UNL     1       2.500   5.606  19.877  0.00  0.00    +0.000 C 
ATOM     15  C   UNL     1       3.647   4.733  20.395  0.00  0.00    +0.000 C 
ATOM     16  C   UNL     1       3.240   3.436  19.686  0.00  0.00    +0.000 C 
ATOM     17  N   UNL     1       4.248   2.385  19.949  0.00  0.00    +0.000 NA
ATOM     18  C   UNL     1       4.405   1.762  21.261  0.00  0.00    +0.000 C 
ATOM     19  C   UNL     1       4.265   1.449  18.835  0.00  0.00    +0.000 C 
ATOM     20  C   UNL     1       3.994   2.284  17.605  0.00  0.00    +0.000 C 
ENDROOT
BRANCH   1  22
ATOM     21  C   UNL     1       7.504   7.381  16.856  0.00  0.00    +0.000 C 
ATOM     22  O   UNL     1       6.302   7.075  16.268  0.00  0.00    +0.000 OA
ENDBRANCH   1  22
BRANCH   6  23
ATOM     23  O   UNL     1       5.726   4.387  16.624  0.00  0.00    +0.000 OA
ATOM     24  C   UNL     1       6.099   4.005  15.350  0.00  0.00    +0.000 C 
ENDBRANCH   6  23
BRANCH  12  25
ATOM     25  O   UNL     1       1.715   3.197  21.627  0.00  0.00    +0.000 OA
ATOM     26  H   UNL     1       2.455   3.701  22.056  0.00  0.00    +0.000 HD
ENDBRANCH  12  25
TORSDOF 3
ENDMDL
MODEL 4
REMARK VINA RESULT:      -5.9      8.203     10.719
REMARK  Name = 
REMARK  6 active torsions:
REMARK  status: ('A' for Active; 'I' for Inactive)
REMARK    1  A    between atoms: C_1  and  O_2
REMARK    2  A    between atoms: O_2  and  C_3
REMARK    3  A    between atoms: C_8  and  O_9
REMARK    4  A    between atoms: O_9  and  C_10
REMARK    5  A    between atoms: C_16  and  O_17
REMARK    6  A    between atoms: N_22  and  C_23
REMARK                            x       y       z     vdW  Elec       q    Type
REMARK                         _______ _______ _______ _____ _____    ______ ____
ROOT
ATOM      1  C   UNL     1      -4.700  11.448  17.848  0.00  0.00    +0.000 A 
ATOM      2  C   UNL     1      -3.947  11.015  16.734  0.00  0.00    +0.000 A 
ATOM      3  C   UNL     1      -2.567  10.931  16.813  0.00  0.00    +0.000 A 
ATOM      4  C   UNL     1      -1.927  11.372  17.968  0.00  0.00    +0.000 A 
ATOM      5  C   UNL     1      -2.625  12.082  18.974  0.00  0.00    +0.000 A 
ATOM      6  C   UNL     1      -4.044  12.017  18.969  0.00  0.00    +0.000 A 
ATOM      7  C   UNL     1      -1.694  12.623  20.085  0.00  0.00    +0.000 C 
ATOM      8  C   UNL     1      -0.835  13.791  19.445  0.00  0.00    +0.000 C 
ATOM      9  C   UNL     1       0.430  14.083  20.270  0.00  0.00    +0.000 C 
ATOM     10  C   UNL     1       1.296  12.878  20.190  0.00  0.00    +0.000 C 
ATOM     11  O   UNL     1       2.450  13.007  19.800  0.00  0.00    +0.000 OA
ATOM     12  C   UNL     1       0.646  11.526  20.066  0.00  0.00    +0.000 C 
ATOM     13  O   UNL     1       0.531  11.312  18.652  0.00  0.00    +0.000 OA
ATOM     14  C   UNL     1      -0.670  10.588  18.426  0.00  0.00    +0.000 C 
ATOM     15  C   UNL     1      -1.099  10.080  19.806  0.00  0.00    +0.000 C 
ATOM     16  C   UNL     1      -0.835  11.377  20.580  0.00  0.00    +0.000 C 
ATOM     17  N   UNL     1      -1.245  11.208  21.993  0.00  0.00    +0.000 NA
ATOM     18  C   UNL     1      -0.508  10.358  22.925  0.00  0.00    +0.000 C 
ATOM     19  C   UNL     1      -1.629  12.501  22.537  0.00  0.00    +0.000 C 
ATOM     20  C   UNL     1      -2.281  13.241  21.391  0.00  0.00    +0.000 C 
ENDROOT
BRANCH   1  22
ATOM     21  C   UNL     1      -6.772  10.372  18.591  0.00  0.00    +0.000 C 
ATOM     22  O   UNL     1      -6.041  11.306  17.900  0.00  0.00    +0.000 OA
ENDBRANCH   1  22
BRANCH   6  23
ATOM     23  O   UNL     1      -4.723  12.415  20.071  0.00  0.00    +0.000 OA
ATOM     24  C   UNL     1      -5.552  13.503  20.272  0.00  0.00    +0.000 C 
ENDBRANCH   6  23
BRANCH  12  25
ATOM     25  O   UNL     1       1.500  10.541  20.610  0.00  0.00    +0.000 OA
ATOM     26  H   UNL     1       1.032   9.668  20.551  0.00  0.00    +0.000 HD
ENDBRANCH  12  25
TORSDOF 3
ENDMDL
MODEL 5
REMARK VINA RESULT:      -5.9     10.837     12.385
REMARK  Name = 
REMARK  6 active torsions:
REMARK  status: ('A' for Active; 'I' for Inactive)
REMARK    1  A    between atoms: C_1  and  O_2
REMARK    2  A    between atoms: O_2  and  C_3
REMARK    3  A    between atoms: C_8  and  O_9
REMARK    4  A    between atoms: O_9  and  C_10
REMARK    5  A    between atoms: C_16  and  O_17
REMARK    6  A    between atoms: N_22  and  C_23
REMARK                            x       y       z     vdW  Elec       q    Type
REMARK                         _______ _______ _______ _____ _____    ______ ____
ROOT
ATOM      1  C   UNL     1       0.101  13.184  21.621  0.00  0.00    +0.000 A 
ATOM      2  C   UNL     1      -0.330  12.208  20.694  0.00  0.00    +0.000 A 
ATOM      3  C   UNL     1      -1.671  11.879  20.599  0.00  0.00    +0.000 A 
ATOM      4  C   UNL     1      -2.574  12.450  21.493  0.00  0.00    +0.000 A 
ATOM      5  C   UNL     1      -2.132  13.193  22.614  0.00  0.00    +0.000 A 
ATOM      6  C   UNL     1      -0.791  13.663  22.612  0.00  0.00    +0.000 A 
ATOM      7  C   UNL     1      -3.286  13.592  23.565  0.00  0.00    +0.000 C 
ATOM      8  C   UNL     1      -3.784  12.263  24.273  0.00  0.00    +0.000 C 
ATOM      9  C   UNL     1      -5.197  12.428  24.858  0.00  0.00    +0.000 C 
ATOM     10  C   UNL     1      -6.126  12.628  23.715  0.00  0.00    +0.000 C 
ATOM     11  O   UNL     1      -7.092  11.883  23.603  0.00  0.00    +0.000 OA
ATOM     12  C   UNL     1      -5.620  13.332  22.485  0.00  0.00    +0.000 C 
ATOM     13  O   UNL     1      -5.115  12.279  21.652  0.00  0.00    +0.000 OA
ATOM     14  C   UNL     1      -3.987  12.790  20.955  0.00  0.00    +0.000 C 
ATOM     15  C   UNL     1      -4.045  14.308  21.154  0.00  0.00    +0.000 C 
ATOM     16  C   UNL     1      -4.384  14.294  22.650  0.00  0.00    +0.000 C 
ATOM     17  N   UNL     1      -4.432  15.681  23.164  0.00  0.00    +0.000 NA
ATOM     18  C   UNL     1      -5.500  16.612  22.806  0.00  0.00    +0.000 C 
ATOM     19  C   UNL     1      -4.088  15.679  24.577  0.00  0.00    +0.000 C 
ATOM     20  C   UNL     1      -3.049  14.593  24.736  0.00  0.00    +0.000 C 
ENDROOT
BRANCH   1  22
ATOM     21  C   UNL     1       2.303  13.541  20.607  0.00  0.00    +0.000 C 
ATOM     22  O   UNL     1       1.343  13.710  21.574  0.00  0.00    +0.000 OA
ENDBRANCH   1  22
BRANCH   6  23
ATOM     23  O   UNL     1      -0.430  14.621  23.499  0.00  0.00    +0.000 OA
ATOM     24  C   UNL     1      -0.267  15.984  23.333  0.00  0.00    +0.000 C 
ENDBRANCH   6  23
BRANCH  12  25
ATOM     25  O   UNL     1      -6.699  13.961  21.825  0.00  0.00    +0.000 OA
ATOM     26  H   UNL     1      -7.222  13.257  21.359  0.00  0.00    +0.000 HD
ENDBRANCH  12  25
TORSDOF 3
ENDMDL
MODEL 6
REMARK VINA RESULT:      -5.8      7.941     10.455
REMARK  Name = 
REMARK  6 active torsions:
REMARK  status: ('A' for Active; 'I' for Inactive)
REMARK    1  A    between atoms: C_1  and  O_2
REMARK    2  A    between atoms: O_2  and  C_3
REMARK    3  A    between atoms: C_8  and  O_9
REMARK    4  A    between atoms: O_9  and  C_10
REMARK    5  A    between atoms: C_16  and  O_17
REMARK    6  A    between atoms: N_22  and  C_23
REMARK                            x       y       z     vdW  Elec       q    Type
REMARK                         _______ _______ _______ _____ _____    ______ ____
ROOT
ATOM      1  C   UNL     1      -5.055  11.962  18.581  0.00  0.00    +0.000 A 
ATOM      2  C   UNL     1      -4.845  11.237  17.387  0.00  0.00    +0.000 A 
ATOM      3  C   UNL     1      -3.581  10.775  17.062  0.00  0.00    +0.000 A 
ATOM      4  C   UNL     1      -2.505  11.118  17.877  0.00  0.00    +0.000 A 
ATOM      5  C   UNL     1      -2.636  12.082  18.905  0.00  0.00    +0.000 A 
ATOM      6  C   UNL     1      -3.947  12.419  19.336  0.00  0.00    +0.000 A 
ATOM      7  C   UNL     1      -1.286  12.435  19.575  0.00  0.00    +0.000 C 
ATOM      8  C   UNL     1      -0.440  13.253  18.513  0.00  0.00    +0.000 C 
ATOM      9  C   UNL     1       1.059  13.248  18.858  0.00  0.00    +0.000 C 
ATOM     10  C   UNL     1       1.535  11.845  18.734  0.00  0.00    +0.000 C 
ATOM     11  O   UNL     1       2.488  11.608  18.000  0.00  0.00    +0.000 OA
ATOM     12  C   UNL     1       0.580  10.726  19.048  0.00  0.00    +0.000 C 
ATOM     13  O   UNL     1      -0.050  10.429  17.794  0.00  0.00    +0.000 OA
ATOM     14  C   UNL     1      -1.392  10.055  18.068  0.00  0.00    +0.000 C 
ATOM     15  C   UNL     1      -1.442   9.813  19.580  0.00  0.00    +0.000 C 
ATOM     16  C   UNL     1      -0.633  11.046  20.000  0.00  0.00    +0.000 C 
ATOM     17  N   UNL     1      -0.574  11.125  21.477  0.00  0.00    +0.000 NA
ATOM     18  C   UNL     1       0.208  10.188  22.280  0.00  0.00    +0.000 C 
ATOM     19  C   UNL     1      -0.435  12.517  21.877  0.00  0.00    +0.000 C 
ATOM     20  C   UNL     1      -1.237  13.306  20.868  0.00  0.00    +0.000 C 
ENDROOT
BRANCH   1  22
ATOM     21  C   UNL     1      -7.205  11.315  19.563  0.00  0.00    +0.000 C 
ATOM     22  O   UNL     1      -6.294  12.208  19.056  0.00  0.00    +0.000 OA
ENDBRANCH   1  22
BRANCH   6  23
ATOM     23  O   UNL     1      -4.102  13.088  20.504  0.00  0.00    +0.000 OA
ATOM     24  C   UNL     1      -4.456  12.633  21.760  0.00  0.00    +0.000 C 
ENDBRANCH   6  23
BRANCH  12  25
ATOM     25  O   UNL     1       1.307   9.592  19.476  0.00  0.00    +0.000 OA
ATOM     26  H   UNL     1       0.652   8.886  19.718  0.00  0.00    +0.000 HD
ENDBRANCH  12  25
TORSDOF 3
ENDMDL
MODEL 7
REMARK VINA RESULT:      -5.8      2.210      4.759
REMARK  Name = 
REMARK  6 active torsions:
REMARK  status: ('A' for Active; 'I' for Inactive)
REMARK    1  A    between atoms: C_1  and  O_2
REMARK    2  A    between atoms: O_2  and  C_3
REMARK    3  A    between atoms: C_8  and  O_9
REMARK    4  A    between atoms: O_9  and  C_10
REMARK    5  A    between atoms: C_16  and  O_17
REMARK    6  A    between atoms: N_22  and  C_23
REMARK                            x       y       z     vdW  Elec       q    Type
REMARK                         _______ _______ _______ _____ _____    ______ ____
ROOT
ATOM      1  C   UNL     1       1.800   7.515  19.853  0.00  0.00    +0.000 A 
ATOM      2  C   UNL     1       2.075   8.406  18.791  0.00  0.00    +0.000 A 
ATOM      3  C   UNL     1       3.001   8.070  17.819  0.00  0.00    +0.000 A 
ATOM      4  C   UNL     1       3.727   6.889  17.955  0.00  0.00    +0.000 A 
ATOM      5  C   UNL     1       3.688   6.131  19.150  0.00  0.00    +0.000 A 
ATOM      6  C   UNL     1       2.626   6.383  20.060  0.00  0.00    +0.000 A 
ATOM      7  C   UNL     1       4.692   4.955  19.150  0.00  0.00    +0.000 C 
ATOM      8  C   UNL     1       6.144   5.583  19.249  0.00  0.00    +0.000 C 
ATOM      9  C   UNL     1       7.224   4.591  18.785  0.00  0.00    +0.000 C 
ATOM     10  C   UNL     1       7.006   4.349  17.335  0.00  0.00    +0.000 C 
ATOM     11  O   UNL     1       7.936   4.538  16.559  0.00  0.00    +0.000 OA
ATOM     12  C   UNL     1       5.603   4.403  16.794  0.00  0.00    +0.000 C 
ATOM     13  O   UNL     1       5.420   5.772  16.406  0.00  0.00    +0.000 OA
ATOM     14  C   UNL     1       4.064   6.110  16.657  0.00  0.00    +0.000 C 
ATOM     15  C   UNL     1       3.354   4.774  16.897  0.00  0.00    +0.000 C 
ATOM     16  C   UNL     1       4.421   4.148  17.803  0.00  0.00    +0.000 C 
ATOM     17  N   UNL     1       3.960   2.823  18.276  0.00  0.00    +0.000 NA
ATOM     18  C   UNL     1       3.862   1.667  17.389  0.00  0.00    +0.000 C 
ATOM     19  C   UNL     1       4.568   2.538  19.567  0.00  0.00    +0.000 C 
ATOM     20  C   UNL     1       4.657   3.872  20.272  0.00  0.00    +0.000 C 
ENDROOT
BRANCH   1  22
ATOM     21  C   UNL     1       0.463   8.750  21.495  0.00  0.00    +0.000 C 
ATOM     22  O   UNL     1       0.739   7.687  20.670  0.00  0.00    +0.000 OA
ENDBRANCH   1  22
BRANCH   6  23
ATOM     23  O   UNL     1       2.380   5.485  21.044  0.00  0.00    +0.000 OA
ATOM     24  C   UNL     1       1.592   4.349  21.048  0.00  0.00    +0.000 C 
ENDBRANCH   6  23
BRANCH  12  25
ATOM     25  O   UNL     1       5.508   3.585  15.646  0.00  0.00    +0.000 OA
ATOM     26  H   UNL     1       6.201   2.879  15.719  0.00  0.00    +0.000 HD
ENDBRANCH  12  25
TORSDOF 3
ENDMDL
MODEL 8
REMARK VINA RESULT:      -5.7      9.604     12.086
REMARK  Name = 
REMARK  6 active torsions:
REMARK  status: ('A' for Active; 'I' for Inactive)
REMARK    1  A    between atoms: C_1  and  O_2
REMARK    2  A    between atoms: O_2  and  C_3
REMARK    3  A    between atoms: C_8  and  O_9
REMARK    4  A    between atoms: O_9  and  C_10
REMARK    5  A    between atoms: C_16  and  O_17
REMARK    6  A    between atoms: N_22  and  C_23
REMARK                            x       y       z     vdW  Elec       q    Type
REMARK                         _______ _______ _______ _____ _____    ______ ____
ROOT
ATOM      1  C   UNL     1       5.577  15.530  21.078  0.00  0.00    +0.000 A 
ATOM      2  C   UNL     1       5.462  16.515  20.072  0.00  0.00    +0.000 A 
ATOM      3  C   UNL     1       6.430  16.625  19.088  0.00  0.00    +0.000 A 
ATOM      4  C   UNL     1       7.563  15.819  19.160  0.00  0.00    +0.000 A 
ATOM      5  C   UNL     1       7.845  15.042  20.309  0.00  0.00    +0.000 A 
ATOM      6  C   UNL     1       6.785  14.804  21.225  0.00  0.00    +0.000 A 
ATOM      7  C   UNL     1       9.231  14.357  20.247  0.00  0.00    +0.000 C 
ATOM      8  C   UNL     1      10.320  15.499  20.393  0.00  0.00    +0.000 C 
ATOM      9  C   UNL     1      11.696  15.040  19.879  0.00  0.00    +0.000 C 
ATOM     10  C   UNL     1      11.566  14.813  18.416  0.00  0.00    +0.000 C 
ATOM     11  O   UNL     1      12.333  15.396  17.659  0.00  0.00    +0.000 OA
ATOM     12  C   UNL     1      10.246  14.341  17.870  0.00  0.00    +0.000 C 
ATOM     13  O   UNL     1       9.533  15.547  17.560  0.00  0.00    +0.000 OA
ATOM     14  C   UNL     1       8.157  15.309  17.821  0.00  0.00    +0.000 C 
ATOM     15  C   UNL     1       8.034  13.790  17.979  0.00  0.00    +0.000 C 
ATOM     16  C   UNL     1       9.276  13.585  18.855  0.00  0.00    +0.000 C 
ATOM     17  N   UNL     1       9.382  12.162  19.247  0.00  0.00    +0.000 NA
ATOM     18  C   UNL     1       9.731  11.112  18.294  0.00  0.00    +0.000 C 
ATOM     19  C   UNL     1      10.074  12.067  20.523  0.00  0.00    +0.000 C 
ATOM     20  C   UNL     1       9.643  13.287  21.304  0.00  0.00    +0.000 C 
ENDROOT
BRANCH   1  22
ATOM     21  C   UNL     1       3.332  14.678  21.567  0.00  0.00    +0.000 C 
ATOM     22  O   UNL     1       4.548  15.225  21.896  0.00  0.00    +0.000 OA
ENDBRANCH   1  22
BRANCH   6  23
ATOM     23  O   UNL     1       6.928  13.828  22.154  0.00  0.00    +0.000 OA
ATOM     24  C   UNL     1       6.958  13.899  23.534  0.00  0.00    +0.000 C 
ENDBRANCH   6  23
BRANCH  12  25
ATOM     25  O   UNL     1      10.461  13.617  16.676  0.00  0.00    +0.000 OA
ATOM     26  H   UNL     1      10.463  14.265  15.924  0.00  0.00    +0.000 HD
ENDBRANCH  12  25
TORSDOF 3
ENDMDL
MODEL 9
REMARK VINA RESULT:      -5.7     10.572     12.148
REMARK  Name = 
REMARK  6 active torsions:
REMARK  status: ('A' for Active; 'I' for Inactive)
REMARK    1  A    between atoms: C_1  and  O_2
REMARK    2  A    between atoms: O_2  and  C_3
REMARK    3  A    between atoms: C_8  and  O_9
REMARK    4  A    between atoms: O_9  and  C_10
REMARK    5  A    between atoms: C_16  and  O_17
REMARK    6  A    between atoms: N_22  and  C_23
REMARK                            x       y       z     vdW  Elec       q    Type
REMARK                         _______ _______ _______ _____ _____    ______ ____
ROOT
ATOM      1  C   UNL     1      -0.779  13.244  19.298  0.00  0.00    +0.000 A 
ATOM      2  C   UNL     1      -1.576  12.270  18.654  0.00  0.00    +0.000 A 
ATOM      3  C   UNL     1      -2.824  11.944  19.159  0.00  0.00    +0.000 A 
ATOM      4  C   UNL     1      -3.239  12.514  20.360  0.00  0.00    +0.000 A 
ATOM      5  C   UNL     1      -2.348  13.255  21.172  0.00  0.00    +0.000 A 
ATOM      6  C   UNL     1      -1.144  13.723  20.580  0.00  0.00    +0.000 A 
ATOM      7  C   UNL     1      -2.964  13.654  22.534  0.00  0.00    +0.000 C 
ATOM      8  C   UNL     1      -3.102  12.325  23.388  0.00  0.00    +0.000 C 
ATOM      9  C   UNL     1      -4.113  12.491  24.535  0.00  0.00    +0.000 C 
ATOM     10  C   UNL     1      -5.450  12.694  23.919  0.00  0.00    +0.000 C 
ATOM     11  O   UNL     1      -6.368  11.951  24.242  0.00  0.00    +0.000 OA
ATOM     12  C   UNL     1      -5.536  13.399  22.592  0.00  0.00    +0.000 C 
ATOM     13  O   UNL     1      -5.451  12.347  21.620  0.00  0.00    +0.000 OA
ATOM     14  C   UNL     1      -4.745  12.857  20.499  0.00  0.00    +0.000 C 
ATOM     15  C   UNL     1      -4.705  14.375  20.704  0.00  0.00    +0.000 C 
ATOM     16  C   UNL     1      -4.352  14.359  22.196  0.00  0.00    +0.000 C 
ATOM     17  N   UNL     1      -4.166  15.746  22.680  0.00  0.00    +0.000 NA
ATOM     18  C   UNL     1      -5.280  16.678  22.830  0.00  0.00    +0.000 C 
ATOM     19  C   UNL     1      -3.234  15.741  23.798  0.00  0.00    +0.000 C 
ATOM     20  C   UNL     1      -2.234  14.653  23.482  0.00  0.00    +0.000 C 
ENDROOT
BRANCH   1  22
ATOM     21  C   UNL     1       1.535  13.174  18.496  0.00  0.00    +0.000 C 
ATOM     22  O   UNL     1       0.316  13.769  18.709  0.00  0.00    +0.000 OA
ENDBRANCH   1  22
BRANCH   6  23
ATOM     23  O   UNL     1      -0.427  14.679  21.219  0.00  0.00    +0.000 OA
ATOM     24  C   UNL     1       0.790  14.606  21.869  0.00  0.00    +0.000 C 
ENDBRANCH   6  23
BRANCH  12  25
ATOM     25  O   UNL     1      -6.794  14.031  22.474  0.00  0.00    +0.000 OA
ATOM     26  H   UNL     1      -7.239  13.672  21.663  0.00  0.00    +0.000 HD
ENDBRANCH  12  25
TORSDOF 3
ENDMDL
