MODEL 1
REMARK VINA RESULT:      -8.3      0.000      0.000
REMARK  Name = 
REMARK  8 active torsions:
REMARK  status: ('A' for Active; 'I' for Inactive)
REMARK    1  A    between atoms: C_1  and  C_2
REMARK    2  A    between atoms: C_2  and  O_3
REMARK    3  A    between atoms: O_3  and  C_4
REMARK    4  A    between atoms: C_4  and  C_6
REMARK    5  A    between atoms: C_7  and  O_8
REMARK    6  A    between atoms: O_8  and  C_9
REMARK    7  A    between atoms: C_9  and  C_10
REMARK    8  A    between atoms: C_15  and  O_16
REMARK                            x       y       z     vdW  Elec       q    Type
REMARK                         _______ _______ _______ _____ _____    ______ ____
ROOT
ATOM      1  C   UNL     1       5.731   5.303  16.426  0.00  0.00    +0.000 A 
ATOM      2  C   UNL     1       5.806   6.559  17.019  0.00  0.00    +0.000 A 
ATOM      3  N   UNL     1       4.835   6.592  17.997  0.00  0.00    +0.000 N 
ATOM      4  C   UNL     1       4.114   5.425  18.050  0.00  0.00    +0.000 A 
ATOM      5  C   UNL     1       4.640   4.601  17.064  0.00  0.00    +0.000 A 
ATOM      6  C   UNL     1       4.047   3.333  16.863  0.00  0.00    +0.000 A 
ATOM      7  C   UNL     1       2.988   2.920  17.670  0.00  0.00    +0.000 A 
ATOM      8  C   UNL     1       2.475   3.742  18.684  0.00  0.00    +0.000 A 
ATOM      9  C   UNL     1       1.417   3.332  19.510  0.00  0.00    +0.000 A 
ATOM     10  C   UNL     1       0.924   4.170  20.515  0.00  0.00    +0.000 A 
ATOM     11  C   UNL     1       1.475   5.433  20.705  0.00  0.00    +0.000 A 
ATOM     12  C   UNL     1       2.527   5.870  19.897  0.00  0.00    +0.000 A 
ATOM     13  C   UNL     1       3.035   5.027  18.887  0.00  0.00    +0.000 A 
ATOM     14  H   UNL     1       4.655   7.376  18.602  0.00  0.00    +0.000 HD
ENDROOT
BRANCH   1  15
ATOM     15  C   UNL     1       6.550   4.773  15.336  0.00  0.00    +0.000 C 
ATOM     16  O   UNL     1       7.767   4.633  15.373  0.00  0.00    +0.000 OA
BRANCH  15  17
ATOM     17  O   UNL     1       5.784   4.535  14.227  0.00  0.00    +0.000 OA
BRANCH  17  19
ATOM     18  C   UNL     1       5.226   3.382  12.180  0.00  0.00    +0.000 C 
ATOM     19  C   UNL     1       6.299   3.670  13.208  0.00  0.00    +0.000 C 
ENDBRANCH  17  19
ENDBRANCH  15  17
ENDBRANCH   1  15
BRANCH   7  20
ATOM     20  O   UNL     1       2.438   1.680  17.461  0.00  0.00    +0.000 OA
ATOM     21  H   UNL     1       2.924   1.032  17.994  0.00  0.00    +0.000 HD
ENDBRANCH   7  20
BRANCH   2  22
ATOM     22  O   UNL     1       6.630   7.595  16.777  0.00  0.00    +0.000 OA
BRANCH  22  23
ATOM     23  C   UNL     1       7.781   7.723  17.621  0.00  0.00    +0.000 C 
ATOM     24  C   UNL     1       8.101   9.182  17.894  0.00  0.00    +0.000 C 
ENDBRANCH  22  23
ENDBRANCH   2  22
TORSDOF 6
ENDMDL
MODEL 2
REMARK VINA RESULT:      -8.0      1.809      3.904
REMARK  Name = 
REMARK  8 active torsions:
REMARK  status: ('A' for Active; 'I' for Inactive)
REMARK    1  A    between atoms: C_1  and  C_2
REMARK    2  A    between atoms: C_2  and  O_3
REMARK    3  A    between atoms: O_3  and  C_4
REMARK    4  A    between atoms: C_4  and  C_6
REMARK    5  A    between atoms: C_7  and  O_8
REMARK    6  A    between atoms: O_8  and  C_9
REMARK    7  A    between atoms: C_9  and  C_10
REMARK    8  A    between atoms: C_15  and  O_16
REMARK                            x       y       z     vdW  Elec       q    Type
REMARK                         _______ _______ _______ _____ _____    ______ ____
ROOT
ATOM      1  C   UNL     1       5.131   5.307  16.568  0.00  0.00    +0.000 A 
ATOM      2  C   UNL     1       5.344   3.972  16.239  0.00  0.00    +0.000 A 
ATOM      3  N   UNL     1       4.558   3.226  17.091  0.00  0.00    +0.000 N 
ATOM      4  C   UNL     1       3.863   4.013  17.977  0.00  0.00    +0.000 A 
ATOM      5  C   UNL     1       4.216   5.325  17.687  0.00  0.00    +0.000 A 
ATOM      6  C   UNL     1       3.676   6.357  18.487  0.00  0.00    +0.000 A 
ATOM      7  C   UNL     1       2.781   6.052  19.513  0.00  0.00    +0.000 A 
ATOM      8  C   UNL     1       2.405   4.730  19.788  0.00  0.00    +0.000 A 
ATOM      9  C   UNL     1       1.497   4.412  20.809  0.00  0.00    +0.000 A 
ATOM     10  C   UNL     1       1.136   3.085  21.064  0.00  0.00    +0.000 A 
ATOM     11  C   UNL     1       1.683   2.055  20.306  0.00  0.00    +0.000 A 
ATOM     12  C   UNL     1       2.592   2.339  19.284  0.00  0.00    +0.000 A 
ATOM     13  C   UNL     1       2.953   3.676  19.016  0.00  0.00    +0.000 A 
ATOM     14  H   UNL     1       4.496   2.222  17.085  0.00  0.00    +0.000 HD
ENDROOT
BRANCH   1  15
ATOM     15  C   UNL     1       5.733   6.491  15.954  0.00  0.00    +0.000 C 
ATOM     16  O   UNL     1       5.173   7.231  15.154  0.00  0.00    +0.000 OA
BRANCH  15  17
ATOM     17  O   UNL     1       7.045   6.614  16.325  0.00  0.00    +0.000 OA
BRANCH  17  19
ATOM     18  C   UNL     1       7.832   6.454  18.602  0.00  0.00    +0.000 C 
ATOM     19  C   UNL     1       7.359   7.374  17.497  0.00  0.00    +0.000 C 
ENDBRANCH  17  19
ENDBRANCH  15  17
ENDBRANCH   1  15
BRANCH   7  20
ATOM     20  O   UNL     1       2.263   7.074  20.267  0.00  0.00    +0.000 OA
ATOM     21  H   UNL     1       2.818   7.861  20.147  0.00  0.00    +0.000 HD
ENDBRANCH   7  20
BRANCH   2  22
ATOM     22  O   UNL     1       6.120   3.415  15.292  0.00  0.00    +0.000 OA
BRANCH  22  23
ATOM     23  C   UNL     1       5.830   3.753  13.929  0.00  0.00    +0.000 C 
ATOM     24  C   UNL     1       7.020   4.420  13.264  0.00  0.00    +0.000 C 
ENDBRANCH  22  23
ENDBRANCH   2  22
TORSDOF 6
ENDMDL
MODEL 3
REMARK VINA RESULT:      -7.9      1.806      2.091
REMARK  Name = 
REMARK  8 active torsions:
REMARK  status: ('A' for Active; 'I' for Inactive)
REMARK    1  A    between atoms: C_1  and  C_2
REMARK    2  A    between atoms: C_2  and  O_3
REMARK    3  A    between atoms: O_3  and  C_4
REMARK    4  A    between atoms: C_4  and  C_6
REMARK    5  A    between atoms: C_7  and  O_8
REMARK    6  A    between atoms: O_8  and  C_9
REMARK    7  A    between atoms: C_9  and  C_10
REMARK    8  A    between atoms: C_15  and  O_16
REMARK                            x       y       z     vdW  Elec       q    Type
REMARK                         _______ _______ _______ _____ _____    ______ ____
ROOT
ATOM      1  C   UNL     1       5.628   4.694  17.150  0.00  0.00    +0.000 A 
ATOM      2  C   UNL     1       6.497   4.462  18.213  0.00  0.00    +0.000 A 
ATOM      3  N   UNL     1       5.727   3.993  19.256  0.00  0.00    +0.000 N 
ATOM      4  C   UNL     1       4.394   3.933  18.929  0.00  0.00    +0.000 A 
ATOM      5  C   UNL     1       4.297   4.385  17.620  0.00  0.00    +0.000 A 
ATOM      6  C   UNL     1       3.013   4.473  17.035  0.00  0.00    +0.000 A 
ATOM      7  C   UNL     1       1.887   4.076  17.755  0.00  0.00    +0.000 A 
ATOM      8  C   UNL     1       1.989   3.594  19.068  0.00  0.00    +0.000 A 
ATOM      9  C   UNL     1       0.864   3.180  19.797  0.00  0.00    +0.000 A 
ATOM     10  C   UNL     1       0.992   2.703  21.106  0.00  0.00    +0.000 A 
ATOM     11  C   UNL     1       2.245   2.639  21.707  0.00  0.00    +0.000 A 
ATOM     12  C   UNL     1       3.382   3.047  21.007  0.00  0.00    +0.000 A 
ATOM     13  C   UNL     1       3.262   3.521  19.684  0.00  0.00    +0.000 A 
ATOM     14  H   UNL     1       6.082   3.730  20.160  0.00  0.00    +0.000 HD
ENDROOT
BRANCH   1  15
ATOM     15  C   UNL     1       5.956   5.197  15.816  0.00  0.00    +0.000 C 
ATOM     16  O   UNL     1       5.574   6.265  15.352  0.00  0.00    +0.000 OA
BRANCH  15  17
ATOM     17  O   UNL     1       6.676   4.269  15.114  0.00  0.00    +0.000 OA
BRANCH  17  19
ATOM     18  C   UNL     1       5.951   3.584  12.914  0.00  0.00    +0.000 C 
ATOM     19  C   UNL     1       6.880   4.475  13.711  0.00  0.00    +0.000 C 
ENDBRANCH  17  19
ENDBRANCH  15  17
ENDBRANCH   1  15
BRANCH   7  20
ATOM     20  O   UNL     1       0.654   4.161  17.159  0.00  0.00    +0.000 OA
ATOM     21  H   UNL     1       0.671   4.884  16.512  0.00  0.00    +0.000 HD
ENDBRANCH   7  20
BRANCH   2  22
ATOM     22  O   UNL     1       7.830   4.614  18.304  0.00  0.00    +0.000 OA
BRANCH  22  23
ATOM     23  C   UNL     1       8.309   5.706  19.099  0.00  0.00    +0.000 C 
ATOM     24  C   UNL     1       8.005   7.039  18.440  0.00  0.00    +0.000 C 
ENDBRANCH  22  23
ENDBRANCH   2  22
TORSDOF 6
ENDMDL
MODEL 4
REMARK VINA RESULT:      -7.6      2.845      5.132
REMARK  Name = 
REMARK  8 active torsions:
REMARK  status: ('A' for Active; 'I' for Inactive)
REMARK    1  A    between atoms: C_1  and  C_2
REMARK    2  A    between atoms: C_2  and  O_3
REMARK    3  A    between atoms: O_3  and  C_4
REMARK    4  A    between atoms: C_4  and  C_6
REMARK    5  A    between atoms: C_7  and  O_8
REMARK    6  A    between atoms: O_8  and  C_9
REMARK    7  A    between atoms: C_9  and  C_10
REMARK    8  A    between atoms: C_15  and  O_16
REMARK                            x       y       z     vdW  Elec       q    Type
REMARK                         _______ _______ _______ _____ _____    ______ ____
ROOT
ATOM      1  C   UNL     1       3.891   5.772  18.158  0.00  0.00    +0.000 A 
ATOM      2  C   UNL     1       3.769   5.007  19.314  0.00  0.00    +0.000 A 
ATOM      3  N   UNL     1       2.922   5.697  20.156  0.00  0.00    +0.000 N 
ATOM      4  C   UNL     1       2.508   6.888  19.611  0.00  0.00    +0.000 A 
ATOM      5  C   UNL     1       3.114   6.973  18.364  0.00  0.00    +0.000 A 
ATOM      6  C   UNL     1       2.895   8.137  17.591  0.00  0.00    +0.000 A 
ATOM      7  C   UNL     1       2.058   9.146  18.066  0.00  0.00    +0.000 A 
ATOM      8  C   UNL     1       1.425   9.047  19.314  0.00  0.00    +0.000 A 
ATOM      9  C   UNL     1       0.572  10.050  19.796  0.00  0.00    +0.000 A 
ATOM     10  C   UNL     1      -0.048   9.927  21.044  0.00  0.00    +0.000 A 
ATOM     11  C   UNL     1       0.181   8.804  21.830  0.00  0.00    +0.000 A 
ATOM     12  C   UNL     1       1.028   7.789  21.379  0.00  0.00    +0.000 A 
ATOM     13  C   UNL     1       1.650   7.902  20.118  0.00  0.00    +0.000 A 
ATOM     14  H   UNL     1       2.639   5.384  21.069  0.00  0.00    +0.000 HD
ENDROOT
BRANCH   1  15
ATOM     15  C   UNL     1       4.679   5.473  16.962  0.00  0.00    +0.000 C 
ATOM     16  O   UNL     1       4.554   4.470  16.268  0.00  0.00    +0.000 OA
BRANCH  15  17
ATOM     17  O   UNL     1       5.642   6.425  16.768  0.00  0.00    +0.000 OA
BRANCH  17  19
ATOM     18  C   UNL     1       7.630   6.784  18.093  0.00  0.00    +0.000 C 
ATOM     19  C   UNL     1       7.017   6.051  16.918  0.00  0.00    +0.000 C 
ENDBRANCH  17  19
ENDBRANCH  15  17
ENDBRANCH   1  15
BRANCH   7  20
ATOM     20  O   UNL     1       1.854  10.259  17.290  0.00  0.00    +0.000 OA
ATOM     21  H   UNL     1       1.619  11.001  17.869  0.00  0.00    +0.000 HD
ENDBRANCH   7  20
BRANCH   2  22
ATOM     22  O   UNL     1       4.307   3.818  19.640  0.00  0.00    +0.000 OA
BRANCH  22  23
ATOM     23  C   UNL     1       3.409   2.709  19.768  0.00  0.00    +0.000 C 
ATOM     24  C   UNL     1       3.148   2.057  18.422  0.00  0.00    +0.000 C 
ENDBRANCH  22  23
ENDBRANCH   2  22
TORSDOF 6
ENDMDL
MODEL 5
REMARK VINA RESULT:      -7.5      3.310      5.855
REMARK  Name = 
REMARK  8 active torsions:
REMARK  status: ('A' for Active; 'I' for Inactive)
REMARK    1  A    between atoms: C_1  and  C_2
REMARK    2  A    between atoms: C_2  and  O_3
REMARK    3  A    between atoms: O_3  and  C_4
REMARK    4  A    between atoms: C_4  and  C_6
REMARK    5  A    between atoms: C_7  and  O_8
REMARK    6  A    between atoms: O_8  and  C_9
REMARK    7  A    between atoms: C_9  and  C_10
REMARK    8  A    between atoms: C_15  and  O_16
REMARK                            x       y       z     vdW  Elec       q    Type
REMARK                         _______ _______ _______ _____ _____    ______ ____
ROOT
ATOM      1  C   UNL     1       3.089   5.774  18.920  0.00  0.00    +0.000 A 
ATOM      2  C   UNL     1       2.781   5.218  20.158  0.00  0.00    +0.000 A 
ATOM      3  N   UNL     1       2.037   6.158  20.838  0.00  0.00    +0.000 N 
ATOM      4  C   UNL     1       1.868   7.311  20.110  0.00  0.00    +0.000 A 
ATOM      5  C   UNL     1       2.533   7.109  18.908  0.00  0.00    +0.000 A 
ATOM      6  C   UNL     1       2.561   8.168  17.972  0.00  0.00    +0.000 A 
ATOM      7  C   UNL     1       1.900   9.364  18.247  0.00  0.00    +0.000 A 
ATOM      8  C   UNL     1       1.206   9.557  19.451  0.00  0.00    +0.000 A 
ATOM      9  C   UNL     1       0.527  10.752  19.734  0.00  0.00    +0.000 A 
ATOM     10  C   UNL     1      -0.158  10.920  20.941  0.00  0.00    +0.000 A 
ATOM     11  C   UNL     1      -0.169   9.900  21.886  0.00  0.00    +0.000 A 
ATOM     12  C   UNL     1       0.500   8.700  21.635  0.00  0.00    +0.000 A 
ATOM     13  C   UNL     1       1.185   8.520  20.415  0.00  0.00    +0.000 A 
ATOM     14  H   UNL     1       1.663   6.035  21.764  0.00  0.00    +0.000 HD
ENDROOT
BRANCH   1  15
ATOM     15  C   UNL     1       3.861   5.174  17.832  0.00  0.00    +0.000 C 
ATOM     16  O   UNL     1       3.475   4.256  17.117  0.00  0.00    +0.000 OA
BRANCH  15  17
ATOM     17  O   UNL     1       5.116   5.716  17.774  0.00  0.00    +0.000 OA
BRANCH  17  19
ATOM     18  C   UNL     1       7.388   6.024  18.534  0.00  0.00    +0.000 C 
ATOM     19  C   UNL     1       6.140   5.171  18.616  0.00  0.00    +0.000 C 
ENDBRANCH  17  19
ENDBRANCH  15  17
ENDBRANCH   1  15
BRANCH   7  20
ATOM     20  O   UNL     1       1.934  10.371  17.316  0.00  0.00    +0.000 OA
ATOM     21  H   UNL     1       1.188  10.255  16.706  0.00  0.00    +0.000 HD
ENDBRANCH   7  20
BRANCH   2  22
ATOM     22  O   UNL     1       3.082   4.014  20.677  0.00  0.00    +0.000 OA
BRANCH  22  23
ATOM     23  C   UNL     1       1.995   3.237  21.194  0.00  0.00    +0.000 C 
ATOM     24  C   UNL     1       1.036   2.831  20.089  0.00  0.00    +0.000 C 
ENDBRANCH  22  23
ENDBRANCH   2  22
TORSDOF 6
ENDMDL
MODEL 6
REMARK VINA RESULT:      -7.5      2.772      4.667
REMARK  Name = 
REMARK  8 active torsions:
REMARK  status: ('A' for Active; 'I' for Inactive)
REMARK    1  A    between atoms: C_1  and  C_2
REMARK    2  A    between atoms: C_2  and  O_3
REMARK    3  A    between atoms: O_3  and  C_4
REMARK    4  A    between atoms: C_4  and  C_6
REMARK    5  A    between atoms: C_7  and  O_8
REMARK    6  A    between atoms: O_8  and  C_9
REMARK    7  A    between atoms: C_9  and  C_10
REMARK    8  A    between atoms: C_15  and  O_16
REMARK                            x       y       z     vdW  Elec       q    Type
REMARK                         _______ _______ _______ _____ _____    ______ ____
ROOT
ATOM      1  C   UNL     1       4.188   5.954  17.926  0.00  0.00    +0.000 A 
ATOM      2  C   UNL     1       4.107   5.107  19.027  0.00  0.00    +0.000 A 
ATOM      3  N   UNL     1       3.208   5.683  19.901  0.00  0.00    +0.000 N 
ATOM      4  C   UNL     1       2.721   6.877  19.430  0.00  0.00    +0.000 A 
ATOM      5  C   UNL     1       3.331   7.085  18.200  0.00  0.00    +0.000 A 
ATOM      6  C   UNL     1       3.043   8.281  17.502  0.00  0.00    +0.000 A 
ATOM      7  C   UNL     1       2.136   9.199  18.031  0.00  0.00    +0.000 A 
ATOM      8  C   UNL     1       1.500   8.975  19.261  0.00  0.00    +0.000 A 
ATOM      9  C   UNL     1       0.577   9.886  19.797  0.00  0.00    +0.000 A 
ATOM     10  C   UNL     1      -0.045   9.640  21.025  0.00  0.00    +0.000 A 
ATOM     11  C   UNL     1       0.251   8.483  21.739  0.00  0.00    +0.000 A 
ATOM     12  C   UNL     1       1.168   7.559  21.233  0.00  0.00    +0.000 A 
ATOM     13  C   UNL     1       1.792   7.796  19.991  0.00  0.00    +0.000 A 
ATOM     14  H   UNL     1       2.938   5.291  20.788  0.00  0.00    +0.000 HD
ENDROOT
BRANCH   1  15
ATOM     15  C   UNL     1       5.005   5.788  16.724  0.00  0.00    +0.000 C 
ATOM     16  O   UNL     1       5.711   6.658  16.226  0.00  0.00    +0.000 OA
BRANCH  15  17
ATOM     17  O   UNL     1       4.807   4.552  16.172  0.00  0.00    +0.000 OA
BRANCH  17  19
ATOM     18  C   UNL     1       6.034   3.953  14.179  0.00  0.00    +0.000 C 
ATOM     19  C   UNL     1       5.943   3.827  15.685  0.00  0.00    +0.000 C 
ENDBRANCH  17  19
ENDBRANCH  15  17
ENDBRANCH   1  15
BRANCH   7  20
ATOM     20  O   UNL     1       1.866  10.345  17.328  0.00  0.00    +0.000 OA
ATOM     21  H   UNL     1       2.617  10.952  17.424  0.00  0.00    +0.000 HD
ENDBRANCH   7  20
BRANCH   2  22
ATOM     22  O   UNL     1       4.720   3.937  19.281  0.00  0.00    +0.000 OA
BRANCH  22  23
ATOM     23  C   UNL     1       3.882   2.814  19.581  0.00  0.00    +0.000 C 
ATOM     24  C   UNL     1       3.555   2.023  18.327  0.00  0.00    +0.000 C 
ENDBRANCH  22  23
ENDBRANCH   2  22
TORSDOF 6
ENDMDL
MODEL 7
REMARK VINA RESULT:      -7.4      3.314      5.791
REMARK  Name = 
REMARK  8 active torsions:
REMARK  status: ('A' for Active; 'I' for Inactive)
REMARK    1  A    between atoms: C_1  and  C_2
REMARK    2  A    between atoms: C_2  and  O_3
REMARK    3  A    between atoms: O_3  and  C_4
REMARK    4  A    between atoms: C_4  and  C_6
REMARK    5  A    between atoms: C_7  and  O_8
REMARK    6  A    between atoms: O_8  and  C_9
REMARK    7  A    between atoms: C_9  and  C_10
REMARK    8  A    between atoms: C_15  and  O_16
REMARK                            x       y       z     vdW  Elec       q    Type
REMARK                         _______ _______ _______ _____ _____    ______ ____
ROOT
ATOM      1  C   UNL     1       3.121   5.897  18.920  0.00  0.00    +0.000 A 
ATOM      2  C   UNL     1       2.810   5.308  20.142  0.00  0.00    +0.000 A 
ATOM      3  N   UNL     1       2.038   6.219  20.832  0.00  0.00    +0.000 N 
ATOM      4  C   UNL     1       1.854   7.383  20.125  0.00  0.00    +0.000 A 
ATOM      5  C   UNL     1       2.538   7.219  18.928  0.00  0.00    +0.000 A 
ATOM      6  C   UNL     1       2.556   8.297  18.014  0.00  0.00    +0.000 A 
ATOM      7  C   UNL     1       1.867   9.474  18.305  0.00  0.00    +0.000 A 
ATOM      8  C   UNL     1       1.154   9.628  19.503  0.00  0.00    +0.000 A 
ATOM      9  C   UNL     1       0.447  10.803  19.802  0.00  0.00    +0.000 A 
ATOM     10  C   UNL     1      -0.257  10.932  21.003  0.00  0.00    +0.000 A 
ATOM     11  C   UNL     1      -0.258   9.892  21.927  0.00  0.00    +0.000 A 
ATOM     12  C   UNL     1       0.438   8.712  21.660  0.00  0.00    +0.000 A 
ATOM     13  C   UNL     1       1.143   8.571  20.446  0.00  0.00    +0.000 A 
ATOM     14  H   UNL     1       1.655   6.069  21.750  0.00  0.00    +0.000 HD
ENDROOT
BRANCH   1  15
ATOM     15  C   UNL     1       3.919   5.335  17.830  0.00  0.00    +0.000 C 
ATOM     16  O   UNL     1       4.979   5.797  17.422  0.00  0.00    +0.000 OA
BRANCH  15  17
ATOM     17  O   UNL     1       3.278   4.268  17.261  0.00  0.00    +0.000 OA
BRANCH  17  19
ATOM     18  C   UNL     1       2.811   1.979  17.875  0.00  0.00    +0.000 C 
ATOM     19  C   UNL     1       3.857   2.965  17.399  0.00  0.00    +0.000 C 
ENDBRANCH  17  19
ENDBRANCH  15  17
ENDBRANCH   1  15
BRANCH   7  20
ATOM     20  O   UNL     1       1.891  10.501  17.395  0.00  0.00    +0.000 OA
ATOM     21  H   UNL     1       1.675  11.327  17.855  0.00  0.00    +0.000 HD
ENDBRANCH   7  20
BRANCH   2  22
ATOM     22  O   UNL     1       3.129   4.101  20.640  0.00  0.00    +0.000 OA
BRANCH  22  23
ATOM     23  C   UNL     1       2.259   3.558  21.641  0.00  0.00    +0.000 C 
ATOM     24  C   UNL     1       1.112   2.788  21.012  0.00  0.00    +0.000 C 
ENDBRANCH  22  23
ENDBRANCH   2  22
TORSDOF 6
ENDMDL
MODEL 8
REMARK VINA RESULT:      -7.4      1.089      1.089
REMARK  Name = 
REMARK  8 active torsions:
REMARK  status: ('A' for Active; 'I' for Inactive)
REMARK    1  A    between atoms: C_1  and  C_2
REMARK    2  A    between atoms: C_2  and  O_3
REMARK    3  A    between atoms: O_3  and  C_4
REMARK    4  A    between atoms: C_4  and  C_6
REMARK    5  A    between atoms: C_7  and  O_8
REMARK    6  A    between atoms: O_8  and  C_9
REMARK    7  A    between atoms: C_9  and  C_10
REMARK    8  A    between atoms: C_15  and  O_16
REMARK                            x       y       z     vdW  Elec       q    Type
REMARK                         _______ _______ _______ _____ _____    ______ ____
ROOT
ATOM      1  C   UNL     1       5.986   4.745  17.210  0.00  0.00    +0.000 A 
ATOM      2  C   UNL     1       6.314   5.636  18.228  0.00  0.00    +0.000 A 
ATOM      3  N   UNL     1       5.373   5.462  19.221  0.00  0.00    +0.000 N 
ATOM      4  C   UNL     1       4.434   4.517  18.885  0.00  0.00    +0.000 A 
ATOM      5  C   UNL     1       4.781   4.061  17.620  0.00  0.00    +0.000 A 
ATOM      6  C   UNL     1       3.946   3.102  17.002  0.00  0.00    +0.000 A 
ATOM      7  C   UNL     1       2.829   2.608  17.675  0.00  0.00    +0.000 A 
ATOM      8  C   UNL     1       2.495   3.050  18.964  0.00  0.00    +0.000 A 
ATOM      9  C   UNL     1       1.381   2.550  19.655  0.00  0.00    +0.000 A 
ATOM     10  C   UNL     1       1.069   3.006  20.940  0.00  0.00    +0.000 A 
ATOM     11  C   UNL     1       1.862   3.973  21.550  0.00  0.00    +0.000 A 
ATOM     12  C   UNL     1       2.976   4.491  20.886  0.00  0.00    +0.000 A 
ATOM     13  C   UNL     1       3.302   4.029  19.593  0.00  0.00    +0.000 A 
ATOM     14  H   UNL     1       5.356   5.967  20.091  0.00  0.00    +0.000 HD
ENDROOT
BRANCH   1  15
ATOM     15  C   UNL     1       6.678   4.541  15.938  0.00  0.00    +0.000 C 
ATOM     16  O   UNL     1       7.895   4.544  15.789  0.00  0.00    +0.000 OA
BRANCH  15  17
ATOM     17  O   UNL     1       5.781   4.434  14.911  0.00  0.00    +0.000 OA
BRANCH  17  19
ATOM     18  C   UNL     1       5.043   3.667  12.743  0.00  0.00    +0.000 C 
ATOM     19  C   UNL     1       6.224   3.887  13.663  0.00  0.00    +0.000 C 
ENDBRANCH  17  19
ENDBRANCH  15  17
ENDBRANCH   1  15
BRANCH   7  20
ATOM     20  O   UNL     1       2.043   1.669  17.056  0.00  0.00    +0.000 OA
ATOM     21  H   UNL     1       2.549   1.270  16.331  0.00  0.00    +0.000 HD
ENDBRANCH   7  20
BRANCH   2  22
ATOM     22  O   UNL     1       7.326   6.515  18.331  0.00  0.00    +0.000 OA
BRANCH  22  23
ATOM     23  C   UNL     1       7.285   7.660  17.470  0.00  0.00    +0.000 C 
ATOM     24  C   UNL     1       8.189   8.766  17.984  0.00  0.00    +0.000 C 
ENDBRANCH  22  23
ENDBRANCH   2  22
TORSDOF 6
ENDMDL
MODEL 9
REMARK VINA RESULT:      -7.1      2.264      2.985
REMARK  Name = 
REMARK  8 active torsions:
REMARK  status: ('A' for Active; 'I' for Inactive)
REMARK    1  A    between atoms: C_1  and  C_2
REMARK    2  A    between atoms: C_2  and  O_3
REMARK    3  A    between atoms: O_3  and  C_4
REMARK    4  A    between atoms: C_4  and  C_6
REMARK    5  A    between atoms: C_7  and  O_8
REMARK    6  A    between atoms: O_8  and  C_9
REMARK    7  A    between atoms: C_9  and  C_10
REMARK    8  A    between atoms: C_15  and  O_16
REMARK                            x       y       z     vdW  Elec       q    Type
REMARK                         _______ _______ _______ _____ _____    ______ ____
ROOT
ATOM      1  C   UNL     1       4.458   6.577  17.578  0.00  0.00    +0.000 A 
ATOM      2  C   UNL     1       3.308   7.347  17.729  0.00  0.00    +0.000 A 
ATOM      3  N   UNL     1       2.485   6.659  18.595  0.00  0.00    +0.000 N 
ATOM      4  C   UNL     1       3.034   5.465  18.994  0.00  0.00    +0.000 A 
ATOM      5  C   UNL     1       4.265   5.375  18.358  0.00  0.00    +0.000 A 
ATOM      6  C   UNL     1       5.038   4.208  18.556  0.00  0.00    +0.000 A 
ATOM      7  C   UNL     1       4.579   3.200  19.402  0.00  0.00    +0.000 A 
ATOM      8  C   UNL     1       3.347   3.303  20.066  0.00  0.00    +0.000 A 
ATOM      9  C   UNL     1       2.881   2.301  20.929  0.00  0.00    +0.000 A 
ATOM     10  C   UNL     1       1.650   2.428  21.580  0.00  0.00    +0.000 A 
ATOM     11  C   UNL     1       0.863   3.556  21.371  0.00  0.00    +0.000 A 
ATOM     12  C   UNL     1       1.299   4.570  20.515  0.00  0.00    +0.000 A 
ATOM     13  C   UNL     1       2.544   4.452  19.863  0.00  0.00    +0.000 A 
ATOM     14  H   UNL     1       1.580   6.976  18.901  0.00  0.00    +0.000 HD
ENDROOT
BRANCH   1  15
ATOM     15  C   UNL     1       5.635   6.871  16.761  0.00  0.00    +0.000 C 
ATOM     16  O   UNL     1       6.576   7.576  17.110  0.00  0.00    +0.000 OA
BRANCH  15  17
ATOM     17  O   UNL     1       5.507   6.325  15.514  0.00  0.00    +0.000 OA
BRANCH  17  19
ATOM     18  C   UNL     1       5.592   4.213  14.346  0.00  0.00    +0.000 C 
ATOM     19  C   UNL     1       6.366   5.238  15.147  0.00  0.00    +0.000 C 
ENDBRANCH  17  19
ENDBRANCH  15  17
ENDBRANCH   1  15
BRANCH   7  20
ATOM     20  O   UNL     1       5.354   2.082  19.586  0.00  0.00    +0.000 OA
ATOM     21  H   UNL     1       4.776   1.339  19.822  0.00  0.00    +0.000 HD
ENDBRANCH   7  20
BRANCH   2  22
ATOM     22  O   UNL     1       2.975   8.538  17.200  0.00  0.00    +0.000 OA
BRANCH  22  23
ATOM     23  C   UNL     1       1.789   9.166  17.704  0.00  0.00    +0.000 C 
ATOM     24  C   UNL     1       2.055  10.610  18.090  0.00  0.00    +0.000 C 
ENDBRANCH  22  23
ENDBRANCH   2  22
TORSDOF 6
ENDMDL
