MODEL 1
REMARK VINA RESULT:      -7.0      0.000      0.000
REMARK  Name = 
REMARK  5 active torsions:
REMARK  status: ('A' for Active; 'I' for Inactive)
REMARK    1  A    between atoms: C_1  and  C_2
REMARK    2  A    between atoms: C_5  and  N_6
REMARK    3  A    between atoms: C_7  and  N_8
REMARK    4  A    between atoms: C_9  and  C_10
REMARK    5  A    between atoms: C_16  and  C_17
REMARK                            x       y       z     vdW  Elec       q    Type
REMARK                         _______ _______ _______ _____ _____    ______ ____
ROOT
ATOM      1  N   UNL     1       3.925   4.841  18.605  0.00  0.00    +0.000 N 
ATOM      2  C   UNL     1       3.731   3.692  19.404  0.00  0.00    +0.000 A 
ATOM      3  C   UNL     1       2.787   3.876  20.357  0.00  0.00    +0.000 A 
ATOM      4  S   UNL     1       2.122   5.466  20.382  0.00  0.00    +0.000 S 
ATOM      5  C   UNL     1       3.053   5.914  18.951  0.00  0.00    +0.000 A 
ATOM      6  S   UNL     1       2.724   7.375  18.199  0.00  0.00    +0.000 S 
ENDROOT
BRANCH   1  11
ATOM      7  C   UNL     1       7.537   4.776  14.079  0.00  0.00    +0.000 C 
ATOM      8  C   UNL     1       6.591   4.898  15.235  0.00  0.00    +0.000 A 
ATOM      9  C   UNL     1       5.246   4.583  15.101  0.00  0.00    +0.000 A 
ATOM     10  C   UNL     1       4.398   4.652  16.210  0.00  0.00    +0.000 A 
ATOM     11  C   UNL     1       4.862   4.966  17.507  0.00  0.00    +0.000 A 
ATOM     12  C   UNL     1       6.221   5.332  17.634  0.00  0.00    +0.000 A 
ATOM     13  C   UNL     1       6.925   5.689  18.916  0.00  0.00    +0.000 C 
ATOM     14  C   UNL     1       7.052   5.318  16.485  0.00  0.00    +0.000 A 
ENDBRANCH   1  11
BRANCH   3  15
ATOM     15  C   UNL     1       2.335   2.860  21.352  0.00  0.00    +0.000 C 
ATOM     16  N   UNL     1       0.985   2.732  21.506  0.00  0.00    +0.000 N 
ATOM     17  O   UNL     1       3.112   2.179  22.006  0.00  0.00    +0.000 OA
ATOM     18  H   UNL     1       0.329   3.299  20.983  0.00  0.00    +0.000 HD
ATOM     19  H   UNL     1       0.635   2.045  22.154  0.00  0.00    +0.000 HD
ENDBRANCH   3  15
BRANCH   2  20
ATOM     20  N   UNL     1       4.447   2.522  19.268  0.00  0.00    +0.000 N 
ATOM     21  H   UNL     1       4.124   1.936  18.502  0.00  0.00    +0.000 HD
ATOM     22  H   UNL     1       5.466   2.660  19.277  0.00  0.00    +0.000 HD
ENDBRANCH   2  20
TORSDOF 3
ENDMDL
MODEL 2
REMARK VINA RESULT:      -6.3      2.686      5.886
REMARK  Name = 
REMARK  5 active torsions:
REMARK  status: ('A' for Active; 'I' for Inactive)
REMARK    1  A    between atoms: C_1  and  C_2
REMARK    2  A    between atoms: C_5  and  N_6
REMARK    3  A    between atoms: C_7  and  N_8
REMARK    4  A    between atoms: C_9  and  C_10
REMARK    5  A    between atoms: C_16  and  C_17
REMARK                            x       y       z     vdW  Elec       q    Type
REMARK                         _______ _______ _______ _____ _____    ______ ____
ROOT
ATOM      1  N   UNL     1       3.923   5.224  18.391  0.00  0.00    +0.000 N 
ATOM      2  C   UNL     1       5.244   4.888  18.016  0.00  0.00    +0.000 A 
ATOM      3  C   UNL     1       5.793   5.801  17.180  0.00  0.00    +0.000 A 
ATOM      4  S   UNL     1       4.727   7.084  16.749  0.00  0.00    +0.000 S 
ATOM      5  C   UNL     1       3.487   6.466  17.843  0.00  0.00    +0.000 A 
ATOM      6  S   UNL     1       2.133   7.407  18.142  0.00  0.00    +0.000 S 
ENDROOT
BRANCH   1  11
ATOM      7  C   UNL     1       0.958   2.118  22.276  0.00  0.00    +0.000 C 
ATOM      8  C   UNL     1       1.632   2.966  21.240  0.00  0.00    +0.000 A 
ATOM      9  C   UNL     1       2.249   4.162  21.578  0.00  0.00    +0.000 A 
ATOM     10  C   UNL     1       2.919   4.904  20.601  0.00  0.00    +0.000 A 
ATOM     11  C   UNL     1       3.066   4.455  19.269  0.00  0.00    +0.000 A 
ATOM     12  C   UNL     1       2.398   3.261  18.914  0.00  0.00    +0.000 A 
ATOM     13  C   UNL     1       2.429   2.597  17.564  0.00  0.00    +0.000 C 
ATOM     14  C   UNL     1       1.669   2.555  19.905  0.00  0.00    +0.000 A 
ENDBRANCH   1  11
BRANCH   3  15
ATOM     15  C   UNL     1       7.173   5.751  16.613  0.00  0.00    +0.000 C 
ATOM     16  N   UNL     1       7.845   6.937  16.569  0.00  0.00    +0.000 N 
ATOM     17  O   UNL     1       7.684   4.720  16.198  0.00  0.00    +0.000 OA
ATOM     18  H   UNL     1       7.430   7.802  16.893  0.00  0.00    +0.000 HD
ATOM     19  H   UNL     1       8.786   6.947  16.210  0.00  0.00    +0.000 HD
ENDBRANCH   3  15
BRANCH   2  20
ATOM     20  N   UNL     1       5.895   3.742  18.416  0.00  0.00    +0.000 N 
ATOM     21  H   UNL     1       6.364   3.834  19.314  0.00  0.00    +0.000 HD
ATOM     22  H   UNL     1       5.320   2.894  18.338  0.00  0.00    +0.000 HD
ENDBRANCH   2  20
TORSDOF 3
ENDMDL
MODEL 3
REMARK VINA RESULT:      -6.2      3.459      5.950
REMARK  Name = 
REMARK  5 active torsions:
REMARK  status: ('A' for Active; 'I' for Inactive)
REMARK    1  A    between atoms: C_1  and  C_2
REMARK    2  A    between atoms: C_5  and  N_6
REMARK    3  A    between atoms: C_7  and  N_8
REMARK    4  A    between atoms: C_9  and  C_10
REMARK    5  A    between atoms: C_16  and  C_17
REMARK                            x       y       z     vdW  Elec       q    Type
REMARK                         _______ _______ _______ _____ _____    ______ ____
ROOT
ATOM      1  N   UNL     1       3.711   6.004  17.812  0.00  0.00    +0.000 N 
ATOM      2  C   UNL     1       5.048   6.210  17.403  0.00  0.00    +0.000 A 
ATOM      3  C   UNL     1       5.620   5.084  16.915  0.00  0.00    +0.000 A 
ATOM      4  S   UNL     1       4.598   3.698  16.979  0.00  0.00    +0.000 S 
ATOM      5  C   UNL     1       3.254   4.675  17.576  0.00  0.00    +0.000 A 
ATOM      6  S   UNL     1       1.731   3.982  17.666  0.00  0.00    +0.000 S 
ENDROOT
BRANCH   1  11
ATOM      7  C   UNL     1       0.613  10.407  19.947  0.00  0.00    +0.000 C 
ATOM      8  C   UNL     1       1.322   9.218  19.371  0.00  0.00    +0.000 A 
ATOM      9  C   UNL     1       1.810   9.230  18.072  0.00  0.00    +0.000 A 
ATOM     10  C   UNL     1       2.517   8.129  17.580  0.00  0.00    +0.000 A 
ATOM     11  C   UNL     1       2.830   7.005  18.378  0.00  0.00    +0.000 A 
ATOM     12  C   UNL     1       2.293   6.973  19.684  0.00  0.00    +0.000 A 
ATOM     13  C   UNL     1       2.508   5.886  20.703  0.00  0.00    +0.000 C 
ATOM     14  C   UNL     1       1.523   8.072  20.144  0.00  0.00    +0.000 A 
ENDBRANCH   1  11
BRANCH   3  15
ATOM     15  C   UNL     1       7.011   4.966  16.388  0.00  0.00    +0.000 C 
ATOM     16  N   UNL     1       7.886   4.261  17.162  0.00  0.00    +0.000 N 
ATOM     17  O   UNL     1       7.367   5.471  15.333  0.00  0.00    +0.000 OA
ATOM     18  H   UNL     1       7.611   3.850  18.046  0.00  0.00    +0.000 HD
ATOM     19  H   UNL     1       8.831   4.141  16.836  0.00  0.00    +0.000 HD
ENDBRANCH   3  15
BRANCH   2  20
ATOM     20  N   UNL     1       5.719   7.408  17.523  0.00  0.00    +0.000 N 
ATOM     21  H   UNL     1       6.190   7.522  18.417  0.00  0.00    +0.000 HD
ATOM     22  H   UNL     1       6.316   7.627  16.715  0.00  0.00    +0.000 HD
ENDBRANCH   2  20
TORSDOF 3
ENDMDL
MODEL 4
REMARK VINA RESULT:      -6.1      3.253      6.080
REMARK  Name = 
REMARK  5 active torsions:
REMARK  status: ('A' for Active; 'I' for Inactive)
REMARK    1  A    between atoms: C_1  and  C_2
REMARK    2  A    between atoms: C_5  and  N_6
REMARK    3  A    between atoms: C_7  and  N_8
REMARK    4  A    between atoms: C_9  and  C_10
REMARK    5  A    between atoms: C_16  and  C_17
REMARK                            x       y       z     vdW  Elec       q    Type
REMARK                         _______ _______ _______ _____ _____    ______ ____
ROOT
ATOM      1  N   UNL     1       5.362   4.614  17.962  0.00  0.00    +0.000 N 
ATOM      2  C   UNL     1       5.225   4.340  16.582  0.00  0.00    +0.000 A 
ATOM      3  C   UNL     1       6.273   4.797  15.857  0.00  0.00    +0.000 A 
ATOM      4  S   UNL     1       7.453   5.638  16.788  0.00  0.00    +0.000 S 
ATOM      5  C   UNL     1       6.588   5.266  18.282  0.00  0.00    +0.000 A 
ATOM      6  S   UNL     1       7.326   5.605  19.747  0.00  0.00    +0.000 S 
ENDROOT
BRANCH   1  11
ATOM      7  C   UNL     1       1.444   2.713  21.779  0.00  0.00    +0.000 C 
ATOM      8  C   UNL     1       2.509   3.252  20.873  0.00  0.00    +0.000 A 
ATOM      9  C   UNL     1       3.576   2.463  20.466  0.00  0.00    +0.000 A 
ATOM     10  C   UNL     1       4.524   2.974  19.575  0.00  0.00    +0.000 A 
ATOM     11  C   UNL     1       4.414   4.260  18.998  0.00  0.00    +0.000 A 
ATOM     12  C   UNL     1       3.355   5.080  19.449  0.00  0.00    +0.000 A 
ATOM     13  C   UNL     1       3.044   6.470  18.964  0.00  0.00    +0.000 C 
ATOM     14  C   UNL     1       2.439   4.566  20.402  0.00  0.00    +0.000 A 
ENDBRANCH   1  11
BRANCH   3  15
ATOM     15  C   UNL     1       6.444   4.657  14.381  0.00  0.00    +0.000 C 
ATOM     16  N   UNL     1       7.529   5.286  13.842  0.00  0.00    +0.000 N 
ATOM     17  O   UNL     1       5.664   4.030  13.677  0.00  0.00    +0.000 OA
ATOM     18  H   UNL     1       8.175   5.822  14.408  0.00  0.00    +0.000 HD
ATOM     19  H   UNL     1       7.693   5.203  12.852  0.00  0.00    +0.000 HD
ENDBRANCH   3  15
BRANCH   2  20
ATOM     20  N   UNL     1       4.132   3.716  16.021  0.00  0.00    +0.000 N 
ATOM     21  H   UNL     1       3.388   3.523  16.687  0.00  0.00    +0.000 HD
ATOM     22  H   UNL     1       3.802   4.164  15.156  0.00  0.00    +0.000 HD
ENDBRANCH   2  20
TORSDOF 3
ENDMDL
MODEL 5
REMARK VINA RESULT:      -6.1      2.916      5.997
REMARK  Name = 
REMARK  5 active torsions:
REMARK  status: ('A' for Active; 'I' for Inactive)
REMARK    1  A    between atoms: C_1  and  C_2
REMARK    2  A    between atoms: C_5  and  N_6
REMARK    3  A    between atoms: C_7  and  N_8
REMARK    4  A    between atoms: C_9  and  C_10
REMARK    5  A    between atoms: C_16  and  C_17
REMARK                            x       y       z     vdW  Elec       q    Type
REMARK                         _______ _______ _______ _____ _____    ______ ____
ROOT
ATOM      1  N   UNL     1       3.983   5.149  17.531  0.00  0.00    +0.000 N 
ATOM      2  C   UNL     1       4.904   4.424  16.741  0.00  0.00    +0.000 A 
ATOM      3  C   UNL     1       5.512   5.199  15.812  0.00  0.00    +0.000 A 
ATOM      4  S   UNL     1       4.962   6.832  15.797  0.00  0.00    +0.000 S 
ATOM      5  C   UNL     1       3.937   6.535  17.203  0.00  0.00    +0.000 A 
ATOM      6  S   UNL     1       3.203   7.839  17.957  0.00  0.00    +0.000 S 
ENDROOT
BRANCH   1  11
ATOM      7  C   UNL     1       1.181   2.596  21.909  0.00  0.00    +0.000 C 
ATOM      8  C   UNL     1       1.856   3.348  20.802  0.00  0.00    +0.000 A 
ATOM      9  C   UNL     1       3.142   3.848  20.950  0.00  0.00    +0.000 A 
ATOM     10  C   UNL     1       3.768   4.496  19.880  0.00  0.00    +0.000 A 
ATOM     11  C   UNL     1       3.173   4.610  18.604  0.00  0.00    +0.000 A 
ATOM     12  C   UNL     1       1.846   4.143  18.467  0.00  0.00    +0.000 A 
ATOM     13  C   UNL     1       1.030   4.154  17.202  0.00  0.00    +0.000 C 
ATOM     14  C   UNL     1       1.204   3.546  19.581  0.00  0.00    +0.000 A 
ENDBRANCH   1  11
BRANCH   3  15
ATOM     15  C   UNL     1       6.544   4.747  14.833  0.00  0.00    +0.000 C 
ATOM     16  N   UNL     1       7.688   5.490  14.783  0.00  0.00    +0.000 N 
ATOM     17  O   UNL     1       6.389   3.778  14.104  0.00  0.00    +0.000 OA
ATOM     18  H   UNL     1       7.825   6.305  15.369  0.00  0.00    +0.000 HD
ATOM     19  H   UNL     1       8.419   5.211  14.150  0.00  0.00    +0.000 HD
ENDBRANCH   3  15
BRANCH   2  20
ATOM     20  N   UNL     1       5.135   3.072  16.864  0.00  0.00    +0.000 N 
ATOM     21  H   UNL     1       5.747   2.697  16.143  0.00  0.00    +0.000 HD
ATOM     22  H   UNL     1       5.399   2.785  17.816  0.00  0.00    +0.000 HD
ENDBRANCH   2  20
TORSDOF 3
ENDMDL
MODEL 6
REMARK VINA RESULT:      -5.7      3.160      5.859
REMARK  Name = 
REMARK  5 active torsions:
REMARK  status: ('A' for Active; 'I' for Inactive)
REMARK    1  A    between atoms: C_1  and  C_2
REMARK    2  A    between atoms: C_5  and  N_6
REMARK    3  A    between atoms: C_7  and  N_8
REMARK    4  A    between atoms: C_9  and  C_10
REMARK    5  A    between atoms: C_16  and  C_17
REMARK                            x       y       z     vdW  Elec       q    Type
REMARK                         _______ _______ _______ _____ _____    ______ ____
ROOT
ATOM      1  N   UNL     1       4.366   4.875  17.001  0.00  0.00    +0.000 N 
ATOM      2  C   UNL     1       5.242   4.237  16.094  0.00  0.00    +0.000 A 
ATOM      3  C   UNL     1       5.787   5.101  15.205  0.00  0.00    +0.000 A 
ATOM      4  S   UNL     1       5.225   6.721  15.372  0.00  0.00    +0.000 S 
ATOM      5  C   UNL     1       4.290   6.284  16.804  0.00  0.00    +0.000 A 
ATOM      6  S   UNL     1       3.594   7.505  17.717  0.00  0.00    +0.000 S 
ENDROOT
BRANCH   1  11
ATOM      7  C   UNL     1       1.029   2.756  21.233  0.00  0.00    +0.000 C 
ATOM      8  C   UNL     1       1.920   3.203  20.114  0.00  0.00    +0.000 A 
ATOM      9  C   UNL     1       1.405   3.515  18.864  0.00  0.00    +0.000 A 
ATOM     10  C   UNL     1       2.251   3.984  17.855  0.00  0.00    +0.000 A 
ATOM     11  C   UNL     1       3.627   4.230  18.067  0.00  0.00    +0.000 A 
ATOM     12  C   UNL     1       4.160   3.868  19.324  0.00  0.00    +0.000 A 
ATOM     13  C   UNL     1       5.587   4.052  19.767  0.00  0.00    +0.000 C 
ATOM     14  C   UNL     1       3.297   3.333  20.314  0.00  0.00    +0.000 A 
ENDBRANCH   1  11
BRANCH   3  15
ATOM     15  C   UNL     1       6.761   4.753  14.129  0.00  0.00    +0.000 C 
ATOM     16  N   UNL     1       7.893   5.513  14.077  0.00  0.00    +0.000 N 
ATOM     17  O   UNL     1       6.569   3.851  13.326  0.00  0.00    +0.000 OA
ATOM     18  H   UNL     1       8.059   6.274  14.725  0.00  0.00    +0.000 HD
ATOM     19  H   UNL     1       8.585   5.302  13.378  0.00  0.00    +0.000 HD
ENDBRANCH   3  15
BRANCH   2  20
ATOM     20  N   UNL     1       5.491   2.882  16.079  0.00  0.00    +0.000 N 
ATOM     21  H   UNL     1       4.904   2.355  16.722  0.00  0.00    +0.000 HD
ATOM     22  H   UNL     1       5.527   2.481  15.134  0.00  0.00    +0.000 HD
ENDBRANCH   2  20
TORSDOF 3
ENDMDL
MODEL 7
REMARK VINA RESULT:      -5.6      3.769      6.232
REMARK  Name = 
REMARK  5 active torsions:
REMARK  status: ('A' for Active; 'I' for Inactive)
REMARK    1  A    between atoms: C_1  and  C_2
REMARK    2  A    between atoms: C_5  and  N_6
REMARK    3  A    between atoms: C_7  and  N_8
REMARK    4  A    between atoms: C_9  and  C_10
REMARK    5  A    between atoms: C_16  and  C_17
REMARK                            x       y       z     vdW  Elec       q    Type
REMARK                         _______ _______ _______ _____ _____    ______ ____
ROOT
ATOM      1  N   UNL     1       5.227   4.530  16.819  0.00  0.00    +0.000 N 
ATOM      2  C   UNL     1       5.523   4.388  15.445  0.00  0.00    +0.000 A 
ATOM      3  C   UNL     1       6.727   4.914  15.117  0.00  0.00    +0.000 A 
ATOM      4  S   UNL     1       7.543   5.665  16.435  0.00  0.00    +0.000 S 
ATOM      5  C   UNL     1       6.278   5.151  17.555  0.00  0.00    +0.000 A 
ATOM      6  S   UNL     1       6.527   5.350  19.200  0.00  0.00    +0.000 S 
ENDROOT
BRANCH   1  11
ATOM      7  C   UNL     1       0.315   2.366  18.993  0.00  0.00    +0.000 C 
ATOM      8  C   UNL     1       1.620   2.940  18.532  0.00  0.00    +0.000 A 
ATOM      9  C   UNL     1       2.667   2.120  18.136  0.00  0.00    +0.000 A 
ATOM     10  C   UNL     1       3.854   2.683  17.656  0.00  0.00    +0.000 A 
ATOM     11  C   UNL     1       4.022   4.076  17.482  0.00  0.00    +0.000 A 
ATOM     12  C   UNL     1       2.974   4.912  17.929  0.00  0.00    +0.000 A 
ATOM     13  C   UNL     1       2.936   6.413  17.831  0.00  0.00    +0.000 C 
ATOM     14  C   UNL     1       1.803   4.324  18.473  0.00  0.00    +0.000 A 
ENDBRANCH   1  11
BRANCH   3  15
ATOM     15  C   UNL     1       7.341   4.915  13.757  0.00  0.00    +0.000 C 
ATOM     16  N   UNL     1       8.426   5.727  13.591  0.00  0.00    +0.000 N 
ATOM     17  O   UNL     1       6.907   4.245  12.831  0.00  0.00    +0.000 OA
ATOM     18  H   UNL     1       8.787   6.300  14.343  0.00  0.00    +0.000 HD
ATOM     19  H   UNL     1       8.883   5.745  12.694  0.00  0.00    +0.000 HD
ENDBRANCH   3  15
BRANCH   2  20
ATOM     20  N   UNL     1       4.672   3.817  14.524  0.00  0.00    +0.000 N 
ATOM     21  H   UNL     1       4.451   2.845  14.723  0.00  0.00    +0.000 HD
ATOM     22  H   UNL     1       3.845   4.392  14.317  0.00  0.00    +0.000 HD
ENDBRANCH   2  20
TORSDOF 3
ENDMDL
MODEL 8
REMARK VINA RESULT:      -5.5      0.518      1.689
REMARK  Name = 
REMARK  5 active torsions:
REMARK  status: ('A' for Active; 'I' for Inactive)
REMARK    1  A    between atoms: C_1  and  C_2
REMARK    2  A    between atoms: C_5  and  N_6
REMARK    3  A    between atoms: C_7  and  N_8
REMARK    4  A    between atoms: C_9  and  C_10
REMARK    5  A    between atoms: C_16  and  C_17
REMARK                            x       y       z     vdW  Elec       q    Type
REMARK                         _______ _______ _______ _____ _____    ______ ____
ROOT
ATOM      1  N   UNL     1       3.936   4.596  18.673  0.00  0.00    +0.000 N 
ATOM      2  C   UNL     1       3.699   3.493  19.524  0.00  0.00    +0.000 A 
ATOM      3  C   UNL     1       2.788   3.767  20.487  0.00  0.00    +0.000 A 
ATOM      4  S   UNL     1       2.210   5.390  20.460  0.00  0.00    +0.000 S 
ATOM      5  C   UNL     1       3.130   5.728  18.992  0.00  0.00    +0.000 A 
ATOM      6  S   UNL     1       2.862   7.173  18.186  0.00  0.00    +0.000 S 
ENDROOT
BRANCH   1  11
ATOM      7  C   UNL     1       7.593   5.311  14.240  0.00  0.00    +0.000 C 
ATOM      8  C   UNL     1       6.693   5.031  15.406  0.00  0.00    +0.000 A 
ATOM      9  C   UNL     1       6.951   5.566  16.660  0.00  0.00    +0.000 A 
ATOM     10  C   UNL     1       6.064   5.335  17.715  0.00  0.00    +0.000 A 
ATOM     11  C   UNL     1       4.853   4.626  17.552  0.00  0.00    +0.000 A 
ATOM     12  C   UNL     1       4.613   4.042  16.288  0.00  0.00    +0.000 A 
ATOM     13  C   UNL     1       3.390   3.260  15.892  0.00  0.00    +0.000 C 
ATOM     14  C   UNL     1       5.556   4.234  15.247  0.00  0.00    +0.000 A 
ENDBRANCH   1  11
BRANCH   3  15
ATOM     15  C   UNL     1       2.305   2.817  21.532  0.00  0.00    +0.000 C 
ATOM     16  N   UNL     1       0.953   2.756  21.707  0.00  0.00    +0.000 N 
ATOM     17  O   UNL     1       3.061   2.133  22.209  0.00  0.00    +0.000 OA
ATOM     18  H   UNL     1       0.315   3.327  21.166  0.00  0.00    +0.000 HD
ATOM     19  H   UNL     1       0.583   2.115  22.390  0.00  0.00    +0.000 HD
ENDBRANCH   3  15
BRANCH   2  20
ATOM     20  N   UNL     1       4.349   2.282  19.421  0.00  0.00    +0.000 N 
ATOM     21  H   UNL     1       3.922   1.648  18.750  0.00  0.00    +0.000 HD
ATOM     22  H   UNL     1       5.367   2.369  19.312  0.00  0.00    +0.000 HD
ENDBRANCH   2  20
TORSDOF 3
ENDMDL
MODEL 9
REMARK VINA RESULT:      -5.5      9.835     11.615
REMARK  Name = 
REMARK  5 active torsions:
REMARK  status: ('A' for Active; 'I' for Inactive)
REMARK    1  A    between atoms: C_1  and  C_2
REMARK    2  A    between atoms: C_5  and  N_6
REMARK    3  A    between atoms: C_7  and  N_8
REMARK    4  A    between atoms: C_9  and  C_10
REMARK    5  A    between atoms: C_16  and  C_17
REMARK                            x       y       z     vdW  Elec       q    Type
REMARK                         _______ _______ _______ _____ _____    ______ ____
ROOT
ATOM      1  N   UNL     1       9.554  13.896  18.565  0.00  0.00    +0.000 N 
ATOM      2  C   UNL     1      10.378  14.683  17.729  0.00  0.00    +0.000 A 
ATOM      3  C   UNL     1      10.362  15.993  18.071  0.00  0.00    +0.000 A 
ATOM      4  S   UNL     1       9.304  16.361  19.380  0.00  0.00    +0.000 S 
ATOM      5  C   UNL     1       8.931  14.649  19.602  0.00  0.00    +0.000 A 
ATOM      6  S   UNL     1       8.060  14.182  20.956  0.00  0.00    +0.000 S 
ENDROOT
BRANCH   1  11
ATOM      7  C   UNL     1       8.181   8.277  18.285  0.00  0.00    +0.000 C 
ATOM      8  C   UNL     1       8.613   9.712  18.285  0.00  0.00    +0.000 A 
ATOM      9  C   UNL     1       7.937  10.668  17.539  0.00  0.00    +0.000 A 
ATOM     10  C   UNL     1       8.327  12.009  17.602  0.00  0.00    +0.000 A 
ATOM     11  C   UNL     1       9.353  12.466  18.459  0.00  0.00    +0.000 A 
ATOM     12  C   UNL     1      10.071  11.487  19.183  0.00  0.00    +0.000 A 
ATOM     13  C   UNL     1      11.188  11.749  20.158  0.00  0.00    +0.000 C 
ATOM     14  C   UNL     1       9.703  10.124  19.057  0.00  0.00    +0.000 A 
ENDBRANCH   1  11
BRANCH   3  15
ATOM     15  C   UNL     1      11.132  17.083  17.402  0.00  0.00    +0.000 C 
ATOM     16  N   UNL     1      10.413  18.181  17.028  0.00  0.00    +0.000 N 
ATOM     17  O   UNL     1      12.333  17.011  17.184  0.00  0.00    +0.000 OA
ATOM     18  H   UNL     1       9.415  18.249  17.187  0.00  0.00    +0.000 HD
ATOM     19  H   UNL     1      10.896  18.948  16.589  0.00  0.00    +0.000 HD
ENDBRANCH   3  15
BRANCH   2  20
ATOM     20  N   UNL     1      11.090  14.191  16.657  0.00  0.00    +0.000 N 
ATOM     21  H   UNL     1      10.796  14.576  15.763  0.00  0.00    +0.000 HD
ATOM     22  H   UNL     1      12.108  14.210  16.797  0.00  0.00    +0.000 HD
ENDBRANCH   2  20
TORSDOF 3
ENDMDL
