MODEL 1
REMARK VINA RESULT:      -7.7      0.000      0.000
REMARK  Name = 
REMARK  5 active torsions:
REMARK  status: ('A' for Active; 'I' for Inactive)
REMARK    1  A    between atoms: C_7  and  C_8
REMARK    2  A    between atoms: C_8  and  N_9
REMARK    3  A    between atoms: N_12  and  C_13
REMARK    4  A    between atoms: C_13  and  C_14
REMARK    5  A    between atoms: C_13  and  C_20
REMARK                            x       y       z     vdW  Elec       q    Type
REMARK                         _______ _______ _______ _____ _____    ______ ____
ROOT
ATOM      1  N   UNL     1       1.252   7.799  19.896  0.00  0.00    +0.000 NA
ATOM      2  C   UNL     1       1.650   8.191  18.531  0.00  0.00    +0.000 C 
ATOM      3  C   UNL     1       3.109   7.874  18.090  0.00  0.00    +0.000 C 
ATOM      4  N   UNL     1       3.700   6.566  18.485  0.00  0.00    +0.000 NA
ATOM      5  C   UNL     1       3.271   6.231  19.852  0.00  0.00    +0.000 C 
ATOM      6  C   UNL     1       1.767   6.436  20.151  0.00  0.00    +0.000 C 
ENDROOT
BRANCH   1   7
ATOM      7  C   UNL     1       1.713   8.748  20.932  0.00  0.00    +0.000 C 
BRANCH   7  14
ATOM      8  F   UNL     1       1.353  11.349  19.966  0.00  0.00    +0.000 F 
ATOM      9  C   UNL     1       0.603  11.001  21.027  0.00  0.00    +0.000 A 
ATOM     10  C   UNL     1      -0.200  11.972  21.613  0.00  0.00    +0.000 A 
ATOM     11  C   UNL     1      -0.971  11.652  22.723  0.00  0.00    +0.000 A 
ATOM     12  C   UNL     1      -0.942  10.349  23.223  0.00  0.00    +0.000 A 
ATOM     13  C   UNL     1      -0.118   9.377  22.637  0.00  0.00    +0.000 A 
ATOM     14  C   UNL     1       0.678   9.688  21.521  0.00  0.00    +0.000 A 
ENDBRANCH   7  14
ENDBRANCH   1   7
BRANCH   4  15
ATOM     15  C   UNL     1       3.486   5.506  17.458  0.00  0.00    +0.000 C 
BRANCH  15  16
ATOM     16  C   UNL     1       4.791   5.237  16.672  0.00  0.00    +0.000 A 
ATOM     17  C   UNL     1       4.815   4.366  15.564  0.00  0.00    +0.000 A 
ATOM     18  C   UNL     1       5.992   4.125  14.854  0.00  0.00    +0.000 A 
ATOM     19  C   UNL     1       7.179   4.726  15.261  0.00  0.00    +0.000 A 
ATOM     20  C   UNL     1       7.183   5.573  16.369  0.00  0.00    +0.000 A 
ATOM     21  C   UNL     1       5.998   5.838  17.063  0.00  0.00    +0.000 A 
ENDBRANCH  15  16
BRANCH  15  22
ATOM     22  C   UNL     1       2.927   4.162  17.982  0.00  0.00    +0.000 A 
ATOM     23  C   UNL     1       3.788   3.241  18.612  0.00  0.00    +0.000 A 
ATOM     24  C   UNL     1       3.294   2.066  19.191  0.00  0.00    +0.000 A 
ATOM     25  C   UNL     1       1.928   1.793  19.166  0.00  0.00    +0.000 A 
ATOM     26  C   UNL     1       1.061   2.678  18.531  0.00  0.00    +0.000 A 
ATOM     27  C   UNL     1       1.559   3.838  17.929  0.00  0.00    +0.000 A 
ENDBRANCH  15  22
ENDBRANCH   4  15
TORSDOF 5
ENDMDL
MODEL 2
REMARK VINA RESULT:      -7.6      0.824      1.537
REMARK  Name = 
REMARK  5 active torsions:
REMARK  status: ('A' for Active; 'I' for Inactive)
REMARK    1  A    between atoms: C_7  and  C_8
REMARK    2  A    between atoms: C_8  and  N_9
REMARK    3  A    between atoms: N_12  and  C_13
REMARK    4  A    between atoms: C_13  and  C_14
REMARK    5  A    between atoms: C_13  and  C_20
REMARK                            x       y       z     vdW  Elec       q    Type
REMARK                         _______ _______ _______ _____ _____    ______ ____
ROOT
ATOM      1  N   UNL     1       1.010   8.700  18.990  0.00  0.00    +0.000 NA
ATOM      2  C   UNL     1       1.754   8.740  17.716  0.00  0.00    +0.000 C 
ATOM      3  C   UNL     1       3.205   8.179  17.714  0.00  0.00    +0.000 C 
ATOM      4  N   UNL     1       3.484   6.932  18.478  0.00  0.00    +0.000 NA
ATOM      5  C   UNL     1       2.720   6.951  19.735  0.00  0.00    +0.000 C 
ATOM      6  C   UNL     1       1.238   7.377  19.612  0.00  0.00    +0.000 C 
ENDROOT
BRANCH   1   7
ATOM      7  C   UNL     1       1.377   9.796  19.913  0.00  0.00    +0.000 C 
BRANCH   7  14
ATOM      8  F   UNL     1      -0.423  11.918  19.625  0.00  0.00    +0.000 F 
ATOM      9  C   UNL     1      -0.448  11.275  20.806  0.00  0.00    +0.000 A 
ATOM     10  C   UNL     1      -1.275  11.768  21.808  0.00  0.00    +0.000 A 
ATOM     11  C   UNL     1      -1.310  11.140  23.046  0.00  0.00    +0.000 A 
ATOM     12  C   UNL     1      -0.524  10.008  23.260  0.00  0.00    +0.000 A 
ATOM     13  C   UNL     1       0.321   9.523  22.251  0.00  0.00    +0.000 A 
ATOM     14  C   UNL     1       0.377  10.155  20.996  0.00  0.00    +0.000 A 
ENDBRANCH   7  14
ENDBRANCH   1   7
BRANCH   4  15
ATOM     15  C   UNL     1       3.336   5.704  17.645  0.00  0.00    +0.000 C 
BRANCH  15  16
ATOM     16  C   UNL     1       4.681   5.332  16.978  0.00  0.00    +0.000 A 
ATOM     17  C   UNL     1       5.869   6.024  17.286  0.00  0.00    +0.000 A 
ATOM     18  C   UNL     1       7.083   5.687  16.686  0.00  0.00    +0.000 A 
ATOM     19  C   UNL     1       7.126   4.671  15.738  0.00  0.00    +0.000 A 
ATOM     20  C   UNL     1       5.958   3.988  15.399  0.00  0.00    +0.000 A 
ATOM     21  C   UNL     1       4.746   4.306  16.022  0.00  0.00    +0.000 A 
ENDBRANCH  15  16
BRANCH  15  22
ATOM     22  C   UNL     1       2.775   4.459  18.374  0.00  0.00    +0.000 A 
ATOM     23  C   UNL     1       1.495   3.971  18.047  0.00  0.00    +0.000 A 
ATOM     24  C   UNL     1       1.005   2.786  18.610  0.00  0.00    +0.000 A 
ATOM     25  C   UNL     1       1.789   2.057  19.502  0.00  0.00    +0.000 A 
ATOM     26  C   UNL     1       3.049   2.531  19.855  0.00  0.00    +0.000 A 
ATOM     27  C   UNL     1       3.526   3.729  19.313  0.00  0.00    +0.000 A 
ENDBRANCH  15  22
ENDBRANCH   4  15
TORSDOF 5
ENDMDL
MODEL 3
REMARK VINA RESULT:      -7.4      2.872      8.015
REMARK  Name = 
REMARK  5 active torsions:
REMARK  status: ('A' for Active; 'I' for Inactive)
REMARK    1  A    between atoms: C_7  and  C_8
REMARK    2  A    between atoms: C_8  and  N_9
REMARK    3  A    between atoms: N_12  and  C_13
REMARK    4  A    between atoms: C_13  and  C_14
REMARK    5  A    between atoms: C_13  and  C_20
REMARK                            x       y       z     vdW  Elec       q    Type
REMARK                         _______ _______ _______ _____ _____    ______ ____
ROOT
ATOM      1  N   UNL     1       6.299   4.305  16.567  0.00  0.00    +0.000 NA
ATOM      2  C   UNL     1       6.666   4.759  17.922  0.00  0.00    +0.000 C 
ATOM      3  C   UNL     1       6.154   6.158  18.372  0.00  0.00    +0.000 C 
ATOM      4  N   UNL     1       4.765   6.554  18.013  0.00  0.00    +0.000 NA
ATOM      5  C   UNL     1       4.459   6.077  16.655  0.00  0.00    +0.000 C 
ATOM      6  C   UNL     1       4.870   4.618  16.349  0.00  0.00    +0.000 C 
ENDROOT
BRANCH   1   7
ATOM      7  C   UNL     1       7.144   4.895  15.506  0.00  0.00    +0.000 C 
BRANCH   7  14
ATOM      8  F   UNL     1       8.695   5.803  13.362  0.00  0.00    +0.000 F 
ATOM      9  C   UNL     1       7.699   4.953  13.056  0.00  0.00    +0.000 A 
ATOM     10  C   UNL     1       7.455   4.678  11.715  0.00  0.00    +0.000 A 
ATOM     11  C   UNL     1       6.421   3.820  11.363  0.00  0.00    +0.000 A 
ATOM     12  C   UNL     1       5.650   3.232  12.366  0.00  0.00    +0.000 A 
ATOM     13  C   UNL     1       5.889   3.525  13.717  0.00  0.00    +0.000 A 
ATOM     14  C   UNL     1       6.924   4.400  14.089  0.00  0.00    +0.000 A 
ENDBRANCH   7  14
ENDBRANCH   1   7
BRANCH   4  15
ATOM     15  C   UNL     1       3.774   6.192  19.068  0.00  0.00    +0.000 C 
BRANCH  15  16
ATOM     16  C   UNL     1       2.710   7.305  19.220  0.00  0.00    +0.000 A 
ATOM     17  C   UNL     1       2.436   8.207  18.173  0.00  0.00    +0.000 A 
ATOM     18  C   UNL     1       1.474   9.209  18.310  0.00  0.00    +0.000 A 
ATOM     19  C   UNL     1       0.791   9.350  19.513  0.00  0.00    +0.000 A 
ATOM     20  C   UNL     1       1.063   8.484  20.571  0.00  0.00    +0.000 A 
ATOM     21  C   UNL     1       2.006   7.461  20.424  0.00  0.00    +0.000 A 
ENDBRANCH  15  16
BRANCH  15  22
ATOM     22  C   UNL     1       3.058   4.833  18.883  0.00  0.00    +0.000 A 
ATOM     23  C   UNL     1       1.889   4.756  18.100  0.00  0.00    +0.000 A 
ATOM     24  C   UNL     1       1.281   3.525  17.827  0.00  0.00    +0.000 A 
ATOM     25  C   UNL     1       1.834   2.344  18.318  0.00  0.00    +0.000 A 
ATOM     26  C   UNL     1       2.977   2.399  19.111  0.00  0.00    +0.000 A 
ATOM     27  C   UNL     1       3.568   3.631  19.406  0.00  0.00    +0.000 A 
ENDBRANCH  15  22
ENDBRANCH   4  15
TORSDOF 5
ENDMDL
MODEL 4
REMARK VINA RESULT:      -7.4      1.018      1.599
REMARK  Name = 
REMARK  5 active torsions:
REMARK  status: ('A' for Active; 'I' for Inactive)
REMARK    1  A    between atoms: C_7  and  C_8
REMARK    2  A    between atoms: C_8  and  N_9
REMARK    3  A    between atoms: N_12  and  C_13
REMARK    4  A    between atoms: C_13  and  C_14
REMARK    5  A    between atoms: C_13  and  C_20
REMARK                            x       y       z     vdW  Elec       q    Type
REMARK                         _______ _______ _______ _____ _____    ______ ____
ROOT
ATOM      1  N   UNL     1       1.113   8.705  19.229  0.00  0.00    +0.000 NA
ATOM      2  C   UNL     1       1.704   8.754  17.878  0.00  0.00    +0.000 C 
ATOM      3  C   UNL     1       3.155   8.218  17.710  0.00  0.00    +0.000 C 
ATOM      4  N   UNL     1       3.542   6.979  18.439  0.00  0.00    +0.000 NA
ATOM      5  C   UNL     1       2.928   6.990  19.776  0.00  0.00    +0.000 C 
ATOM      6  C   UNL     1       1.434   7.389  19.824  0.00  0.00    +0.000 C 
ENDROOT
BRANCH   1   7
ATOM      7  C   UNL     1       1.564   9.811  20.101  0.00  0.00    +0.000 C 
BRANCH   7  14
ATOM      8  F   UNL     1       1.236   8.856  22.710  0.00  0.00    +0.000 F 
ATOM      9  C   UNL     1       0.390   9.828  22.323  0.00  0.00    +0.000 A 
ATOM     10  C   UNL     1      -0.626  10.202  23.194  0.00  0.00    +0.000 A 
ATOM     11  C   UNL     1      -1.530  11.188  22.818  0.00  0.00    +0.000 A 
ATOM     12  C   UNL     1      -1.391  11.802  21.573  0.00  0.00    +0.000 A 
ATOM     13  C   UNL     1      -0.373  11.409  20.691  0.00  0.00    +0.000 A 
ATOM     14  C   UNL     1       0.541  10.405  21.052  0.00  0.00    +0.000 A 
ENDBRANCH   7  14
ENDBRANCH   1   7
BRANCH   4  15
ATOM     15  C   UNL     1       3.321   5.745  17.631  0.00  0.00    +0.000 C 
BRANCH  15  16
ATOM     16  C   UNL     1       4.626   5.321  16.916  0.00  0.00    +0.000 A 
ATOM     17  C   UNL     1       4.623   4.342  15.903  0.00  0.00    +0.000 A 
ATOM     18  C   UNL     1       5.800   3.962  15.255  0.00  0.00    +0.000 A 
ATOM     19  C   UNL     1       7.011   4.530  15.635  0.00  0.00    +0.000 A 
ATOM     20  C   UNL     1       7.041   5.484  16.652  0.00  0.00    +0.000 A 
ATOM     21  C   UNL     1       5.858   5.887  17.280  0.00  0.00    +0.000 A 
ENDBRANCH  15  16
BRANCH  15  22
ATOM     22  C   UNL     1       2.751   4.529  18.400  0.00  0.00    +0.000 A 
ATOM     23  C   UNL     1       1.470   4.037  18.086  0.00  0.00    +0.000 A 
ATOM     24  C   UNL     1       0.972   2.875  18.688  0.00  0.00    +0.000 A 
ATOM     25  C   UNL     1       1.749   2.173  19.607  0.00  0.00    +0.000 A 
ATOM     26  C   UNL     1       3.010   2.653  19.949  0.00  0.00    +0.000 A 
ATOM     27  C   UNL     1       3.495   3.828  19.367  0.00  0.00    +0.000 A 
ENDBRANCH  15  22
ENDBRANCH   4  15
TORSDOF 5
ENDMDL
MODEL 5
REMARK VINA RESULT:      -7.4      2.864      7.945
REMARK  Name = 
REMARK  5 active torsions:
REMARK  status: ('A' for Active; 'I' for Inactive)
REMARK    1  A    between atoms: C_7  and  C_8
REMARK    2  A    between atoms: C_8  and  N_9
REMARK    3  A    between atoms: N_12  and  C_13
REMARK    4  A    between atoms: C_13  and  C_14
REMARK    5  A    between atoms: C_13  and  C_20
REMARK                            x       y       z     vdW  Elec       q    Type
REMARK                         _______ _______ _______ _____ _____    ______ ____
ROOT
ATOM      1  N   UNL     1       6.759   4.850  16.688  0.00  0.00    +0.000 NA
ATOM      2  C   UNL     1       6.903   5.780  17.824  0.00  0.00    +0.000 C 
ATOM      3  C   UNL     1       5.875   6.943  17.935  0.00  0.00    +0.000 C 
ATOM      4  N   UNL     1       4.446   6.657  17.632  0.00  0.00    +0.000 NA
ATOM      5  C   UNL     1       4.367   5.730  16.491  0.00  0.00    +0.000 C 
ATOM      6  C   UNL     1       5.324   4.517  16.547  0.00  0.00    +0.000 C 
ENDROOT
BRANCH   1   7
ATOM      7  C   UNL     1       7.312   5.385  15.425  0.00  0.00    +0.000 C 
BRANCH   7  14
ATOM      8  F   UNL     1       8.733   5.799  13.051  0.00  0.00    +0.000 F 
ATOM      9  C   UNL     1       7.699   4.941  12.982  0.00  0.00    +0.000 A 
ATOM     10  C   UNL     1       7.358   4.418  11.740  0.00  0.00    +0.000 A 
ATOM     11  C   UNL     1       6.283   3.546  11.630  0.00  0.00    +0.000 A 
ATOM     12  C   UNL     1       5.568   3.194  12.775  0.00  0.00    +0.000 A 
ATOM     13  C   UNL     1       5.906   3.738  14.023  0.00  0.00    +0.000 A 
ATOM     14  C   UNL     1       6.984   4.630  14.150  0.00  0.00    +0.000 A 
ENDBRANCH   7  14
ENDBRANCH   1   7
BRANCH   4  15
ATOM     15  C   UNL     1       3.670   6.265  18.843  0.00  0.00    +0.000 C 
BRANCH  15  16
ATOM     16  C   UNL     1       2.612   7.342  19.184  0.00  0.00    +0.000 A 
ATOM     17  C   UNL     1       2.247   8.334  18.251  0.00  0.00    +0.000 A 
ATOM     18  C   UNL     1       1.291   9.303  18.558  0.00  0.00    +0.000 A 
ATOM     19  C   UNL     1       0.705   9.320  19.820  0.00  0.00    +0.000 A 
ATOM     20  C   UNL     1       1.069   8.363  20.766  0.00  0.00    +0.000 A 
ATOM     21  C   UNL     1       2.005   7.373  20.449  0.00  0.00    +0.000 A 
ENDBRANCH  15  16
BRANCH  15  22
ATOM     22  C   UNL     1       2.978   4.882  18.783  0.00  0.00    +0.000 A 
ATOM     23  C   UNL     1       3.481   3.812  19.547  0.00  0.00    +0.000 A 
ATOM     24  C   UNL     1       2.815   2.581  19.597  0.00  0.00    +0.000 A 
ATOM     25  C   UNL     1       1.625   2.398  18.895  0.00  0.00    +0.000 A 
ATOM     26  C   UNL     1       1.121   3.436  18.116  0.00  0.00    +0.000 A 
ATOM     27  C   UNL     1       1.802   4.656  18.046  0.00  0.00    +0.000 A 
ENDBRANCH  15  22
ENDBRANCH   4  15
TORSDOF 5
ENDMDL
MODEL 6
REMARK VINA RESULT:      -7.3      1.145      1.686
REMARK  Name = 
REMARK  5 active torsions:
REMARK  status: ('A' for Active; 'I' for Inactive)
REMARK    1  A    between atoms: C_7  and  C_8
REMARK    2  A    between atoms: C_8  and  N_9
REMARK    3  A    between atoms: N_12  and  C_13
REMARK    4  A    between atoms: C_13  and  C_14
REMARK    5  A    between atoms: C_13  and  C_20
REMARK                            x       y       z     vdW  Elec       q    Type
REMARK                         _______ _______ _______ _____ _____    ______ ____
ROOT
ATOM      1  N   UNL     1       1.012   8.804  19.117  0.00  0.00    +0.000 NA
ATOM      2  C   UNL     1       1.674   8.760  17.799  0.00  0.00    +0.000 C 
ATOM      3  C   UNL     1       3.117   8.183  17.740  0.00  0.00    +0.000 C 
ATOM      4  N   UNL     1       3.434   6.981  18.558  0.00  0.00    +0.000 NA
ATOM      5  C   UNL     1       2.752   7.083  19.858  0.00  0.00    +0.000 C 
ATOM      6  C   UNL     1       1.268   7.518  19.802  0.00  0.00    +0.000 C 
ENDROOT
BRANCH   1   7
ATOM      7  C   UNL     1       1.445   9.949  19.947  0.00  0.00    +0.000 C 
BRANCH   7  14
ATOM      8  F   UNL     1       1.392   8.982  22.572  0.00  0.00    +0.000 F 
ATOM      9  C   UNL     1       0.450   9.888  22.255  0.00  0.00    +0.000 A 
ATOM     10  C   UNL     1      -0.520  10.190  23.203  0.00  0.00    +0.000 A 
ATOM     11  C   UNL     1      -1.519  11.107  22.900  0.00  0.00    +0.000 A 
ATOM     12  C   UNL     1      -1.523  11.725  21.650  0.00  0.00    +0.000 A 
ATOM     13  C   UNL     1      -0.552  11.404  20.690  0.00  0.00    +0.000 A 
ATOM     14  C   UNL     1       0.459  10.470  20.977  0.00  0.00    +0.000 A 
ENDBRANCH   7  14
ENDBRANCH   1   7
BRANCH   4  15
ATOM     15  C   UNL     1       3.225   5.707  17.812  0.00  0.00    +0.000 C 
BRANCH  15  16
ATOM     16  C   UNL     1       4.527   5.273  17.098  0.00  0.00    +0.000 A 
ATOM     17  C   UNL     1       5.749   5.933  17.335  0.00  0.00    +0.000 A 
ATOM     18  C   UNL     1       6.925   5.539  16.693  0.00  0.00    +0.000 A 
ATOM     19  C   UNL     1       6.893   4.497  15.773  0.00  0.00    +0.000 A 
ATOM     20  C   UNL     1       5.690   3.845  15.505  0.00  0.00    +0.000 A 
ATOM     21  C   UNL     1       4.518   4.219  16.170  0.00  0.00    +0.000 A 
ENDBRANCH  15  16
BRANCH  15  22
ATOM     22  C   UNL     1       2.687   4.518  18.645  0.00  0.00    +0.000 A 
ATOM     23  C   UNL     1       3.464   3.986  19.692  0.00  0.00    +0.000 A 
ATOM     24  C   UNL     1       2.960   2.984  20.530  0.00  0.00    +0.000 A 
ATOM     25  C   UNL     1       1.666   2.501  20.348  0.00  0.00    +0.000 A 
ATOM     26  C   UNL     1       0.888   2.997  19.305  0.00  0.00    +0.000 A 
ATOM     27  C   UNL     1       1.402   3.979  18.452  0.00  0.00    +0.000 A 
ENDBRANCH  15  22
ENDBRANCH   4  15
TORSDOF 5
ENDMDL
MODEL 7
REMARK VINA RESULT:      -7.3      1.541      1.988
REMARK  Name = 
REMARK  5 active torsions:
REMARK  status: ('A' for Active; 'I' for Inactive)
REMARK    1  A    between atoms: C_7  and  C_8
REMARK    2  A    between atoms: C_8  and  N_9
REMARK    3  A    between atoms: N_12  and  C_13
REMARK    4  A    between atoms: C_13  and  C_14
REMARK    5  A    between atoms: C_13  and  C_20
REMARK                            x       y       z     vdW  Elec       q    Type
REMARK                         _______ _______ _______ _____ _____    ______ ____
ROOT
ATOM      1  N   UNL     1       0.448   9.381  19.205  0.00  0.00    +0.000 NA
ATOM      2  C   UNL     1       1.206   9.217  17.949  0.00  0.00    +0.000 C 
ATOM      3  C   UNL     1       2.621   8.577  18.044  0.00  0.00    +0.000 C 
ATOM      4  N   UNL     1       2.817   7.423  18.963  0.00  0.00    +0.000 NA
ATOM      5  C   UNL     1       2.042   7.644  20.194  0.00  0.00    +0.000 C 
ATOM      6  C   UNL     1       0.590   8.136  19.992  0.00  0.00    +0.000 C 
ENDROOT
BRANCH   1   7
ATOM      7  C   UNL     1       0.870  10.562  19.988  0.00  0.00    +0.000 C 
BRANCH   7  14
ATOM      8  F   UNL     1       0.617   9.949  22.706  0.00  0.00    +0.000 F 
ATOM      9  C   UNL     1      -0.286  10.811  22.206  0.00  0.00    +0.000 A 
ATOM     10  C   UNL     1      -1.315  11.242  23.035  0.00  0.00    +0.000 A 
ATOM     11  C   UNL     1      -2.276  12.117  22.543  0.00  0.00    +0.000 A 
ATOM     12  C   UNL     1      -2.182  12.565  21.226  0.00  0.00    +0.000 A 
ATOM     13  C   UNL     1      -1.150  12.115  20.389  0.00  0.00    +0.000 A 
ATOM     14  C   UNL     1      -0.177  11.220  20.867  0.00  0.00    +0.000 A 
ENDBRANCH   7  14
ENDBRANCH   1   7
BRANCH   4  15
ATOM     15  C   UNL     1       2.605   6.109  18.289  0.00  0.00    +0.000 C 
BRANCH  15  16
ATOM     16  C   UNL     1       3.869   5.691  17.501  0.00  0.00    +0.000 A 
ATOM     17  C   UNL     1       4.001   4.397  16.958  0.00  0.00    +0.000 A 
ATOM     18  C   UNL     1       5.140   4.021  16.245  0.00  0.00    +0.000 A 
ATOM     19  C   UNL     1       6.187   4.924  16.089  0.00  0.00    +0.000 A 
ATOM     20  C   UNL     1       6.088   6.202  16.637  0.00  0.00    +0.000 A 
ATOM     21  C   UNL     1       4.934   6.589  17.327  0.00  0.00    +0.000 A 
ENDBRANCH  15  16
BRANCH  15  22
ATOM     22  C   UNL     1       2.176   4.941  19.208  0.00  0.00    +0.000 A 
ATOM     23  C   UNL     1       2.741   4.813  20.492  0.00  0.00    +0.000 A 
ATOM     24  C   UNL     1       2.295   3.831  21.385  0.00  0.00    +0.000 A 
ATOM     25  C   UNL     1       1.266   2.965  21.020  0.00  0.00    +0.000 A 
ATOM     26  C   UNL     1       0.708   3.060  19.749  0.00  0.00    +0.000 A 
ATOM     27  C   UNL     1       1.172   4.023  18.848  0.00  0.00    +0.000 A 
ENDBRANCH  15  22
ENDBRANCH   4  15
TORSDOF 5
ENDMDL
MODEL 8
REMARK VINA RESULT:      -7.2      0.982      1.316
REMARK  Name = 
REMARK  5 active torsions:
REMARK  status: ('A' for Active; 'I' for Inactive)
REMARK    1  A    between atoms: C_7  and  C_8
REMARK    2  A    between atoms: C_8  and  N_9
REMARK    3  A    between atoms: N_12  and  C_13
REMARK    4  A    between atoms: C_13  and  C_14
REMARK    5  A    between atoms: C_13  and  C_20
REMARK                            x       y       z     vdW  Elec       q    Type
REMARK                         _______ _______ _______ _____ _____    ______ ____
ROOT
ATOM      1  N   UNL     1       1.030   8.221  19.803  0.00  0.00    +0.000 NA
ATOM      2  C   UNL     1       1.528   8.493  18.441  0.00  0.00    +0.000 C 
ATOM      3  C   UNL     1       2.994   8.083  18.119  0.00  0.00    +0.000 C 
ATOM      4  N   UNL     1       3.498   6.784  18.643  0.00  0.00    +0.000 NA
ATOM      5  C   UNL     1       2.972   6.570  20.000  0.00  0.00    +0.000 C 
ATOM      6  C   UNL     1       1.464   6.860  20.187  0.00  0.00    +0.000 C 
ENDROOT
BRANCH   1   7
ATOM      7  C   UNL     1       1.471   9.224  20.795  0.00  0.00    +0.000 C 
BRANCH   7  14
ATOM      8  F   UNL     1       0.434   9.162  23.393  0.00  0.00    +0.000 F 
ATOM      9  C   UNL     1      -0.083  10.091  22.570  0.00  0.00    +0.000 A 
ATOM     10  C   UNL     1      -1.143  10.863  23.031  0.00  0.00    +0.000 A 
ATOM     11  C   UNL     1      -1.715  11.817  22.199  0.00  0.00    +0.000 A 
ATOM     12  C   UNL     1      -1.202  11.999  20.914  0.00  0.00    +0.000 A 
ATOM     13  C   UNL     1      -0.143  11.206  20.449  0.00  0.00    +0.000 A 
ATOM     14  C   UNL     1       0.439  10.228  21.273  0.00  0.00    +0.000 A 
ENDBRANCH   7  14
ENDBRANCH   1   7
BRANCH   4  15
ATOM     15  C   UNL     1       3.298   5.660  17.683  0.00  0.00    +0.000 C 
BRANCH  15  16
ATOM     16  C   UNL     1       4.611   5.347  16.928  0.00  0.00    +0.000 A 
ATOM     17  C   UNL     1       4.675   4.327  15.958  0.00  0.00    +0.000 A 
ATOM     18  C   UNL     1       5.859   4.046  15.275  0.00  0.00    +0.000 A 
ATOM     19  C   UNL     1       7.015   4.760  15.575  0.00  0.00    +0.000 A 
ATOM     20  C   UNL     1       6.981   5.758  16.549  0.00  0.00    +0.000 A 
ATOM     21  C   UNL     1       5.787   6.060  17.212  0.00  0.00    +0.000 A 
ENDBRANCH  15  16
BRANCH  15  22
ATOM     22  C   UNL     1       2.739   4.349  18.287  0.00  0.00    +0.000 A 
ATOM     23  C   UNL     1       3.514   3.613  19.204  0.00  0.00    +0.000 A 
ATOM     24  C   UNL     1       2.994   2.483  19.848  0.00  0.00    +0.000 A 
ATOM     25  C   UNL     1       1.686   2.073  19.599  0.00  0.00    +0.000 A 
ATOM     26  C   UNL     1       0.910   2.774  18.681  0.00  0.00    +0.000 A 
ATOM     27  C   UNL     1       1.438   3.886  18.018  0.00  0.00    +0.000 A 
ENDBRANCH  15  22
ENDBRANCH   4  15
TORSDOF 5
ENDMDL
MODEL 9
REMARK VINA RESULT:      -7.1      1.365      1.733
REMARK  Name = 
REMARK  5 active torsions:
REMARK  status: ('A' for Active; 'I' for Inactive)
REMARK    1  A    between atoms: C_7  and  C_8
REMARK    2  A    between atoms: C_8  and  N_9
REMARK    3  A    between atoms: N_12  and  C_13
REMARK    4  A    between atoms: C_13  and  C_14
REMARK    5  A    between atoms: C_13  and  C_20
REMARK                            x       y       z     vdW  Elec       q    Type
REMARK                         _______ _______ _______ _____ _____    ______ ____
ROOT
ATOM      1  N   UNL     1       0.622   9.110  19.051  0.00  0.00    +0.000 NA
ATOM      2  C   UNL     1       1.415   8.943  17.818  0.00  0.00    +0.000 C 
ATOM      3  C   UNL     1       2.846   8.349  17.961  0.00  0.00    +0.000 C 
ATOM      4  N   UNL     1       3.055   7.221  18.910  0.00  0.00    +0.000 NA
ATOM      5  C   UNL     1       2.243   7.445  20.117  0.00  0.00    +0.000 C 
ATOM      6  C   UNL     1       0.782   7.888  19.869  0.00  0.00    +0.000 C 
ENDROOT
BRANCH   1   7
ATOM      7  C   UNL     1       0.988  10.320  19.818  0.00  0.00    +0.000 C 
BRANCH   7  14
ATOM      8  F   UNL     1      -0.748  12.386  19.080  0.00  0.00    +0.000 F 
ATOM      9  C   UNL     1      -0.842  11.958  20.352  0.00  0.00    +0.000 A 
ATOM     10  C   UNL     1      -1.702  12.631  21.212  0.00  0.00    +0.000 A 
ATOM     11  C   UNL     1      -1.807  12.228  22.537  0.00  0.00    +0.000 A 
ATOM     12  C   UNL     1      -1.057  11.139  22.981  0.00  0.00    +0.000 A 
ATOM     13  C   UNL     1      -0.178  10.474  22.113  0.00  0.00    +0.000 A 
ATOM     14  C   UNL     1      -0.052  10.876  20.773  0.00  0.00    +0.000 A 
ENDBRANCH   7  14
ENDBRANCH   1   7
BRANCH   4  15
ATOM     15  C   UNL     1       2.899   5.888  18.260  0.00  0.00    +0.000 C 
BRANCH  15  16
ATOM     16  C   UNL     1       4.243   5.416  17.657  0.00  0.00    +0.000 A 
ATOM     17  C   UNL     1       4.289   4.452  16.630  0.00  0.00    +0.000 A 
ATOM     18  C   UNL     1       5.502   4.028  16.084  0.00  0.00    +0.000 A 
ATOM     19  C   UNL     1       6.697   4.536  16.581  0.00  0.00    +0.000 A 
ATOM     20  C   UNL     1       6.677   5.473  17.614  0.00  0.00    +0.000 A 
ATOM     21  C   UNL     1       5.461   5.920  18.141  0.00  0.00    +0.000 A 
ENDBRANCH  15  16
BRANCH  15  22
ATOM     22  C   UNL     1       2.327   4.763  19.156  0.00  0.00    +0.000 A 
ATOM     23  C   UNL     1       1.240   3.990  18.705  0.00  0.00    +0.000 A 
ATOM     24  C   UNL     1       0.770   2.899  19.446  0.00  0.00    +0.000 A 
ATOM     25  C   UNL     1       1.386   2.548  20.646  0.00  0.00    +0.000 A 
ATOM     26  C   UNL     1       2.448   3.311  21.121  0.00  0.00    +0.000 A 
ATOM     27  C   UNL     1       2.899   4.417  20.394  0.00  0.00    +0.000 A 
ENDBRANCH  15  22
ENDBRANCH   4  15
TORSDOF 5
ENDMDL
