MODEL 1
REMARK VINA RESULT:      -7.9      0.000      0.000
REMARK  Name = 
REMARK  6 active torsions:
REMARK  status: ('A' for Active; 'I' for Inactive)
REMARK    1  A    between atoms: C_1  and  C_2
REMARK    2  A    between atoms: C_2  and  O_3
REMARK    3  A    between atoms: O_3  and  C_4
REMARK    4  A    between atoms: C_9  and  C_10
REMARK    5  A    between atoms: C_10  and  C_12
REMARK    6  A    between atoms: C_13  and  C_14
REMARK                            x       y       z     vdW  Elec       q    Type
REMARK                         _______ _______ _______ _____ _____    ______ ____
ROOT
ATOM      1  C   UNL     1       4.917   4.209  18.884  0.00  0.00    +0.000 C 
ATOM      2  O   UNL     1       5.056   3.176  19.544  0.00  0.00    +0.000 OA
ENDROOT
BRANCH   1   8
ATOM      3  C   UNL     1       6.974   4.577  17.361  0.00  0.00    +0.000 A 
ATOM      4  C   UNL     1       7.481   4.638  16.051  0.00  0.00    +0.000 A 
ATOM      5  C   UNL     1       6.627   4.529  14.949  0.00  0.00    +0.000 A 
ATOM      6  C   UNL     1       5.270   4.331  15.137  0.00  0.00    +0.000 A 
ATOM      7  C   UNL     1       4.766   4.211  16.430  0.00  0.00    +0.000 A 
ATOM      8  C   UNL     1       5.605   4.321  17.560  0.00  0.00    +0.000 A 
BRANCH   3   9
ATOM      9  O   UNL     1       7.780   4.758  18.451  0.00  0.00    +0.000 OA
BRANCH   9  11
ATOM     10  C   UNL     1       7.815   7.108  18.055  0.00  0.00    +0.000 C 
ATOM     11  C   UNL     1       7.706   6.024  19.111  0.00  0.00    +0.000 C 
ENDBRANCH   9  11
ENDBRANCH   3   9
ENDBRANCH   1   8
BRANCH   1  12
ATOM     12  C   UNL     1       4.139   5.339  19.448  0.00  0.00    +0.000 C 
ATOM     13  C   UNL     1       3.447   6.120  18.606  0.00  0.00    +0.000 C 
BRANCH  13  14
ATOM     14  C   UNL     1       2.440   7.102  19.017  0.00  0.00    +0.000 A 
ATOM     15  C   UNL     1       1.978   7.101  20.354  0.00  0.00    +0.000 A 
ATOM     16  C   UNL     1       1.281   8.199  20.873  0.00  0.00    +0.000 A 
ATOM     17  C   UNL     1       1.112   9.283  20.047  0.00  0.00    +0.000 A 
ATOM     18  C   UNL     1       1.508   9.263  18.727  0.00  0.00    +0.000 A 
ATOM     19  C   UNL     1       2.138   8.180  18.169  0.00  0.00    +0.000 A 
ATOM     20  O   UNL     1       1.333  10.470  18.117  0.00  0.00    +0.000 OA
ATOM     21  C   UNL     1       1.122  11.286  19.286  0.00  0.00    +0.000 C 
ATOM     22  O   UNL     1       0.663  10.516  20.417  0.00  0.00    +0.000 OA
ENDBRANCH  13  14
ENDBRANCH   1  12
TORSDOF 5
ENDMDL
MODEL 2
REMARK VINA RESULT:      -7.6      2.282      3.931
REMARK  Name = 
REMARK  6 active torsions:
REMARK  status: ('A' for Active; 'I' for Inactive)
REMARK    1  A    between atoms: C_1  and  C_2
REMARK    2  A    between atoms: C_2  and  O_3
REMARK    3  A    between atoms: O_3  and  C_4
REMARK    4  A    between atoms: C_9  and  C_10
REMARK    5  A    between atoms: C_10  and  C_12
REMARK    6  A    between atoms: C_13  and  C_14
REMARK                            x       y       z     vdW  Elec       q    Type
REMARK                         _______ _______ _______ _____ _____    ______ ____
ROOT
ATOM      1  C   UNL     1       3.043   5.505  19.714  0.00  0.00    +0.000 C 
ATOM      2  O   UNL     1       2.799   4.767  20.672  0.00  0.00    +0.000 OA
ENDROOT
BRANCH   1   8
ATOM      3  C   UNL     1       3.736   4.209  17.587  0.00  0.00    +0.000 A 
ATOM      4  C   UNL     1       4.761   3.877  16.683  0.00  0.00    +0.000 A 
ATOM      5  C   UNL     1       6.073   4.305  16.906  0.00  0.00    +0.000 A 
ATOM      6  C   UNL     1       6.374   5.087  18.008  0.00  0.00    +0.000 A 
ATOM      7  C   UNL     1       5.355   5.469  18.877  0.00  0.00    +0.000 A 
ATOM      8  C   UNL     1       4.022   5.047  18.678  0.00  0.00    +0.000 A 
BRANCH   3   9
ATOM      9  O   UNL     1       2.461   3.736  17.430  0.00  0.00    +0.000 OA
BRANCH   9  11
ATOM     10  C   UNL     1       1.026   2.369  18.753  0.00  0.00    +0.000 C 
ATOM     11  C   UNL     1       2.218   2.382  17.814  0.00  0.00    +0.000 C 
ENDBRANCH   9  11
ENDBRANCH   3   9
ENDBRANCH   1   8
BRANCH   1  12
ATOM     12  C   UNL     1       2.423   6.850  19.650  0.00  0.00    +0.000 C 
ATOM     13  C   UNL     1       1.648   7.244  20.671  0.00  0.00    +0.000 C 
BRANCH  13  14
ATOM     14  C   UNL     1       1.178   8.617  20.879  0.00  0.00    +0.000 A 
ATOM     15  C   UNL     1       0.770   9.385  19.764  0.00  0.00    +0.000 A 
ATOM     16  C   UNL     1       0.019  10.554  19.934  0.00  0.00    +0.000 A 
ATOM     17  C   UNL     1      -0.338  10.890  21.216  0.00  0.00    +0.000 A 
ATOM     18  C   UNL     1       0.108  10.178  22.308  0.00  0.00    +0.000 A 
ATOM     19  C   UNL     1       0.896   9.063  22.180  0.00  0.00    +0.000 A 
ATOM     20  O   UNL     1      -0.440  10.622  23.474  0.00  0.00    +0.000 OA
ATOM     21  C   UNL     1      -1.504  11.429  22.931  0.00  0.00    +0.000 C 
ATOM     22  O   UNL     1      -1.237  11.850  21.577  0.00  0.00    +0.000 OA
ENDBRANCH  13  14
ENDBRANCH   1  12
TORSDOF 5
ENDMDL
MODEL 3
REMARK VINA RESULT:      -7.5      4.503      6.742
REMARK  Name = 
REMARK  6 active torsions:
REMARK  status: ('A' for Active; 'I' for Inactive)
REMARK    1  A    between atoms: C_1  and  C_2
REMARK    2  A    between atoms: C_2  and  O_3
REMARK    3  A    between atoms: O_3  and  C_4
REMARK    4  A    between atoms: C_9  and  C_10
REMARK    5  A    between atoms: C_10  and  C_12
REMARK    6  A    between atoms: C_13  and  C_14
REMARK                            x       y       z     vdW  Elec       q    Type
REMARK                         _______ _______ _______ _____ _____    ______ ____
ROOT
ATOM      1  C   UNL     1       7.609   7.079  17.927  0.00  0.00    +0.000 C 
ATOM      2  O   UNL     1       8.077   6.542  18.934  0.00  0.00    +0.000 OA
ENDROOT
BRANCH   1   8
ATOM      3  C   UNL     1       5.423   6.370  16.742  0.00  0.00    +0.000 A 
ATOM      4  C   UNL     1       4.807   5.529  15.797  0.00  0.00    +0.000 A 
ATOM      5  C   UNL     1       5.538   4.527  15.151  0.00  0.00    +0.000 A 
ATOM      6  C   UNL     1       6.888   4.370  15.413  0.00  0.00    +0.000 A 
ATOM      7  C   UNL     1       7.520   5.235  16.303  0.00  0.00    +0.000 A 
ATOM      8  C   UNL     1       6.805   6.252  16.973  0.00  0.00    +0.000 A 
BRANCH   3   9
ATOM      9  O   UNL     1       4.711   7.305  17.442  0.00  0.00    +0.000 OA
BRANCH   9  11
ATOM     10  C   UNL     1       2.533   8.137  17.936  0.00  0.00    +0.000 C 
ATOM     11  C   UNL     1       3.428   6.912  17.932  0.00  0.00    +0.000 C 
ENDBRANCH   9  11
ENDBRANCH   3   9
ENDBRANCH   1   8
BRANCH   1  12
ATOM     12  C   UNL     1       7.913   8.503  17.649  0.00  0.00    +0.000 C 
ATOM     13  C   UNL     1       8.537   9.219  18.595  0.00  0.00    +0.000 C 
BRANCH  13  14
ATOM     14  C   UNL     1       9.129  10.543  18.384  0.00  0.00    +0.000 A 
ATOM     15  C   UNL     1       8.395  11.524  17.678  0.00  0.00    +0.000 A 
ATOM     16  C   UNL     1       8.764  12.874  17.734  0.00  0.00    +0.000 A 
ATOM     17  C   UNL     1       9.830  13.202  18.534  0.00  0.00    +0.000 A 
ATOM     18  C   UNL     1      10.583  12.241  19.175  0.00  0.00    +0.000 A 
ATOM     19  C   UNL     1      10.287  10.905  19.092  0.00  0.00    +0.000 A 
ATOM     20  O   UNL     1      11.530  12.787  19.990  0.00  0.00    +0.000 OA
ATOM     21  C   UNL     1      11.040  14.141  20.032  0.00  0.00    +0.000 C 
ATOM     22  O   UNL     1      10.210  14.460  18.896  0.00  0.00    +0.000 OA
ENDBRANCH  13  14
ENDBRANCH   1  12
TORSDOF 5
ENDMDL
MODEL 4
REMARK VINA RESULT:      -7.5      2.973      8.252
REMARK  Name = 
REMARK  6 active torsions:
REMARK  status: ('A' for Active; 'I' for Inactive)
REMARK    1  A    between atoms: C_1  and  C_2
REMARK    2  A    between atoms: C_2  and  O_3
REMARK    3  A    between atoms: O_3  and  C_4
REMARK    4  A    between atoms: C_9  and  C_10
REMARK    5  A    between atoms: C_10  and  C_12
REMARK    6  A    between atoms: C_13  and  C_14
REMARK                            x       y       z     vdW  Elec       q    Type
REMARK                         _______ _______ _______ _____ _____    ______ ____
ROOT
ATOM      1  C   UNL     1       1.060   9.205  22.029  0.00  0.00    +0.000 C 
ATOM      2  O   UNL     1       1.998   9.371  22.813  0.00  0.00    +0.000 OA
ENDROOT
BRANCH   1   8
ATOM      3  C   UNL     1      -0.168  11.128  20.813  0.00  0.00    +0.000 A 
ATOM      4  C   UNL     1      -1.207  12.075  20.843  0.00  0.00    +0.000 A 
ATOM      5  C   UNL     1      -2.002  12.226  21.983  0.00  0.00    +0.000 A 
ATOM      6  C   UNL     1      -1.792  11.423  23.091  0.00  0.00    +0.000 A 
ATOM      7  C   UNL     1      -0.803  10.442  23.050  0.00  0.00    +0.000 A 
ATOM      8  C   UNL     1       0.017  10.271  21.913  0.00  0.00    +0.000 A 
BRANCH   3   9
ATOM      9  O   UNL     1       0.671  11.017  19.738  0.00  0.00    +0.000 OA
BRANCH   9  11
ATOM     10  C   UNL     1       1.317   9.707  17.855  0.00  0.00    +0.000 C 
ATOM     11  C   UNL     1       0.155  10.363  18.577  0.00  0.00    +0.000 C 
ENDBRANCH   9  11
ENDBRANCH   3   9
ENDBRANCH   1   8
BRANCH   1  12
ATOM     12  C   UNL     1       0.949   7.930  21.280  0.00  0.00    +0.000 C 
ATOM     13  C   UNL     1       1.949   7.584  20.457  0.00  0.00    +0.000 C 
BRANCH  13  14
ATOM     14  C   UNL     1       2.109   6.259  19.851  0.00  0.00    +0.000 A 
ATOM     15  C   UNL     1       2.409   6.160  18.473  0.00  0.00    +0.000 A 
ATOM     16  C   UNL     1       2.888   4.963  17.926  0.00  0.00    +0.000 A 
ATOM     17  C   UNL     1       3.096   3.917  18.791  0.00  0.00    +0.000 A 
ATOM     18  C   UNL     1       2.749   3.992  20.123  0.00  0.00    +0.000 A 
ATOM     19  C   UNL     1       2.220   5.129  20.678  0.00  0.00    +0.000 A 
ATOM     20  O   UNL     1       3.128   2.882  20.818  0.00  0.00    +0.000 OA
ATOM     21  C   UNL     1       4.028   2.305  19.851  0.00  0.00    +0.000 C 
ATOM     22  O   UNL     1       3.753   2.756  18.508  0.00  0.00    +0.000 OA
ENDBRANCH  13  14
ENDBRANCH   1  12
TORSDOF 5
ENDMDL
MODEL 5
REMARK VINA RESULT:      -7.5      2.267      3.513
REMARK  Name = 
REMARK  6 active torsions:
REMARK  status: ('A' for Active; 'I' for Inactive)
REMARK    1  A    between atoms: C_1  and  C_2
REMARK    2  A    between atoms: C_2  and  O_3
REMARK    3  A    between atoms: O_3  and  C_4
REMARK    4  A    between atoms: C_9  and  C_10
REMARK    5  A    between atoms: C_10  and  C_12
REMARK    6  A    between atoms: C_13  and  C_14
REMARK                            x       y       z     vdW  Elec       q    Type
REMARK                         _______ _______ _______ _____ _____    ______ ____
ROOT
ATOM      1  C   UNL     1       2.854   7.026  18.411  0.00  0.00    +0.000 C 
ATOM      2  O   UNL     1       3.203   7.791  17.510  0.00  0.00    +0.000 OA
ENDROOT
BRANCH   1   8
ATOM      3  C   UNL     1       4.310   4.889  18.385  0.00  0.00    +0.000 A 
ATOM      4  C   UNL     1       4.364   3.495  18.210  0.00  0.00    +0.000 A 
ATOM      5  C   UNL     1       3.228   2.781  17.815  0.00  0.00    +0.000 A 
ATOM      6  C   UNL     1       2.025   3.439  17.620  0.00  0.00    +0.000 A 
ATOM      7  C   UNL     1       1.948   4.811  17.848  0.00  0.00    +0.000 A 
ATOM      8  C   UNL     1       3.081   5.556  18.242  0.00  0.00    +0.000 A 
BRANCH   3   9
ATOM      9  O   UNL     1       5.427   5.617  18.694  0.00  0.00    +0.000 OA
BRANCH   9  11
ATOM     10  C   UNL     1       7.766   5.830  19.097  0.00  0.00    +0.000 C 
ATOM     11  C   UNL     1       6.692   5.030  18.385  0.00  0.00    +0.000 C 
ENDBRANCH   9  11
ENDBRANCH   3   9
ENDBRANCH   1   8
BRANCH   1  12
ATOM     12  C   UNL     1       2.155   7.567  19.602  0.00  0.00    +0.000 C 
ATOM     13  C   UNL     1       1.519   8.741  19.488  0.00  0.00    +0.000 C 
BRANCH  13  14
ATOM     14  C   UNL     1       0.581   9.281  20.478  0.00  0.00    +0.000 A 
ATOM     15  C   UNL     1       0.565   8.738  21.783  0.00  0.00    +0.000 A 
ATOM     16  C   UNL     1      -0.060   9.418  22.835  0.00  0.00    +0.000 A 
ATOM     17  C   UNL     1      -0.608  10.645  22.553  0.00  0.00    +0.000 A 
ATOM     18  C   UNL     1      -0.646  11.149  21.271  0.00  0.00    +0.000 A 
ATOM     19  C   UNL     1      -0.098  10.480  20.206  0.00  0.00    +0.000 A 
ATOM     20  O   UNL     1      -1.145  12.416  21.229  0.00  0.00    +0.000 OA
ATOM     21  C   UNL     1      -1.075  12.734  22.633  0.00  0.00    +0.000 C 
ATOM     22  O   UNL     1      -1.061  11.553  23.463  0.00  0.00    +0.000 OA
ENDBRANCH  13  14
ENDBRANCH   1  12
TORSDOF 5
ENDMDL
MODEL 6
REMARK VINA RESULT:      -7.5      2.894      7.580
REMARK  Name = 
REMARK  6 active torsions:
REMARK  status: ('A' for Active; 'I' for Inactive)
REMARK    1  A    between atoms: C_1  and  C_2
REMARK    2  A    between atoms: C_2  and  O_3
REMARK    3  A    between atoms: O_3  and  C_4
REMARK    4  A    between atoms: C_9  and  C_10
REMARK    5  A    between atoms: C_10  and  C_12
REMARK    6  A    between atoms: C_13  and  C_14
REMARK                            x       y       z     vdW  Elec       q    Type
REMARK                         _______ _______ _______ _____ _____    ______ ____
ROOT
ATOM      1  C   UNL     1       1.554   9.432  17.934  0.00  0.00    +0.000 C 
ATOM      2  O   UNL     1       2.457  10.204  17.602  0.00  0.00    +0.000 OA
ENDROOT
BRANCH   1   8
ATOM      3  C   UNL     1      -0.122  10.659  19.473  0.00  0.00    +0.000 A 
ATOM      4  C   UNL     1      -1.429  11.148  19.649  0.00  0.00    +0.000 A 
ATOM      5  C   UNL     1      -2.416  10.908  18.689  0.00  0.00    +0.000 A 
ATOM      6  C   UNL     1      -2.109  10.206  17.535  0.00  0.00    +0.000 A 
ATOM      7  C   UNL     1      -0.804   9.768  17.324  0.00  0.00    +0.000 A 
ATOM      8  C   UNL     1       0.211   9.993  18.280  0.00  0.00    +0.000 A 
BRANCH   3   9
ATOM      9  O   UNL     1       0.839  10.816  20.434  0.00  0.00    +0.000 OA
BRANCH   9  11
ATOM     10  C   UNL     1       0.630   9.017  21.984  0.00  0.00    +0.000 C 
ATOM     11  C   UNL     1       0.467  10.512  21.780  0.00  0.00    +0.000 C 
ENDBRANCH   9  11
ENDBRANCH   3   9
ENDBRANCH   1   8
BRANCH   1  12
ATOM     12  C   UNL     1       1.839   7.981  18.054  0.00  0.00    +0.000 C 
ATOM     13  C   UNL     1       2.415   7.536  19.179  0.00  0.00    +0.000 C 
BRANCH  13  14
ATOM     14  C   UNL     1       2.528   6.123  19.555  0.00  0.00    +0.000 A 
ATOM     15  C   UNL     1       1.594   5.574  20.464  0.00  0.00    +0.000 A 
ATOM     16  C   UNL     1       1.456   4.187  20.600  0.00  0.00    +0.000 A 
ATOM     17  C   UNL     1       2.227   3.396  19.784  0.00  0.00    +0.000 A 
ATOM     18  C   UNL     1       3.179   3.928  18.941  0.00  0.00    +0.000 A 
ATOM     19  C   UNL     1       3.383   5.279  18.829  0.00  0.00    +0.000 A 
ATOM     20  O   UNL     1       3.761   2.978  18.155  0.00  0.00    +0.000 OA
ATOM     21  C   UNL     1       2.826   1.902  18.369  0.00  0.00    +0.000 C 
ATOM     22  O   UNL     1       2.091   2.051  19.602  0.00  0.00    +0.000 OA
ENDBRANCH  13  14
ENDBRANCH   1  12
TORSDOF 5
ENDMDL
MODEL 7
REMARK VINA RESULT:      -7.4      2.577      4.286
REMARK  Name = 
REMARK  6 active torsions:
REMARK  status: ('A' for Active; 'I' for Inactive)
REMARK    1  A    between atoms: C_1  and  C_2
REMARK    2  A    between atoms: C_2  and  O_3
REMARK    3  A    between atoms: O_3  and  C_4
REMARK    4  A    between atoms: C_9  and  C_10
REMARK    5  A    between atoms: C_10  and  C_12
REMARK    6  A    between atoms: C_13  and  C_14
REMARK                            x       y       z     vdW  Elec       q    Type
REMARK                         _______ _______ _______ _____ _____    ______ ____
ROOT
ATOM      1  C   UNL     1       3.013   6.014  19.437  0.00  0.00    +0.000 C 
ATOM      2  O   UNL     1       4.223   6.114  19.655  0.00  0.00    +0.000 OA
ENDROOT
BRANCH   1   8
ATOM      3  C   UNL     1       2.743   3.914  17.953  0.00  0.00    +0.000 A 
ATOM      4  C   UNL     1       2.141   2.655  17.782  0.00  0.00    +0.000 A 
ATOM      5  C   UNL     1       1.193   2.187  18.697  0.00  0.00    +0.000 A 
ATOM      6  C   UNL     1       0.856   2.950  19.802  0.00  0.00    +0.000 A 
ATOM      7  C   UNL     1       1.489   4.173  20.012  0.00  0.00    +0.000 A 
ATOM      8  C   UNL     1       2.446   4.670  19.101  0.00  0.00    +0.000 A 
BRANCH   3   9
ATOM      9  O   UNL     1       3.614   4.424  17.030  0.00  0.00    +0.000 OA
BRANCH   9  11
ATOM     10  C   UNL     1       5.505   4.054  15.629  0.00  0.00    +0.000 C 
ATOM     11  C   UNL     1       4.942   3.897  17.028  0.00  0.00    +0.000 C 
ENDBRANCH   9  11
ENDBRANCH   3   9
ENDBRANCH   1   8
BRANCH   1  12
ATOM     12  C   UNL     1       2.166   7.231  19.439  0.00  0.00    +0.000 C 
ATOM     13  C   UNL     1       1.772   7.731  20.618  0.00  0.00    +0.000 C 
BRANCH  13  14
ATOM     14  C   UNL     1       1.157   9.050  20.801  0.00  0.00    +0.000 A 
ATOM     15  C   UNL     1       0.659   9.743  19.674  0.00  0.00    +0.000 A 
ATOM     16  C   UNL     1      -0.213  10.829  19.827  0.00  0.00    +0.000 A 
ATOM     17  C   UNL     1      -0.592  11.154  21.106  0.00  0.00    +0.000 A 
ATOM     18  C   UNL     1      -0.062  10.519  22.208  0.00  0.00    +0.000 A 
ATOM     19  C   UNL     1       0.841   9.493  22.096  0.00  0.00    +0.000 A 
ATOM     20  O   UNL     1      -0.644  10.929  23.370  0.00  0.00    +0.000 OA
ATOM     21  C   UNL     1      -1.794  11.604  22.822  0.00  0.00    +0.000 C 
ATOM     22  O   UNL     1      -1.586  12.020  21.456  0.00  0.00    +0.000 OA
ENDBRANCH  13  14
ENDBRANCH   1  12
TORSDOF 5
ENDMDL
MODEL 8
REMARK VINA RESULT:      -7.4      3.049      7.450
REMARK  Name = 
REMARK  6 active torsions:
REMARK  status: ('A' for Active; 'I' for Inactive)
REMARK    1  A    between atoms: C_1  and  C_2
REMARK    2  A    between atoms: C_2  and  O_3
REMARK    3  A    between atoms: O_3  and  C_4
REMARK    4  A    between atoms: C_9  and  C_10
REMARK    5  A    between atoms: C_10  and  C_12
REMARK    6  A    between atoms: C_13  and  C_14
REMARK                            x       y       z     vdW  Elec       q    Type
REMARK                         _______ _______ _______ _____ _____    ______ ____
ROOT
ATOM      1  C   UNL     1       4.675   3.969  18.512  0.00  0.00    +0.000 C 
ATOM      2  O   UNL     1       5.712   4.037  19.177  0.00  0.00    +0.000 OA
ENDROOT
BRANCH   1   8
ATOM      3  C   UNL     1       2.683   4.905  19.869  0.00  0.00    +0.000 A 
ATOM      4  C   UNL     1       1.445   4.648  20.484  0.00  0.00    +0.000 A 
ATOM      5  C   UNL     1       0.927   3.350  20.532  0.00  0.00    +0.000 A 
ATOM      6  C   UNL     1       1.618   2.303  19.947  0.00  0.00    +0.000 A 
ATOM      7  C   UNL     1       2.817   2.556  19.284  0.00  0.00    +0.000 A 
ATOM      8  C   UNL     1       3.364   3.857  19.224  0.00  0.00    +0.000 A 
BRANCH   3   9
ATOM      9  O   UNL     1       3.243   6.152  19.878  0.00  0.00    +0.000 OA
BRANCH   9  11
ATOM     10  C   UNL     1       2.981   7.492  17.925  0.00  0.00    +0.000 C 
ATOM     11  C   UNL     1       2.468   7.218  19.326  0.00  0.00    +0.000 C 
ENDBRANCH   9  11
ENDBRANCH   3   9
ENDBRANCH   1   8
BRANCH   1  12
ATOM     12  C   UNL     1       4.757   3.926  17.032  0.00  0.00    +0.000 C 
ATOM     13  C   UNL     1       5.542   4.817  16.411  0.00  0.00    +0.000 C 
BRANCH  13  14
ATOM     14  C   UNL     1       5.927   4.746  14.998  0.00  0.00    +0.000 A 
ATOM     15  C   UNL     1       7.174   5.276  14.593  0.00  0.00    +0.000 A 
ATOM     16  C   UNL     1       7.723   4.947  13.348  0.00  0.00    +0.000 A 
ATOM     17  C   UNL     1       7.024   4.060  12.568  0.00  0.00    +0.000 A 
ATOM     18  C   UNL     1       5.781   3.589  12.933  0.00  0.00    +0.000 A 
ATOM     19  C   UNL     1       5.187   3.939  14.118  0.00  0.00    +0.000 A 
ATOM     20  O   UNL     1       5.308   2.650  12.065  0.00  0.00    +0.000 OA
ATOM     21  C   UNL     1       6.529   2.365  11.354  0.00  0.00    +0.000 C 
ATOM     22  O   UNL     1       7.479   3.449  11.437  0.00  0.00    +0.000 OA
ENDBRANCH  13  14
ENDBRANCH   1  12
TORSDOF 5
ENDMDL
MODEL 9
REMARK VINA RESULT:      -7.3      4.226      6.444
REMARK  Name = 
REMARK  6 active torsions:
REMARK  status: ('A' for Active; 'I' for Inactive)
REMARK    1  A    between atoms: C_1  and  C_2
REMARK    2  A    between atoms: C_2  and  O_3
REMARK    3  A    between atoms: O_3  and  C_4
REMARK    4  A    between atoms: C_9  and  C_10
REMARK    5  A    between atoms: C_10  and  C_12
REMARK    6  A    between atoms: C_13  and  C_14
REMARK                            x       y       z     vdW  Elec       q    Type
REMARK                         _______ _______ _______ _____ _____    ______ ____
ROOT
ATOM      1  C   UNL     1       7.580   6.757  18.074  0.00  0.00    +0.000 C 
ATOM      2  O   UNL     1       8.201   6.216  18.992  0.00  0.00    +0.000 OA
ENDROOT
BRANCH   1   8
ATOM      3  C   UNL     1       5.407   5.483  17.489  0.00  0.00    +0.000 A 
ATOM      4  C   UNL     1       4.706   4.706  16.549  0.00  0.00    +0.000 A 
ATOM      5  C   UNL     1       5.322   4.293  15.364  0.00  0.00    +0.000 A 
ATOM      6  C   UNL     1       6.626   4.670  15.088  0.00  0.00    +0.000 A 
ATOM      7  C   UNL     1       7.309   5.487  15.986  0.00  0.00    +0.000 A 
ATOM      8  C   UNL     1       6.712   5.915  17.192  0.00  0.00    +0.000 A 
BRANCH   3   9
ATOM      9  O   UNL     1       4.850   5.832  18.689  0.00  0.00    +0.000 OA
BRANCH   9  11
ATOM     10  C   UNL     1       2.551   5.728  19.306  0.00  0.00    +0.000 C 
ATOM     11  C   UNL     1       3.855   4.957  19.223  0.00  0.00    +0.000 C 
ENDBRANCH   9  11
ENDBRANCH   3   9
ENDBRANCH   1   8
BRANCH   1  12
ATOM     12  C   UNL     1       7.764   8.206  17.820  0.00  0.00    +0.000 C 
ATOM     13  C   UNL     1       8.547   8.905  18.653  0.00  0.00    +0.000 C 
BRANCH  13  14
ATOM     14  C   UNL     1       9.030  10.266  18.399  0.00  0.00    +0.000 A 
ATOM     15  C   UNL     1       8.283  11.118  17.554  0.00  0.00    +0.000 A 
ATOM     16  C   UNL     1       8.515  12.499  17.542  0.00  0.00    +0.000 A 
ATOM     17  C   UNL     1       9.458  12.985  18.413  0.00  0.00    +0.000 A 
ATOM     18  C   UNL     1      10.229  12.151  19.194  0.00  0.00    +0.000 A 
ATOM     19  C   UNL     1      10.070  10.789  19.185  0.00  0.00    +0.000 A 
ATOM     20  O   UNL     1      11.032  12.842  20.051  0.00  0.00    +0.000 OA
ATOM     21  C   UNL     1      10.415  14.140  19.944  0.00  0.00    +0.000 C 
ATOM     22  O   UNL     1       9.679  14.297  18.712  0.00  0.00    +0.000 OA
ENDBRANCH  13  14
ENDBRANCH   1  12
TORSDOF 5
ENDMDL
