MODEL 1
REMARK VINA RESULT:      -8.7      0.000      0.000
REMARK  Name = 
REMARK  10 active torsions:
REMARK  status: ('A' for Active; 'I' for Inactive)
REMARK    1  A    between atoms: C_1  and  C_2
REMARK    2  A    between atoms: C_5  and  N_6
REMARK    3  A    between atoms: N_6  and  C_7
REMARK    4  A    between atoms: C_10  and  C_11
REMARK    5  A    between atoms: C_13  and  O_14
REMARK    6  A    between atoms: O_14  and  C_15
REMARK    7  A    between atoms: C_15  and  C_16
REMARK    8  A    between atoms: C_15  and  C_17
REMARK    9  A    between atoms: C_24  and  C_25
REMARK   10  A    between atoms: C_25  and  O_27
REMARK                            x       y       z     vdW  Elec       q    Type
REMARK                         _______ _______ _______ _____ _____    ______ ____
ROOT
ATOM      1  C   UNL     1       1.179   9.571  19.318  0.00  0.00    +0.000 A 
ATOM      2  C   UNL     1       1.832   9.423  18.097  0.00  0.00    +0.000 A 
ATOM      3  C   UNL     1       2.488   8.231  17.817  0.00  0.00    +0.000 A 
ATOM      4  C   UNL     1       2.539   7.215  18.774  0.00  0.00    +0.000 A 
ATOM      5  N   UNL     1       1.971   7.355  19.995  0.00  0.00    +0.000 NA
ATOM      6  C   UNL     1       1.316   8.517  20.231  0.00  0.00    +0.000 A 
ENDROOT
BRANCH   4   7
ATOM      7  C   UNL     1       3.191   5.935  18.482  0.00  0.00    +0.000 A 
ATOM      8  C   UNL     1       4.527   5.647  18.833  0.00  0.00    +0.000 A 
ATOM      9  C   UNL     1       5.086   4.385  18.588  0.00  0.00    +0.000 A 
ATOM     10  C   UNL     1       4.280   3.378  18.041  0.00  0.00    +0.000 A 
ATOM     11  C   UNL     1       2.984   3.661  17.630  0.00  0.00    +0.000 A 
ATOM     12  C   UNL     1       2.458   4.923  17.837  0.00  0.00    +0.000 A 
ATOM     13  F   UNL     1       1.195   5.128  17.435  0.00  0.00    +0.000 F 
BRANCH   9  14
ATOM     14  O   UNL     1       6.409   4.230  18.911  0.00  0.00    +0.000 OA
BRANCH  14  15
ATOM     15  C   UNL     1       7.395   4.745  17.994  0.00  0.00    +0.000 C 
ATOM     16  C   UNL     1       6.849   4.873  16.568  0.00  0.00    +0.000 C 
ATOM     17  C   UNL     1       7.795   6.145  18.472  0.00  0.00    +0.000 C 
ENDBRANCH  14  15
ENDBRANCH   9  14
ENDBRANCH   4   7
BRANCH   1  18
ATOM     18  N   UNL     1       0.303  10.659  19.543  0.00  0.00    +0.000 N 
ATOM     19  H   UNL     1       0.276  10.922  20.534  0.00  0.00    +0.000 HD
BRANCH  18  24
ATOM     20  C   UNL     1      -4.860  11.119  17.046  0.00  0.00    +0.000 C 
ATOM     21  C   UNL     1      -3.503  11.027  17.676  0.00  0.00    +0.000 A 
ATOM     22  C   UNL     1      -2.568  10.086  17.248  0.00  0.00    +0.000 A 
ATOM     23  C   UNL     1      -1.326  10.004  17.870  0.00  0.00    +0.000 A 
ATOM     24  C   UNL     1      -0.958  10.865  18.916  0.00  0.00    +0.000 A 
ATOM     25  C   UNL     1      -1.878  11.867  19.301  0.00  0.00    +0.000 A 
ATOM     26  C   UNL     1      -3.152  11.912  18.698  0.00  0.00    +0.000 A 
BRANCH  25  27
ATOM     27  C   UNL     1      -1.561  12.975  20.240  0.00  0.00    +0.000 C 
ATOM     28  O   UNL     1      -0.720  12.874  21.144  0.00  0.00    +0.000 OA
BRANCH  27  29
ATOM     29  O   UNL     1      -2.318  14.075  20.092  0.00  0.00    +0.000 OA
ATOM     30  H   UNL     1      -2.203  14.538  19.234  0.00  0.00    +0.000 HD
ENDBRANCH  27  29
ENDBRANCH  25  27
ENDBRANCH  18  24
ENDBRANCH   1  18
TORSDOF 7
ENDMDL
MODEL 2
REMARK VINA RESULT:      -8.7      1.250      1.428
REMARK  Name = 
REMARK  10 active torsions:
REMARK  status: ('A' for Active; 'I' for Inactive)
REMARK    1  A    between atoms: C_1  and  C_2
REMARK    2  A    between atoms: C_5  and  N_6
REMARK    3  A    between atoms: N_6  and  C_7
REMARK    4  A    between atoms: C_10  and  C_11
REMARK    5  A    between atoms: C_13  and  O_14
REMARK    6  A    between atoms: O_14  and  C_15
REMARK    7  A    between atoms: C_15  and  C_16
REMARK    8  A    between atoms: C_15  and  C_17
REMARK    9  A    between atoms: C_24  and  C_25
REMARK   10  A    between atoms: C_25  and  O_27
REMARK                            x       y       z     vdW  Elec       q    Type
REMARK                         _______ _______ _______ _____ _____    ______ ____
ROOT
ATOM      1  C   UNL     1       1.158   9.856  18.753  0.00  0.00    +0.000 A 
ATOM      2  C   UNL     1       1.892   9.240  17.743  0.00  0.00    +0.000 A 
ATOM      3  C   UNL     1       2.448   7.987  17.973  0.00  0.00    +0.000 A 
ATOM      4  C   UNL     1       2.319   7.379  19.223  0.00  0.00    +0.000 A 
ATOM      5  N   UNL     1       1.668   7.982  20.246  0.00  0.00    +0.000 NA
ATOM      6  C   UNL     1       1.113   9.191  19.986  0.00  0.00    +0.000 A 
ENDROOT
BRANCH   4   7
ATOM      7  C   UNL     1       2.863   6.041  19.472  0.00  0.00    +0.000 A 
ATOM      8  C   UNL     1       4.161   5.647  19.084  0.00  0.00    +0.000 A 
ATOM      9  C   UNL     1       4.658   4.375  19.401  0.00  0.00    +0.000 A 
ATOM     10  C   UNL     1       3.870   3.508  20.169  0.00  0.00    +0.000 A 
ATOM     11  C   UNL     1       2.567   3.853  20.503  0.00  0.00    +0.000 A 
ATOM     12  C   UNL     1       2.072   5.094  20.147  0.00  0.00    +0.000 A 
ATOM     13  F   UNL     1       0.813   5.375  20.516  0.00  0.00    +0.000 F 
BRANCH   9  14
ATOM     14  O   UNL     1       5.906   4.071  18.925  0.00  0.00    +0.000 OA
BRANCH  14  15
ATOM     15  C   UNL     1       6.679   5.130  18.323  0.00  0.00    +0.000 C 
ATOM     16  C   UNL     1       7.751   5.674  19.271  0.00  0.00    +0.000 C 
ATOM     17  C   UNL     1       7.387   4.553  17.093  0.00  0.00    +0.000 C 
ENDBRANCH  14  15
ENDBRANCH   9  14
ENDBRANCH   4   7
BRANCH   1  18
ATOM     18  N   UNL     1       0.379  11.005  18.483  0.00  0.00    +0.000 N 
ATOM     19  H   UNL     1       0.723  11.822  18.999  0.00  0.00    +0.000 HD
BRANCH  18  24
ATOM     20  C   UNL     1      -5.345  10.790  17.946  0.00  0.00    +0.000 C 
ATOM     21  C   UNL     1      -3.853  10.874  18.061  0.00  0.00    +0.000 A 
ATOM     22  C   UNL     1      -3.022  10.002  17.359  0.00  0.00    +0.000 A 
ATOM     23  C   UNL     1      -1.641  10.083  17.508  0.00  0.00    +0.000 A 
ATOM     24  C   UNL     1      -1.035  11.044  18.334  0.00  0.00    +0.000 A 
ATOM     25  C   UNL     1      -1.875  11.975  18.989  0.00  0.00    +0.000 A 
ATOM     26  C   UNL     1      -3.275  11.854  18.870  0.00  0.00    +0.000 A 
BRANCH  25  27
ATOM     27  C   UNL     1      -1.382  13.168  19.726  0.00  0.00    +0.000 C 
ATOM     28  O   UNL     1      -1.806  13.493  20.844  0.00  0.00    +0.000 OA
BRANCH  27  29
ATOM     29  O   UNL     1      -0.499  13.923  19.052  0.00  0.00    +0.000 OA
ATOM     30  H   UNL     1      -0.351  13.646  18.122  0.00  0.00    +0.000 HD
ENDBRANCH  27  29
ENDBRANCH  25  27
ENDBRANCH  18  24
ENDBRANCH   1  18
TORSDOF 7
ENDMDL
MODEL 3
REMARK VINA RESULT:      -8.6      1.816      2.680
REMARK  Name = 
REMARK  10 active torsions:
REMARK  status: ('A' for Active; 'I' for Inactive)
REMARK    1  A    between atoms: C_1  and  C_2
REMARK    2  A    between atoms: C_5  and  N_6
REMARK    3  A    between atoms: N_6  and  C_7
REMARK    4  A    between atoms: C_10  and  C_11
REMARK    5  A    between atoms: C_13  and  O_14
REMARK    6  A    between atoms: O_14  and  C_15
REMARK    7  A    between atoms: C_15  and  C_16
REMARK    8  A    between atoms: C_15  and  C_17
REMARK    9  A    between atoms: C_24  and  C_25
REMARK   10  A    between atoms: C_25  and  O_27
REMARK                            x       y       z     vdW  Elec       q    Type
REMARK                         _______ _______ _______ _____ _____    ______ ____
ROOT
ATOM      1  C   UNL     1       1.130   9.479  19.856  0.00  0.00    +0.000 A 
ATOM      2  C   UNL     1       1.050   8.646  20.968  0.00  0.00    +0.000 A 
ATOM      3  C   UNL     1       1.615   7.378  20.910  0.00  0.00    +0.000 A 
ATOM      4  C   UNL     1       2.206   6.925  19.730  0.00  0.00    +0.000 A 
ATOM      5  N   UNL     1       2.241   7.687  18.610  0.00  0.00    +0.000 NA
ATOM      6  C   UNL     1       1.706   8.928  18.703  0.00  0.00    +0.000 A 
ENDROOT
BRANCH   4   7
ATOM      7  C   UNL     1       2.844   5.606  19.662  0.00  0.00    +0.000 A 
ATOM      8  C   UNL     1       4.210   5.420  19.363  0.00  0.00    +0.000 A 
ATOM      9  C   UNL     1       4.787   4.142  19.372  0.00  0.00    +0.000 A 
ATOM     10  C   UNL     1       4.001   3.044  19.744  0.00  0.00    +0.000 A 
ATOM     11  C   UNL     1       2.641   3.199  19.978  0.00  0.00    +0.000 A 
ATOM     12  C   UNL     1       2.074   4.459  19.924  0.00  0.00    +0.000 A 
ATOM     13  F   UNL     1       0.760   4.546  20.177  0.00  0.00    +0.000 F 
BRANCH   9  14
ATOM     14  O   UNL     1       6.105   4.065  19.008  0.00  0.00    +0.000 OA
BRANCH  14  15
ATOM     15  C   UNL     1       6.677   5.177  18.290  0.00  0.00    +0.000 C 
ATOM     16  C   UNL     1       7.814   5.845  19.070  0.00  0.00    +0.000 C 
ATOM     17  C   UNL     1       7.258   4.640  16.978  0.00  0.00    +0.000 C 
ENDBRANCH  14  15
ENDBRANCH   9  14
ENDBRANCH   4   7
BRANCH   1  18
ATOM     18  N   UNL     1       0.790  10.849  19.951  0.00  0.00    +0.000 N 
ATOM     19  H   UNL     1       1.567  11.406  20.323  0.00  0.00    +0.000 HD
BRANCH  18  24
ATOM     20  C   UNL     1      -4.105  13.220  21.829  0.00  0.00    +0.000 C 
ATOM     21  C   UNL     1      -2.848  12.570  21.337  0.00  0.00    +0.000 A 
ATOM     22  C   UNL     1      -1.852  12.158  22.221  0.00  0.00    +0.000 A 
ATOM     23  C   UNL     1      -0.681  11.584  21.735  0.00  0.00    +0.000 A 
ATOM     24  C   UNL     1      -0.468  11.374  20.363  0.00  0.00    +0.000 A 
ATOM     25  C   UNL     1      -1.508  11.725  19.472  0.00  0.00    +0.000 A 
ATOM     26  C   UNL     1      -2.670  12.350  19.969  0.00  0.00    +0.000 A 
BRANCH  25  27
ATOM     27  C   UNL     1      -1.521  11.380  18.026  0.00  0.00    +0.000 C 
ATOM     28  O   UNL     1      -1.474  10.213  17.610  0.00  0.00    +0.000 OA
BRANCH  27  29
ATOM     29  O   UNL     1      -1.500  12.434  17.194  0.00  0.00    +0.000 OA
ATOM     30  H   UNL     1      -1.834  12.247  16.289  0.00  0.00    +0.000 HD
ENDBRANCH  27  29
ENDBRANCH  25  27
ENDBRANCH  18  24
ENDBRANCH   1  18
TORSDOF 7
ENDMDL
MODEL 4
REMARK VINA RESULT:      -8.5      1.533      2.511
REMARK  Name = 
REMARK  10 active torsions:
REMARK  status: ('A' for Active; 'I' for Inactive)
REMARK    1  A    between atoms: C_1  and  C_2
REMARK    2  A    between atoms: C_5  and  N_6
REMARK    3  A    between atoms: N_6  and  C_7
REMARK    4  A    between atoms: C_10  and  C_11
REMARK    5  A    between atoms: C_13  and  O_14
REMARK    6  A    between atoms: O_14  and  C_15
REMARK    7  A    between atoms: C_15  and  C_16
REMARK    8  A    between atoms: C_15  and  C_17
REMARK    9  A    between atoms: C_24  and  C_25
REMARK   10  A    between atoms: C_25  and  O_27
REMARK                            x       y       z     vdW  Elec       q    Type
REMARK                         _______ _______ _______ _____ _____    ______ ____
ROOT
ATOM      1  C   UNL     1       1.250   9.709  19.169  0.00  0.00    +0.000 A 
ATOM      2  C   UNL     1       1.275   8.761  20.188  0.00  0.00    +0.000 A 
ATOM      3  C   UNL     1       1.913   7.546  19.972  0.00  0.00    +0.000 A 
ATOM      4  C   UNL     1       2.473   7.258  18.726  0.00  0.00    +0.000 A 
ATOM      5  N   UNL     1       2.407   8.132  17.694  0.00  0.00    +0.000 NA
ATOM      6  C   UNL     1       1.802   9.319  17.941  0.00  0.00    +0.000 A 
ENDROOT
BRANCH   4   7
ATOM      7  C   UNL     1       3.186   5.998  18.491  0.00  0.00    +0.000 A 
ATOM      8  C   UNL     1       4.528   5.784  18.869  0.00  0.00    +0.000 A 
ATOM      9  C   UNL     1       5.146   4.541  18.678  0.00  0.00    +0.000 A 
ATOM     10  C   UNL     1       4.394   3.479  18.160  0.00  0.00    +0.000 A 
ATOM     11  C   UNL     1       3.092   3.688  17.724  0.00  0.00    +0.000 A 
ATOM     12  C   UNL     1       2.507   4.931  17.876  0.00  0.00    +0.000 A 
ATOM     13  F   UNL     1       1.242   5.064  17.452  0.00  0.00    +0.000 F 
BRANCH   9  14
ATOM     14  O   UNL     1       6.470   4.458  19.023  0.00  0.00    +0.000 OA
BRANCH  14  15
ATOM     15  C   UNL     1       7.450   4.906  18.064  0.00  0.00    +0.000 C 
ATOM     16  C   UNL     1       6.961   4.748  16.621  0.00  0.00    +0.000 C 
ATOM     17  C   UNL     1       7.704   6.397  18.314  0.00  0.00    +0.000 C 
ENDBRANCH  14  15
ENDBRANCH   9  14
ENDBRANCH   4   7
BRANCH   1  18
ATOM     18  N   UNL     1       0.831  11.035  19.425  0.00  0.00    +0.000 N 
ATOM     19  H   UNL     1       1.631  11.667  19.540  0.00  0.00    +0.000 HD
BRANCH  18  24
ATOM     20  C   UNL     1      -3.345  12.820  22.958  0.00  0.00    +0.000 C 
ATOM     21  C   UNL     1      -2.275  12.323  22.033  0.00  0.00    +0.000 A 
ATOM     22  C   UNL     1      -1.093  11.771  22.523  0.00  0.00    +0.000 A 
ATOM     23  C   UNL     1      -0.104  11.345  21.641  0.00  0.00    +0.000 A 
ATOM     24  C   UNL     1      -0.262  11.426  20.248  0.00  0.00    +0.000 A 
ATOM     25  C   UNL     1      -1.490  11.919  19.751  0.00  0.00    +0.000 A 
ATOM     26  C   UNL     1      -2.467  12.393  20.651  0.00  0.00    +0.000 A 
BRANCH  25  27
ATOM     27  C   UNL     1      -1.888  11.876  18.319  0.00  0.00    +0.000 C 
ATOM     28  O   UNL     1      -2.760  11.110  17.884  0.00  0.00    +0.000 OA
BRANCH  27  29
ATOM     29  O   UNL     1      -1.171  12.673  17.510  0.00  0.00    +0.000 OA
ATOM     30  H   UNL     1      -1.487  13.602  17.467  0.00  0.00    +0.000 HD
ENDBRANCH  27  29
ENDBRANCH  25  27
ENDBRANCH  18  24
ENDBRANCH   1  18
TORSDOF 7
ENDMDL
MODEL 5
REMARK VINA RESULT:      -8.5      2.021      2.992
REMARK  Name = 
REMARK  10 active torsions:
REMARK  status: ('A' for Active; 'I' for Inactive)
REMARK    1  A    between atoms: C_1  and  C_2
REMARK    2  A    between atoms: C_5  and  N_6
REMARK    3  A    between atoms: N_6  and  C_7
REMARK    4  A    between atoms: C_10  and  C_11
REMARK    5  A    between atoms: C_13  and  O_14
REMARK    6  A    between atoms: O_14  and  C_15
REMARK    7  A    between atoms: C_15  and  C_16
REMARK    8  A    between atoms: C_15  and  C_17
REMARK    9  A    between atoms: C_24  and  C_25
REMARK   10  A    between atoms: C_25  and  O_27
REMARK                            x       y       z     vdW  Elec       q    Type
REMARK                         _______ _______ _______ _____ _____    ______ ____
ROOT
ATOM      1  C   UNL     1       0.907   9.320  19.972  0.00  0.00    +0.000 A 
ATOM      2  C   UNL     1       1.544   9.017  18.772  0.00  0.00    +0.000 A 
ATOM      3  C   UNL     1       2.203   7.801  18.640  0.00  0.00    +0.000 A 
ATOM      4  C   UNL     1       2.273   6.919  19.719  0.00  0.00    +0.000 A 
ATOM      5  N   UNL     1       1.721   7.214  20.921  0.00  0.00    +0.000 NA
ATOM      6  C   UNL     1       1.062   8.394  21.012  0.00  0.00    +0.000 A 
ENDROOT
BRANCH   4   7
ATOM      7  C   UNL     1       2.928   5.614  19.587  0.00  0.00    +0.000 A 
ATOM      8  C   UNL     1       4.309   5.460  19.342  0.00  0.00    +0.000 A 
ATOM      9  C   UNL     1       4.900   4.191  19.287  0.00  0.00    +0.000 A 
ATOM     10  C   UNL     1       4.111   3.062  19.541  0.00  0.00    +0.000 A 
ATOM     11  C   UNL     1       2.740   3.188  19.719  0.00  0.00    +0.000 A 
ATOM     12  C   UNL     1       2.161   4.443  19.729  0.00  0.00    +0.000 A 
ATOM     13  F   UNL     1       0.836   4.501  19.924  0.00  0.00    +0.000 F 
BRANCH   9  14
ATOM     14  O   UNL     1       6.235   4.151  18.982  0.00  0.00    +0.000 OA
BRANCH  14  15
ATOM     15  C   UNL     1       6.790   5.244  18.221  0.00  0.00    +0.000 C 
ATOM     16  C   UNL     1       7.916   5.959  18.974  0.00  0.00    +0.000 C 
ATOM     17  C   UNL     1       7.380   4.665  16.931  0.00  0.00    +0.000 C 
ENDBRANCH  14  15
ENDBRANCH   9  14
ENDBRANCH   4   7
BRANCH   1  18
ATOM     18  N   UNL     1       0.028  10.425  20.066  0.00  0.00    +0.000 N 
ATOM     19  H   UNL     1      -0.920  10.179  19.764  0.00  0.00    +0.000 HD
BRANCH  18  24
ATOM     20  C   UNL     1       1.651  15.777  18.714  0.00  0.00    +0.000 C 
ATOM     21  C   UNL     1       1.202  14.397  19.088  0.00  0.00    +0.000 A 
ATOM     22  C   UNL     1       1.868  13.659  20.065  0.00  0.00    +0.000 A 
ATOM     23  C   UNL     1       1.447  12.368  20.372  0.00  0.00    +0.000 A 
ATOM     24  C   UNL     1       0.341  11.775  19.742  0.00  0.00    +0.000 A 
ATOM     25  C   UNL     1      -0.379  12.551  18.804  0.00  0.00    +0.000 A 
ATOM     26  C   UNL     1       0.084  13.839  18.464  0.00  0.00    +0.000 A 
BRANCH  25  27
ATOM     27  C   UNL     1      -1.680  12.147  18.210  0.00  0.00    +0.000 C 
ATOM     28  O   UNL     1      -2.625  11.716  18.885  0.00  0.00    +0.000 OA
BRANCH  27  29
ATOM     29  O   UNL     1      -1.730  12.202  16.869  0.00  0.00    +0.000 OA
ATOM     30  H   UNL     1      -2.545  11.822  16.474  0.00  0.00    +0.000 HD
ENDBRANCH  27  29
ENDBRANCH  25  27
ENDBRANCH  18  24
ENDBRANCH   1  18
TORSDOF 7
ENDMDL
MODEL 6
REMARK VINA RESULT:      -8.5      2.039      9.134
REMARK  Name = 
REMARK  10 active torsions:
REMARK  status: ('A' for Active; 'I' for Inactive)
REMARK    1  A    between atoms: C_1  and  C_2
REMARK    2  A    between atoms: C_5  and  N_6
REMARK    3  A    between atoms: N_6  and  C_7
REMARK    4  A    between atoms: C_10  and  C_11
REMARK    5  A    between atoms: C_13  and  O_14
REMARK    6  A    between atoms: O_14  and  C_15
REMARK    7  A    between atoms: C_15  and  C_16
REMARK    8  A    between atoms: C_15  and  C_17
REMARK    9  A    between atoms: C_24  and  C_25
REMARK   10  A    between atoms: C_25  and  O_27
REMARK                            x       y       z     vdW  Elec       q    Type
REMARK                         _______ _______ _______ _____ _____    ______ ____
ROOT
ATOM      1  C   UNL     1       3.164   6.686  18.920  0.00  0.00    +0.000 A 
ATOM      2  C   UNL     1       3.032   7.600  17.877  0.00  0.00    +0.000 A 
ATOM      3  C   UNL     1       2.154   8.668  18.016  0.00  0.00    +0.000 A 
ATOM      4  C   UNL     1       1.374   8.791  19.167  0.00  0.00    +0.000 A 
ATOM      5  N   UNL     1       1.431   7.883  20.170  0.00  0.00    +0.000 NA
ATOM      6  C   UNL     1       2.314   6.866  20.019  0.00  0.00    +0.000 A 
ENDROOT
BRANCH   4   7
ATOM      7  C   UNL     1       0.473   9.934  19.349  0.00  0.00    +0.000 A 
ATOM      8  C   UNL     1      -0.451  10.358  18.370  0.00  0.00    +0.000 A 
ATOM      9  C   UNL     1      -1.335  11.417  18.617  0.00  0.00    +0.000 A 
ATOM     10  C   UNL     1      -1.338  12.020  19.881  0.00  0.00    +0.000 A 
ATOM     11  C   UNL     1      -0.394  11.660  20.834  0.00  0.00    +0.000 A 
ATOM     12  C   UNL     1       0.502  10.643  20.563  0.00  0.00    +0.000 A 
ATOM     13  F   UNL     1       1.376  10.329  21.531  0.00  0.00    +0.000 F 
BRANCH   9  14
ATOM     14  O   UNL     1      -2.147  11.789  17.578  0.00  0.00    +0.000 OA
BRANCH  14  15
ATOM     15  C   UNL     1      -3.030  10.796  17.018  0.00  0.00    +0.000 C 
ATOM     16  C   UNL     1      -4.502  11.097  17.315  0.00  0.00    +0.000 C 
ATOM     17  C   UNL     1      -2.844  10.807  15.497  0.00  0.00    +0.000 C 
ENDBRANCH  14  15
ENDBRANCH   9  14
ENDBRANCH   4   7
BRANCH   1  18
ATOM     18  N   UNL     1       4.211   5.735  18.920  0.00  0.00    +0.000 N 
ATOM     19  H   UNL     1       4.794   5.817  19.760  0.00  0.00    +0.000 HD
BRANCH  18  24
ATOM     20  C   UNL     1       7.066   4.285  14.140  0.00  0.00    +0.000 C 
ATOM     21  C   UNL     1       6.334   4.632  15.401  0.00  0.00    +0.000 A 
ATOM     22  C   UNL     1       4.970   4.383  15.538  0.00  0.00    +0.000 A 
ATOM     23  C   UNL     1       4.310   4.742  16.710  0.00  0.00    +0.000 A 
ATOM     24  C   UNL     1       4.980   5.334  17.792  0.00  0.00    +0.000 A 
ATOM     25  C   UNL     1       6.378   5.519  17.681  0.00  0.00    +0.000 A 
ATOM     26  C   UNL     1       7.030   5.197  16.473  0.00  0.00    +0.000 A 
BRANCH  25  27
ATOM     27  C   UNL     1       7.256   5.937  18.805  0.00  0.00    +0.000 C 
ATOM     28  O   UNL     1       7.205   5.421  19.930  0.00  0.00    +0.000 OA
BRANCH  27  29
ATOM     29  O   UNL     1       8.058   6.981  18.536  0.00  0.00    +0.000 OA
ATOM     30  H   UNL     1       8.693   6.830  17.803  0.00  0.00    +0.000 HD
ENDBRANCH  27  29
ENDBRANCH  25  27
ENDBRANCH  18  24
ENDBRANCH   1  18
TORSDOF 7
ENDMDL
MODEL 7
REMARK VINA RESULT:      -8.3      2.273      9.153
REMARK  Name = 
REMARK  10 active torsions:
REMARK  status: ('A' for Active; 'I' for Inactive)
REMARK    1  A    between atoms: C_1  and  C_2
REMARK    2  A    between atoms: C_5  and  N_6
REMARK    3  A    between atoms: N_6  and  C_7
REMARK    4  A    between atoms: C_10  and  C_11
REMARK    5  A    between atoms: C_13  and  O_14
REMARK    6  A    between atoms: O_14  and  C_15
REMARK    7  A    between atoms: C_15  and  C_16
REMARK    8  A    between atoms: C_15  and  C_17
REMARK    9  A    between atoms: C_24  and  C_25
REMARK   10  A    between atoms: C_25  and  O_27
REMARK                            x       y       z     vdW  Elec       q    Type
REMARK                         _______ _______ _______ _____ _____    ______ ____
ROOT
ATOM      1  C   UNL     1       2.604   7.373  18.991  0.00  0.00    +0.000 A 
ATOM      2  C   UNL     1       2.326   8.149  17.869  0.00  0.00    +0.000 A 
ATOM      3  C   UNL     1       1.457   9.226  17.985  0.00  0.00    +0.000 A 
ATOM      4  C   UNL     1       0.827   9.493  19.202  0.00  0.00    +0.000 A 
ATOM      5  N   UNL     1       1.025   8.717  20.294  0.00  0.00    +0.000 NA
ATOM      6  C   UNL     1       1.897   7.689  20.159  0.00  0.00    +0.000 A 
ENDROOT
BRANCH   4   7
ATOM      7  C   UNL     1      -0.062  10.649  19.355  0.00  0.00    +0.000 A 
ATOM      8  C   UNL     1      -1.237  10.831  18.596  0.00  0.00    +0.000 A 
ATOM      9  C   UNL     1      -2.087  11.922  18.823  0.00  0.00    +0.000 A 
ATOM     10  C   UNL     1      -1.790  12.810  19.865  0.00  0.00    +0.000 A 
ATOM     11  C   UNL     1      -0.605  12.684  20.580  0.00  0.00    +0.000 A 
ATOM     12  C   UNL     1       0.247  11.628  20.316  0.00  0.00    +0.000 A 
ATOM     13  F   UNL     1       1.365  11.551  21.053  0.00  0.00    +0.000 F 
BRANCH   9  14
ATOM     14  O   UNL     1      -3.168  12.038  17.990  0.00  0.00    +0.000 OA
BRANCH  14  15
ATOM     15  C   UNL     1      -3.864  10.833  17.610  0.00  0.00    +0.000 C 
ATOM     16  C   UNL     1      -5.291  10.791  18.164  0.00  0.00    +0.000 C 
ATOM     17  C   UNL     1      -3.952  10.804  16.080  0.00  0.00    +0.000 C 
ENDBRANCH  14  15
ENDBRANCH   9  14
ENDBRANCH   4   7
BRANCH   1  18
ATOM     18  N   UNL     1       3.658   6.429  18.975  0.00  0.00    +0.000 N 
ATOM     19  H   UNL     1       4.391   6.671  19.650  0.00  0.00    +0.000 HD
BRANCH  18  24
ATOM     20  C   UNL     1       6.203   3.969  14.439  0.00  0.00    +0.000 C 
ATOM     21  C   UNL     1       5.511   4.619  15.599  0.00  0.00    +0.000 A 
ATOM     22  C   UNL     1       5.825   5.918  15.994  0.00  0.00    +0.000 A 
ATOM     23  C   UNL     1       5.187   6.485  17.094  0.00  0.00    +0.000 A 
ATOM     24  C   UNL     1       4.202   5.799  17.821  0.00  0.00    +0.000 A 
ATOM     25  C   UNL     1       3.832   4.509  17.375  0.00  0.00    +0.000 A 
ATOM     26  C   UNL     1       4.517   3.923  16.291  0.00  0.00    +0.000 A 
BRANCH  25  27
ATOM     27  C   UNL     1       2.674   3.743  17.906  0.00  0.00    +0.000 C 
ATOM     28  O   UNL     1       1.752   3.330  17.188  0.00  0.00    +0.000 OA
BRANCH  27  29
ATOM     29  O   UNL     1       2.654   3.602  19.242  0.00  0.00    +0.000 OA
ATOM     30  H   UNL     1       2.764   2.679  19.557  0.00  0.00    +0.000 HD
ENDBRANCH  27  29
ENDBRANCH  25  27
ENDBRANCH  18  24
ENDBRANCH   1  18
TORSDOF 7
ENDMDL
MODEL 8
REMARK VINA RESULT:      -8.3      1.546      2.071
REMARK  Name = 
REMARK  10 active torsions:
REMARK  status: ('A' for Active; 'I' for Inactive)
REMARK    1  A    between atoms: C_1  and  C_2
REMARK    2  A    between atoms: C_5  and  N_6
REMARK    3  A    between atoms: N_6  and  C_7
REMARK    4  A    between atoms: C_10  and  C_11
REMARK    5  A    between atoms: C_13  and  O_14
REMARK    6  A    between atoms: O_14  and  C_15
REMARK    7  A    between atoms: C_15  and  C_16
REMARK    8  A    between atoms: C_15  and  C_17
REMARK    9  A    between atoms: C_24  and  C_25
REMARK   10  A    between atoms: C_25  and  O_27
REMARK                            x       y       z     vdW  Elec       q    Type
REMARK                         _______ _______ _______ _____ _____    ______ ____
ROOT
ATOM      1  C   UNL     1       1.075   9.452  19.865  0.00  0.00    +0.000 A 
ATOM      2  C   UNL     1       0.977   8.607  20.967  0.00  0.00    +0.000 A 
ATOM      3  C   UNL     1       1.556   7.346  20.910  0.00  0.00    +0.000 A 
ATOM      4  C   UNL     1       2.181   6.911  19.740  0.00  0.00    +0.000 A 
ATOM      5  N   UNL     1       2.235   7.684  18.629  0.00  0.00    +0.000 NA
ATOM      6  C   UNL     1       1.685   8.919  18.721  0.00  0.00    +0.000 A 
ENDROOT
BRANCH   4   7
ATOM      7  C   UNL     1       2.834   5.599  19.675  0.00  0.00    +0.000 A 
ATOM      8  C   UNL     1       4.202   5.428  19.377  0.00  0.00    +0.000 A 
ATOM      9  C   UNL     1       4.794   4.157  19.388  0.00  0.00    +0.000 A 
ATOM     10  C   UNL     1       4.021   3.051  19.762  0.00  0.00    +0.000 A 
ATOM     11  C   UNL     1       2.660   3.190  19.996  0.00  0.00    +0.000 A 
ATOM     12  C   UNL     1       2.078   4.443  19.940  0.00  0.00    +0.000 A 
ATOM     13  F   UNL     1       0.763   4.515  20.193  0.00  0.00    +0.000 F 
BRANCH   9  14
ATOM     14  O   UNL     1       6.113   4.095  19.023  0.00  0.00    +0.000 OA
BRANCH  14  15
ATOM     15  C   UNL     1       6.667   5.205  18.289  0.00  0.00    +0.000 C 
ATOM     16  C   UNL     1       7.807   5.890  19.049  0.00  0.00    +0.000 C 
ATOM     17  C   UNL     1       7.239   4.660  16.975  0.00  0.00    +0.000 C 
ENDBRANCH  14  15
ENDBRANCH   9  14
ENDBRANCH   4   7
BRANCH   1  18
ATOM     18  N   UNL     1       0.718  10.817  19.965  0.00  0.00    +0.000 N 
ATOM     19  H   UNL     1       1.283  11.304  20.669  0.00  0.00    +0.000 HD
BRANCH  18  24
ATOM     20  C   UNL     1      -4.718  12.649  19.520  0.00  0.00    +0.000 C 
ATOM     21  C   UNL     1      -3.291  12.207  19.636  0.00  0.00    +0.000 A 
ATOM     22  C   UNL     1      -2.562  11.810  18.517  0.00  0.00    +0.000 A 
ATOM     23  C   UNL     1      -1.247  11.376  18.658  0.00  0.00    +0.000 A 
ATOM     24  C   UNL     1      -0.602  11.346  19.905  0.00  0.00    +0.000 A 
ATOM     25  C   UNL     1      -1.318  11.818  21.030  0.00  0.00    +0.000 A 
ATOM     26  C   UNL     1      -2.664  12.209  20.885  0.00  0.00    +0.000 A 
BRANCH  25  27
ATOM     27  C   UNL     1      -0.713  12.041  22.369  0.00  0.00    +0.000 C 
ATOM     28  O   UNL     1      -0.280  11.121  23.077  0.00  0.00    +0.000 OA
BRANCH  27  29
ATOM     29  O   UNL     1      -0.747  13.314  22.798  0.00  0.00    +0.000 OA
ATOM     30  H   UNL     1      -0.845  13.415  23.770  0.00  0.00    +0.000 HD
ENDBRANCH  27  29
ENDBRANCH  25  27
ENDBRANCH  18  24
ENDBRANCH   1  18
TORSDOF 7
ENDMDL
MODEL 9
REMARK VINA RESULT:      -8.3      2.022      3.060
REMARK  Name = 
REMARK  10 active torsions:
REMARK  status: ('A' for Active; 'I' for Inactive)
REMARK    1  A    between atoms: C_1  and  C_2
REMARK    2  A    between atoms: C_5  and  N_6
REMARK    3  A    between atoms: N_6  and  C_7
REMARK    4  A    between atoms: C_10  and  C_11
REMARK    5  A    between atoms: C_13  and  O_14
REMARK    6  A    between atoms: O_14  and  C_15
REMARK    7  A    between atoms: C_15  and  C_16
REMARK    8  A    between atoms: C_15  and  C_17
REMARK    9  A    between atoms: C_24  and  C_25
REMARK   10  A    between atoms: C_25  and  O_27
REMARK                            x       y       z     vdW  Elec       q    Type
REMARK                         _______ _______ _______ _____ _____    ______ ____
ROOT
ATOM      1  C   UNL     1       0.988   9.346  20.048  0.00  0.00    +0.000 A 
ATOM      2  C   UNL     1       1.151   8.266  20.912  0.00  0.00    +0.000 A 
ATOM      3  C   UNL     1       1.858   7.151  20.481  0.00  0.00    +0.000 A 
ATOM      4  C   UNL     1       2.350   7.092  19.176  0.00  0.00    +0.000 A 
ATOM      5  N   UNL     1       2.150   8.097  18.291  0.00  0.00    +0.000 NA
ATOM      6  C   UNL     1       1.481   9.183  18.746  0.00  0.00    +0.000 A 
ENDROOT
BRANCH   4   7
ATOM      7  C   UNL     1       3.134   5.941  18.715  0.00  0.00    +0.000 A 
ATOM      8  C   UNL     1       4.478   5.721  19.084  0.00  0.00    +0.000 A 
ATOM      9  C   UNL     1       5.166   4.572  18.668  0.00  0.00    +0.000 A 
ATOM     10  C   UNL     1       4.481   3.602  17.925  0.00  0.00    +0.000 A 
ATOM     11  C   UNL     1       3.179   3.830  17.500  0.00  0.00    +0.000 A 
ATOM     12  C   UNL     1       2.526   4.988  17.880  0.00  0.00    +0.000 A 
ATOM     13  F   UNL     1       1.264   5.142  17.452  0.00  0.00    +0.000 F 
BRANCH   9  14
ATOM     14  O   UNL     1       6.485   4.486  19.028  0.00  0.00    +0.000 OA
BRANCH  14  15
ATOM     15  C   UNL     1       7.475   4.980  18.104  0.00  0.00    +0.000 C 
ATOM     16  C   UNL     1       6.996   4.908  16.651  0.00  0.00    +0.000 C 
ATOM     17  C   UNL     1       7.737   6.453  18.440  0.00  0.00    +0.000 C 
ENDBRANCH  14  15
ENDBRANCH   9  14
ENDBRANCH   4   7
BRANCH   1  18
ATOM     18  N   UNL     1       0.493  10.584  20.522  0.00  0.00    +0.000 N 
ATOM     19  H   UNL     1      -0.503  10.525  20.759  0.00  0.00    +0.000 HD
BRANCH  18  24
ATOM     20  C   UNL     1       2.218  15.667  18.451  0.00  0.00    +0.000 C 
ATOM     21  C   UNL     1       1.743  14.360  19.010  0.00  0.00    +0.000 A 
ATOM     22  C   UNL     1       2.401  13.746  20.075  0.00  0.00    +0.000 A 
ATOM     23  C   UNL     1       1.955  12.518  20.555  0.00  0.00    +0.000 A 
ATOM     24  C   UNL     1       0.832  11.871  20.018  0.00  0.00    +0.000 A 
ATOM     25  C   UNL     1       0.121  12.528  18.987  0.00  0.00    +0.000 A 
ATOM     26  C   UNL     1       0.608  13.748  18.474  0.00  0.00    +0.000 A 
BRANCH  25  27
ATOM     27  C   UNL     1      -1.193  12.076  18.460  0.00  0.00    +0.000 C 
ATOM     28  O   UNL     1      -1.970  11.361  19.108  0.00  0.00    +0.000 OA
BRANCH  27  29
ATOM     29  O   UNL     1      -1.444  12.431  17.189  0.00  0.00    +0.000 OA
ATOM     30  H   UNL     1      -2.298  12.102  16.834  0.00  0.00    +0.000 HD
ENDBRANCH  27  29
ENDBRANCH  25  27
ENDBRANCH  18  24
ENDBRANCH   1  18
TORSDOF 7
ENDMDL
