MODEL 1
REMARK VINA RESULT:      -8.1      0.000      0.000
REMARK  Name = 
REMARK  7 active torsions:
REMARK  status: ('A' for Active; 'I' for Inactive)
REMARK    1  A    between atoms: C_1  and  C_2
REMARK    2  A    between atoms: N_4  and  C_5
REMARK    3  A    between atoms: C_8  and  S_9
REMARK    4  A    between atoms: S_9  and  N_12
REMARK    5  A    between atoms: N_12  and  C_13
REMARK    6  A    between atoms: C_16  and  O_17
REMARK    7  A    between atoms: O_17  and  C_18
REMARK                            x       y       z     vdW  Elec       q    Type
REMARK                         _______ _______ _______ _____ _____    ______ ____
ROOT
ATOM      1  N   UNL     1       2.434   6.267  21.094  0.00  0.00    +0.000 N 
ATOM      2  H   UNL     1       2.737   6.324  22.063  0.00  0.00    +0.000 HD
ENDROOT
BRANCH   1   3
ATOM      3  C   UNL     1       1.885   7.404  20.456  0.00  0.00    +0.000 A 
ATOM      4  C   UNL     1       0.986   8.239  21.116  0.00  0.00    +0.000 A 
ATOM      5  C   UNL     1       0.451   9.342  20.442  0.00  0.00    +0.000 A 
ATOM      6  C   UNL     1       0.812   9.606  19.119  0.00  0.00    +0.000 A 
ATOM      7  C   UNL     1       1.670   8.731  18.449  0.00  0.00    +0.000 A 
ATOM      8  C   UNL     1       2.231   7.653  19.129  0.00  0.00    +0.000 A 
BRANCH   6   9
ATOM      9  O   UNL     1       0.237  10.710  18.530  0.00  0.00    +0.000 OA
BRANCH   9  10
ATOM     10  C   UNL     1      -1.100  10.682  18.217  0.00  0.00    +0.000 A 
ATOM     11  C   UNL     1      -1.680   9.836  17.271  0.00  0.00    +0.000 A 
ATOM     12  C   UNL     1      -3.053   9.890  17.052  0.00  0.00    +0.000 A 
ATOM     13  C   UNL     1      -3.795  10.825  17.754  0.00  0.00    +0.000 A 
ATOM     14  N   UNL     1      -3.263  11.692  18.642  0.00  0.00    +0.000 NA
ATOM     15  C   UNL     1      -1.926  11.603  18.849  0.00  0.00    +0.000 A 
ENDBRANCH   9  10
ENDBRANCH   6   9
ENDBRANCH   1   3
BRANCH   1  16
ATOM     16  S   UNL     1       1.908   4.735  20.622  0.00  0.00    +0.000 S 
ATOM     17  O   UNL     1       0.553   4.839  20.125  0.00  0.00    +0.000 OA
ATOM     18  O   UNL     1       2.245   3.837  21.708  0.00  0.00    +0.000 OA
BRANCH  16  22
ATOM     19  C   UNL     1       4.716   3.938  17.100  0.00  0.00    +0.000 A 
ATOM     20  C   UNL     1       5.205   4.429  18.314  0.00  0.00    +0.000 A 
ATOM     21  C   UNL     1       4.353   4.628  19.401  0.00  0.00    +0.000 A 
ATOM     22  C   UNL     1       2.991   4.356  19.268  0.00  0.00    +0.000 A 
ATOM     23  C   UNL     1       2.481   3.866  18.065  0.00  0.00    +0.000 A 
ATOM     24  C   UNL     1       3.348   3.664  16.980  0.00  0.00    +0.000 A 
BRANCH  19  28
ATOM     25  C   UNL     1       6.709   4.105  13.898  0.00  0.00    +0.000 C 
ATOM     26  C   UNL     1       5.910   4.678  15.039  0.00  0.00    +0.000 C 
ATOM     27  O   UNL     1       5.647   5.874  15.070  0.00  0.00    +0.000 OA
ATOM     28  N   UNL     1       5.539   3.723  15.972  0.00  0.00    +0.000 N 
ATOM     29  H   UNL     1       5.952   2.803  15.882  0.00  0.00    +0.000 HD
ENDBRANCH  19  28
ENDBRANCH  16  22
ENDBRANCH   1  16
TORSDOF 6
ENDMDL
MODEL 2
REMARK VINA RESULT:      -8.0      0.131      1.321
REMARK  Name = 
REMARK  7 active torsions:
REMARK  status: ('A' for Active; 'I' for Inactive)
REMARK    1  A    between atoms: C_1  and  C_2
REMARK    2  A    between atoms: N_4  and  C_5
REMARK    3  A    between atoms: C_8  and  S_9
REMARK    4  A    between atoms: S_9  and  N_12
REMARK    5  A    between atoms: N_12  and  C_13
REMARK    6  A    between atoms: C_16  and  O_17
REMARK    7  A    between atoms: O_17  and  C_18
REMARK                            x       y       z     vdW  Elec       q    Type
REMARK                         _______ _______ _______ _____ _____    ______ ____
ROOT
ATOM      1  N   UNL     1       2.348   6.228  21.179  0.00  0.00    +0.000 N 
ATOM      2  H   UNL     1       2.567   6.282  22.171  0.00  0.00    +0.000 HD
ENDROOT
BRANCH   1   3
ATOM      3  C   UNL     1       1.794   7.349  20.516  0.00  0.00    +0.000 A 
ATOM      4  C   UNL     1       2.191   7.694  19.226  0.00  0.00    +0.000 A 
ATOM      5  C   UNL     1       1.633   8.821  18.614  0.00  0.00    +0.000 A 
ATOM      6  C   UNL     1       0.687   9.596  19.288  0.00  0.00    +0.000 A 
ATOM      7  C   UNL     1       0.337   9.274  20.602  0.00  0.00    +0.000 A 
ATOM      8  C   UNL     1       0.865   8.132  21.199  0.00  0.00    +0.000 A 
BRANCH   6   9
ATOM      9  O   UNL     1       0.190  10.690  18.614  0.00  0.00    +0.000 OA
BRANCH   9  10
ATOM     10  C   UNL     1      -1.136  10.713  18.259  0.00  0.00    +0.000 A 
ATOM     11  C   UNL     1      -1.716   9.892  17.291  0.00  0.00    +0.000 A 
ATOM     12  C   UNL     1      -3.079   9.997  17.029  0.00  0.00    +0.000 A 
ATOM     13  C   UNL     1      -3.808  10.957  17.712  0.00  0.00    +0.000 A 
ATOM     14  N   UNL     1      -3.272  11.801  18.621  0.00  0.00    +0.000 NA
ATOM     15  C   UNL     1      -1.946  11.661  18.869  0.00  0.00    +0.000 A 
ENDBRANCH   9  10
ENDBRANCH   6   9
ENDBRANCH   1   3
BRANCH   1  16
ATOM     16  S   UNL     1       1.946   4.681  20.641  0.00  0.00    +0.000 S 
ATOM     17  O   UNL     1       0.565   4.682  20.208  0.00  0.00    +0.000 OA
ATOM     18  O   UNL     1       2.415   3.762  21.659  0.00  0.00    +0.000 OA
BRANCH  16  22
ATOM     19  C   UNL     1       4.643   3.983  17.014  0.00  0.00    +0.000 A 
ATOM     20  C   UNL     1       3.270   3.727  16.950  0.00  0.00    +0.000 A 
ATOM     21  C   UNL     1       2.442   3.984  18.043  0.00  0.00    +0.000 A 
ATOM     22  C   UNL     1       2.995   4.481  19.224  0.00  0.00    +0.000 A 
ATOM     23  C   UNL     1       4.364   4.742  19.311  0.00  0.00    +0.000 A 
ATOM     24  C   UNL     1       5.185   4.486  18.203  0.00  0.00    +0.000 A 
BRANCH  19  28
ATOM     25  C   UNL     1       6.785   4.057  13.906  0.00  0.00    +0.000 C 
ATOM     26  C   UNL     1       5.932   4.662  14.989  0.00  0.00    +0.000 C 
ATOM     27  O   UNL     1       5.665   5.858  14.969  0.00  0.00    +0.000 OA
ATOM     28  N   UNL     1       5.519   3.736  15.934  0.00  0.00    +0.000 N 
ATOM     29  H   UNL     1       5.938   2.816  15.892  0.00  0.00    +0.000 HD
ENDBRANCH  19  28
ENDBRANCH  16  22
ENDBRANCH   1  16
TORSDOF 6
ENDMDL
MODEL 3
REMARK VINA RESULT:      -7.6      0.804      1.338
REMARK  Name = 
REMARK  7 active torsions:
REMARK  status: ('A' for Active; 'I' for Inactive)
REMARK    1  A    between atoms: C_1  and  C_2
REMARK    2  A    between atoms: N_4  and  C_5
REMARK    3  A    between atoms: C_8  and  S_9
REMARK    4  A    between atoms: S_9  and  N_12
REMARK    5  A    between atoms: N_12  and  C_13
REMARK    6  A    between atoms: C_16  and  O_17
REMARK    7  A    between atoms: O_17  and  C_18
REMARK                            x       y       z     vdW  Elec       q    Type
REMARK                         _______ _______ _______ _____ _____    ______ ____
ROOT
ATOM      1  N   UNL     1       2.439   5.812  21.177  0.00  0.00    +0.000 N 
ATOM      2  H   UNL     1       2.584   5.873  22.182  0.00  0.00    +0.000 HD
ENDROOT
BRANCH   1   3
ATOM      3  C   UNL     1       2.019   6.952  20.453  0.00  0.00    +0.000 A 
ATOM      4  C   UNL     1       2.494   7.208  19.169  0.00  0.00    +0.000 A 
ATOM      5  C   UNL     1       2.069   8.358  18.495  0.00  0.00    +0.000 A 
ATOM      6  C   UNL     1       1.177   9.245  19.103  0.00  0.00    +0.000 A 
ATOM      7  C   UNL     1       0.751   9.008  20.412  0.00  0.00    +0.000 A 
ATOM      8  C   UNL     1       1.144   7.846  21.070  0.00  0.00    +0.000 A 
BRANCH   6   9
ATOM      9  O   UNL     1       0.812  10.353  18.371  0.00  0.00    +0.000 OA
BRANCH   9  10
ATOM     10  C   UNL     1      -0.381  10.975  18.646  0.00  0.00    +0.000 A 
ATOM     11  C   UNL     1      -1.621  10.575  18.148  0.00  0.00    +0.000 A 
ATOM     12  C   UNL     1      -2.766  11.278  18.512  0.00  0.00    +0.000 A 
ATOM     13  C   UNL     1      -2.625  12.390  19.325  0.00  0.00    +0.000 A 
ATOM     14  N   UNL     1      -1.437  12.834  19.788  0.00  0.00    +0.000 NA
ATOM     15  C   UNL     1      -0.341  12.118  19.433  0.00  0.00    +0.000 A 
ENDBRANCH   9  10
ENDBRANCH   6   9
ENDBRANCH   1   3
BRANCH   1  16
ATOM     16  S   UNL     1       1.968   4.284  20.637  0.00  0.00    +0.000 S 
ATOM     17  O   UNL     1       0.601   4.356  20.166  0.00  0.00    +0.000 OA
ATOM     18  O   UNL     1       2.359   3.349  21.672  0.00  0.00    +0.000 OA
BRANCH  16  22
ATOM     19  C   UNL     1       4.770   3.778  17.058  0.00  0.00    +0.000 A 
ATOM     20  C   UNL     1       5.274   4.043  18.335  0.00  0.00    +0.000 A 
ATOM     21  C   UNL     1       4.420   4.151  19.433  0.00  0.00    +0.000 A 
ATOM     22  C   UNL     1       3.043   4.018  19.251  0.00  0.00    +0.000 A 
ATOM     23  C   UNL     1       2.518   3.754  17.985  0.00  0.00    +0.000 A 
ATOM     24  C   UNL     1       3.387   3.641  16.889  0.00  0.00    +0.000 A 
BRANCH  19  28
ATOM     25  C   UNL     1       6.720   4.201  13.853  0.00  0.00    +0.000 C 
ATOM     26  C   UNL     1       5.897   4.675  15.022  0.00  0.00    +0.000 C 
ATOM     27  O   UNL     1       5.558   5.850  15.102  0.00  0.00    +0.000 OA
ATOM     28  N   UNL     1       5.596   3.662  15.917  0.00  0.00    +0.000 N 
ATOM     29  H   UNL     1       6.066   2.775  15.788  0.00  0.00    +0.000 HD
ENDBRANCH  19  28
ENDBRANCH  16  22
ENDBRANCH   1  16
TORSDOF 6
ENDMDL
MODEL 4
REMARK VINA RESULT:      -7.6      2.125      8.336
REMARK  Name = 
REMARK  7 active torsions:
REMARK  status: ('A' for Active; 'I' for Inactive)
REMARK    1  A    between atoms: C_1  and  C_2
REMARK    2  A    between atoms: N_4  and  C_5
REMARK    3  A    between atoms: C_8  and  S_9
REMARK    4  A    between atoms: S_9  and  N_12
REMARK    5  A    between atoms: N_12  and  C_13
REMARK    6  A    between atoms: C_16  and  O_17
REMARK    7  A    between atoms: O_17  and  C_18
REMARK                            x       y       z     vdW  Elec       q    Type
REMARK                         _______ _______ _______ _____ _____    ______ ____
ROOT
ATOM      1  N   UNL     1       4.221   5.639  19.800  0.00  0.00    +0.000 N 
ATOM      2  H   UNL     1       4.517   6.172  20.614  0.00  0.00    +0.000 HD
ENDROOT
BRANCH   1   3
ATOM      3  C   UNL     1       5.041   5.596  18.647  0.00  0.00    +0.000 A 
ATOM      4  C   UNL     1       5.839   4.489  18.370  0.00  0.00    +0.000 A 
ATOM      5  C   UNL     1       6.651   4.496  17.230  0.00  0.00    +0.000 A 
ATOM      6  C   UNL     1       6.663   5.602  16.377  0.00  0.00    +0.000 A 
ATOM      7  C   UNL     1       5.902   6.729  16.695  0.00  0.00    +0.000 A 
ATOM      8  C   UNL     1       5.067   6.710  17.809  0.00  0.00    +0.000 A 
BRANCH   6   9
ATOM      9  O   UNL     1       7.492   5.527  15.280  0.00  0.00    +0.000 OA
BRANCH   9  10
ATOM     10  C   UNL     1       7.059   4.865  14.157  0.00  0.00    +0.000 A 
ATOM     11  C   UNL     1       5.986   3.975  14.120  0.00  0.00    +0.000 A 
ATOM     12  C   UNL     1       5.631   3.377  12.915  0.00  0.00    +0.000 A 
ATOM     13  C   UNL     1       6.396   3.653  11.793  0.00  0.00    +0.000 A 
ATOM     14  N   UNL     1       7.470   4.471  11.800  0.00  0.00    +0.000 NA
ATOM     15  C   UNL     1       7.779   5.054  12.985  0.00  0.00    +0.000 A 
ENDBRANCH   9  10
ENDBRANCH   6   9
ENDBRANCH   1   3
BRANCH   1  16
ATOM     16  S   UNL     1       2.548   5.528  19.614  0.00  0.00    +0.000 S 
ATOM     17  O   UNL     1       1.969   5.079  20.862  0.00  0.00    +0.000 OA
ATOM     18  O   UNL     1       2.323   4.809  18.377  0.00  0.00    +0.000 OA
BRANCH  16  22
ATOM     19  C   UNL     1       1.163   9.832  18.916  0.00  0.00    +0.000 A 
ATOM     20  C   UNL     1       1.147   9.268  20.196  0.00  0.00    +0.000 A 
ATOM     21  C   UNL     1       1.613   7.971  20.414  0.00  0.00    +0.000 A 
ATOM     22  C   UNL     1       2.079   7.217  19.336  0.00  0.00    +0.000 A 
ATOM     23  C   UNL     1       2.103   7.759  18.050  0.00  0.00    +0.000 A 
ATOM     24  C   UNL     1       1.638   9.066  17.844  0.00  0.00    +0.000 A 
BRANCH  19  28
ATOM     25  C   UNL     1      -0.790  12.983  18.208  0.00  0.00    +0.000 C 
ATOM     26  C   UNL     1      -0.624  11.548  18.631  0.00  0.00    +0.000 C 
ATOM     27  O   UNL     1      -1.605  10.869  18.910  0.00  0.00    +0.000 OA
ATOM     28  N   UNL     1       0.700  11.139  18.648  0.00  0.00    +0.000 N 
ATOM     29  H   UNL     1       1.407  11.854  18.530  0.00  0.00    +0.000 HD
ENDBRANCH  19  28
ENDBRANCH  16  22
ENDBRANCH   1  16
TORSDOF 6
ENDMDL
MODEL 5
REMARK VINA RESULT:      -7.6      0.677      1.148
REMARK  Name = 
REMARK  7 active torsions:
REMARK  status: ('A' for Active; 'I' for Inactive)
REMARK    1  A    between atoms: C_1  and  C_2
REMARK    2  A    between atoms: N_4  and  C_5
REMARK    3  A    between atoms: C_8  and  S_9
REMARK    4  A    between atoms: S_9  and  N_12
REMARK    5  A    between atoms: N_12  and  C_13
REMARK    6  A    between atoms: C_16  and  O_17
REMARK    7  A    between atoms: O_17  and  C_18
REMARK                            x       y       z     vdW  Elec       q    Type
REMARK                         _______ _______ _______ _____ _____    ______ ____
ROOT
ATOM      1  N   UNL     1       2.378   6.524  21.081  0.00  0.00    +0.000 N 
ATOM      2  H   UNL     1       2.690   6.596  22.046  0.00  0.00    +0.000 HD
ENDROOT
BRANCH   1   3
ATOM      3  C   UNL     1       1.740   7.625  20.461  0.00  0.00    +0.000 A 
ATOM      4  C   UNL     1       2.080   8.025  19.171  0.00  0.00    +0.000 A 
ATOM      5  C   UNL     1       1.439   9.131  18.603  0.00  0.00    +0.000 A 
ATOM      6  C   UNL     1       0.467   9.831  19.322  0.00  0.00    +0.000 A 
ATOM      7  C   UNL     1       0.175   9.456  20.635  0.00  0.00    +0.000 A 
ATOM      8  C   UNL     1       0.785   8.334  21.189  0.00  0.00    +0.000 A 
BRANCH   6   9
ATOM      9  O   UNL     1      -0.111  10.909  18.690  0.00  0.00    +0.000 OA
BRANCH   9  10
ATOM     10  C   UNL     1      -1.408  10.810  18.247  0.00  0.00    +0.000 A 
ATOM     11  C   UNL     1      -1.841   9.953  17.235  0.00  0.00    +0.000 A 
ATOM     12  C   UNL     1      -3.188   9.930  16.885  0.00  0.00    +0.000 A 
ATOM     13  C   UNL     1      -4.050  10.804  17.527  0.00  0.00    +0.000 A 
ATOM     14  N   UNL     1      -3.659  11.680  18.478  0.00  0.00    +0.000 NA
ATOM     15  C   UNL     1      -2.345  11.665  18.812  0.00  0.00    +0.000 A 
ENDBRANCH   9  10
ENDBRANCH   6   9
ENDBRANCH   1   3
BRANCH   1  16
ATOM     16  S   UNL     1       1.957   4.963  20.602  0.00  0.00    +0.000 S 
ATOM     17  O   UNL     1       0.564   4.954  20.211  0.00  0.00    +0.000 OA
ATOM     18  O   UNL     1       2.456   4.074  21.631  0.00  0.00    +0.000 OA
BRANCH  16  22
ATOM     19  C   UNL     1       4.517   4.508  16.838  0.00  0.00    +0.000 A 
ATOM     20  C   UNL     1       4.994   5.202  17.954  0.00  0.00    +0.000 A 
ATOM     21  C   UNL     1       4.229   5.300  19.117  0.00  0.00    +0.000 A 
ATOM     22  C   UNL     1       2.962   4.718  19.159  0.00  0.00    +0.000 A 
ATOM     23  C   UNL     1       2.465   4.021  18.057  0.00  0.00    +0.000 A 
ATOM     24  C   UNL     1       3.245   3.924  16.895  0.00  0.00    +0.000 A 
BRANCH  19  28
ATOM     25  C   UNL     1       7.098   4.400  14.086  0.00  0.00    +0.000 C 
ATOM     26  C   UNL     1       6.631   4.469  15.516  0.00  0.00    +0.000 C 
ATOM     27  O   UNL     1       7.443   4.595  16.425  0.00  0.00    +0.000 OA
ATOM     28  N   UNL     1       5.254   4.384  15.639  0.00  0.00    +0.000 N 
ATOM     29  H   UNL     1       4.729   4.140  14.809  0.00  0.00    +0.000 HD
ENDBRANCH  19  28
ENDBRANCH  16  22
ENDBRANCH   1  16
TORSDOF 6
ENDMDL
MODEL 6
REMARK VINA RESULT:      -7.5      2.040      8.351
REMARK  Name = 
REMARK  7 active torsions:
REMARK  status: ('A' for Active; 'I' for Inactive)
REMARK    1  A    between atoms: C_1  and  C_2
REMARK    2  A    between atoms: N_4  and  C_5
REMARK    3  A    between atoms: C_8  and  S_9
REMARK    4  A    between atoms: S_9  and  N_12
REMARK    5  A    between atoms: N_12  and  C_13
REMARK    6  A    between atoms: C_16  and  O_17
REMARK    7  A    between atoms: O_17  and  C_18
REMARK                            x       y       z     vdW  Elec       q    Type
REMARK                         _______ _______ _______ _____ _____    ______ ____
ROOT
ATOM      1  N   UNL     1       4.271   5.653  19.723  0.00  0.00    +0.000 N 
ATOM      2  H   UNL     1       4.520   6.178  20.558  0.00  0.00    +0.000 HD
ENDROOT
BRANCH   1   3
ATOM      3  C   UNL     1       5.142   5.644  18.607  0.00  0.00    +0.000 A 
ATOM      4  C   UNL     1       5.005   6.570  17.577  0.00  0.00    +0.000 A 
ATOM      5  C   UNL     1       5.874   6.514  16.482  0.00  0.00    +0.000 A 
ATOM      6  C   UNL     1       6.871   5.537  16.420  0.00  0.00    +0.000 A 
ATOM      7  C   UNL     1       6.963   4.578  17.432  0.00  0.00    +0.000 A 
ATOM      8  C   UNL     1       6.122   4.655  18.539  0.00  0.00    +0.000 A 
BRANCH   6   9
ATOM      9  O   UNL     1       7.681   5.551  15.307  0.00  0.00    +0.000 OA
BRANCH   9  10
ATOM     10  C   UNL     1       7.263   4.912  14.165  0.00  0.00    +0.000 A 
ATOM     11  C   UNL     1       7.800   5.117  12.895  0.00  0.00    +0.000 A 
ATOM     12  C   UNL     1       7.302   4.396  11.814  0.00  0.00    +0.000 A 
ATOM     13  C   UNL     1       6.246   3.527  12.033  0.00  0.00    +0.000 A 
ATOM     14  N   UNL     1       5.668   3.338  13.239  0.00  0.00    +0.000 NA
ATOM     15  C   UNL     1       6.188   4.040  14.276  0.00  0.00    +0.000 A 
ENDBRANCH   9  10
ENDBRANCH   6   9
ENDBRANCH   1   3
BRANCH   1  16
ATOM     16  S   UNL     1       2.610   5.514  19.461  0.00  0.00    +0.000 S 
ATOM     17  O   UNL     1       2.001   4.915  20.629  0.00  0.00    +0.000 OA
ATOM     18  O   UNL     1       2.453   4.928  18.146  0.00  0.00    +0.000 OA
BRANCH  16  22
ATOM     19  C   UNL     1       1.110   9.827  19.186  0.00  0.00    +0.000 A 
ATOM     20  C   UNL     1       1.122   9.145  20.407  0.00  0.00    +0.000 A 
ATOM     21  C   UNL     1       1.623   7.846  20.497  0.00  0.00    +0.000 A 
ATOM     22  C   UNL     1       2.096   7.210  19.348  0.00  0.00    +0.000 A 
ATOM     23  C   UNL     1       2.092   7.871  18.119  0.00  0.00    +0.000 A 
ATOM     24  C   UNL     1       1.592   9.179  18.042  0.00  0.00    +0.000 A 
BRANCH  19  28
ATOM     25  C   UNL     1      -0.837  12.980  18.467  0.00  0.00    +0.000 C 
ATOM     26  C   UNL     1      -0.652  11.492  18.599  0.00  0.00    +0.000 C 
ATOM     27  O   UNL     1      -1.567  10.728  18.314  0.00  0.00    +0.000 OA
ATOM     28  N   UNL     1       0.611  11.141  19.048  0.00  0.00    +0.000 N 
ATOM     29  H   UNL     1       1.209  11.889  19.376  0.00  0.00    +0.000 HD
ENDBRANCH  19  28
ENDBRANCH  16  22
ENDBRANCH   1  16
TORSDOF 6
ENDMDL
MODEL 7
REMARK VINA RESULT:      -7.5      2.534      8.255
REMARK  Name = 
REMARK  7 active torsions:
REMARK  status: ('A' for Active; 'I' for Inactive)
REMARK    1  A    between atoms: C_1  and  C_2
REMARK    2  A    between atoms: N_4  and  C_5
REMARK    3  A    between atoms: C_8  and  S_9
REMARK    4  A    between atoms: S_9  and  N_12
REMARK    5  A    between atoms: N_12  and  C_13
REMARK    6  A    between atoms: C_16  and  O_17
REMARK    7  A    between atoms: O_17  and  C_18
REMARK                            x       y       z     vdW  Elec       q    Type
REMARK                         _______ _______ _______ _____ _____    ______ ____
ROOT
ATOM      1  N   UNL     1       4.093   5.656  19.776  0.00  0.00    +0.000 N 
ATOM      2  H   UNL     1       4.365   6.151  20.622  0.00  0.00    +0.000 HD
ENDROOT
BRANCH   1   3
ATOM      3  C   UNL     1       4.961   5.637  18.659  0.00  0.00    +0.000 A 
ATOM      4  C   UNL     1       4.951   6.663  17.718  0.00  0.00    +0.000 A 
ATOM      5  C   UNL     1       5.812   6.595  16.617  0.00  0.00    +0.000 A 
ATOM      6  C   UNL     1       6.674   5.507  16.460  0.00  0.00    +0.000 A 
ATOM      7  C   UNL     1       6.636   4.456  17.379  0.00  0.00    +0.000 A 
ATOM      8  C   UNL     1       5.806   4.540  18.494  0.00  0.00    +0.000 A 
BRANCH   6   9
ATOM      9  O   UNL     1       7.485   5.518  15.347  0.00  0.00    +0.000 OA
BRANCH   9  10
ATOM     10  C   UNL     1       7.075   4.861  14.212  0.00  0.00    +0.000 A 
ATOM     11  C   UNL     1       6.038   3.930  14.161  0.00  0.00    +0.000 A 
ATOM     12  C   UNL     1       5.702   3.342  12.945  0.00  0.00    +0.000 A 
ATOM     13  C   UNL     1       6.451   3.670  11.827  0.00  0.00    +0.000 A 
ATOM     14  N   UNL     1       7.491   4.531  11.847  0.00  0.00    +0.000 NA
ATOM     15  C   UNL     1       7.782   5.103  13.042  0.00  0.00    +0.000 A 
ENDBRANCH   9  10
ENDBRANCH   6   9
ENDBRANCH   1   3
BRANCH   1  16
ATOM     16  S   UNL     1       2.427   5.594  19.515  0.00  0.00    +0.000 S 
ATOM     17  O   UNL     1       1.791   5.034  20.688  0.00  0.00    +0.000 OA
ATOM     18  O   UNL     1       2.243   5.004  18.205  0.00  0.00    +0.000 OA
BRANCH  16  22
ATOM     19  C   UNL     1       1.132   9.970  19.203  0.00  0.00    +0.000 A 
ATOM     20  C   UNL     1       1.124   9.302  20.432  0.00  0.00    +0.000 A 
ATOM     21  C   UNL     1       1.564   7.981  20.532  0.00  0.00    +0.000 A 
ATOM     22  C   UNL     1       1.993   7.310  19.387  0.00  0.00    +0.000 A 
ATOM     23  C   UNL     1       2.008   7.956  18.150  0.00  0.00    +0.000 A 
ATOM     24  C   UNL     1       1.570   9.286  18.062  0.00  0.00    +0.000 A 
BRANCH  19  28
ATOM     25  C   UNL     1       0.727  13.682  18.654  0.00  0.00    +0.000 C 
ATOM     26  C   UNL     1       1.457  12.367  18.595  0.00  0.00    +0.000 C 
ATOM     27  O   UNL     1       2.609  12.317  18.180  0.00  0.00    +0.000 OA
ATOM     28  N   UNL     1       0.695  11.305  19.054  0.00  0.00    +0.000 N 
ATOM     29  H   UNL     1      -0.286  11.482  19.231  0.00  0.00    +0.000 HD
ENDBRANCH  19  28
ENDBRANCH  16  22
ENDBRANCH   1  16
TORSDOF 6
ENDMDL
MODEL 8
REMARK VINA RESULT:      -7.4      3.039      8.022
REMARK  Name = 
REMARK  7 active torsions:
REMARK  status: ('A' for Active; 'I' for Inactive)
REMARK    1  A    between atoms: C_1  and  C_2
REMARK    2  A    between atoms: N_4  and  C_5
REMARK    3  A    between atoms: C_8  and  S_9
REMARK    4  A    between atoms: S_9  and  N_12
REMARK    5  A    between atoms: N_12  and  C_13
REMARK    6  A    between atoms: C_16  and  O_17
REMARK    7  A    between atoms: O_17  and  C_18
REMARK                            x       y       z     vdW  Elec       q    Type
REMARK                         _______ _______ _______ _____ _____    ______ ____
ROOT
ATOM      1  N   UNL     1       0.553  11.007  18.808  0.00  0.00    +0.000 N 
ATOM      2  H   UNL     1       0.792  11.581  18.003  0.00  0.00    +0.000 HD
ENDROOT
BRANCH   1   3
ATOM      3  C   UNL     1       1.164   9.742  18.980  0.00  0.00    +0.000 A 
ATOM      4  C   UNL     1       1.142   9.091  20.210  0.00  0.00    +0.000 A 
ATOM      5  C   UNL     1       1.776   7.851  20.343  0.00  0.00    +0.000 A 
ATOM      6  C   UNL     1       2.427   7.269  19.252  0.00  0.00    +0.000 A 
ATOM      7  C   UNL     1       2.491   7.957  18.038  0.00  0.00    +0.000 A 
ATOM      8  C   UNL     1       1.830   9.174  17.895  0.00  0.00    +0.000 A 
BRANCH   6   9
ATOM      9  O   UNL     1       3.027   6.049  19.470  0.00  0.00    +0.000 OA
BRANCH   9  10
ATOM     10  C   UNL     1       2.287   4.901  19.317  0.00  0.00    +0.000 A 
ATOM     11  C   UNL     1       1.573   4.272  20.337  0.00  0.00    +0.000 A 
ATOM     12  C   UNL     1       0.846   3.120  20.055  0.00  0.00    +0.000 A 
ATOM     13  C   UNL     1       0.898   2.607  18.770  0.00  0.00    +0.000 A 
ATOM     14  N   UNL     1       1.616   3.161  17.769  0.00  0.00    +0.000 NA
ATOM     15  C   UNL     1       2.298   4.294  18.069  0.00  0.00    +0.000 A 
ENDBRANCH   9  10
ENDBRANCH   6   9
ENDBRANCH   1   3
BRANCH   1  16
ATOM     16  S   UNL     1      -1.016  11.239  19.384  0.00  0.00    +0.000 S 
ATOM     17  O   UNL     1      -1.188  12.636  19.720  0.00  0.00    +0.000 OA
ATOM     18  O   UNL     1      -1.249  10.196  20.361  0.00  0.00    +0.000 OA
BRANCH  16  22
ATOM     19  C   UNL     1      -3.444  10.344  15.612  0.00  0.00    +0.000 A 
ATOM     20  C   UNL     1      -2.305   9.597  15.930  0.00  0.00    +0.000 A 
ATOM     21  C   UNL     1      -1.593   9.842  17.104  0.00  0.00    +0.000 A 
ATOM     22  C   UNL     1      -2.008  10.862  17.961  0.00  0.00    +0.000 A 
ATOM     23  C   UNL     1      -3.141  11.621  17.664  0.00  0.00    +0.000 A 
ATOM     24  C   UNL     1      -3.853  11.361  16.483  0.00  0.00    +0.000 A 
BRANCH  19  28
ATOM     25  C   UNL     1      -4.741   9.776  12.113  0.00  0.00    +0.000 C 
ATOM     26  C   UNL     1      -3.682   9.838  13.181  0.00  0.00    +0.000 C 
ATOM     27  O   UNL     1      -2.506   9.643  12.898  0.00  0.00    +0.000 OA
ATOM     28  N   UNL     1      -4.195  10.132  14.434  0.00  0.00    +0.000 N 
ATOM     29  H   UNL     1      -5.202  10.126  14.535  0.00  0.00    +0.000 HD
ENDBRANCH  19  28
ENDBRANCH  16  22
ENDBRANCH   1  16
TORSDOF 6
ENDMDL
MODEL 9
REMARK VINA RESULT:      -7.4      1.284      1.507
REMARK  Name = 
REMARK  7 active torsions:
REMARK  status: ('A' for Active; 'I' for Inactive)
REMARK    1  A    between atoms: C_1  and  C_2
REMARK    2  A    between atoms: N_4  and  C_5
REMARK    3  A    between atoms: C_8  and  S_9
REMARK    4  A    between atoms: S_9  and  N_12
REMARK    5  A    between atoms: N_12  and  C_13
REMARK    6  A    between atoms: C_16  and  O_17
REMARK    7  A    between atoms: O_17  and  C_18
REMARK                            x       y       z     vdW  Elec       q    Type
REMARK                         _______ _______ _______ _____ _____    ______ ____
ROOT
ATOM      1  N   UNL     1       3.019   6.253  20.095  0.00  0.00    +0.000 N 
ATOM      2  H   UNL     1       3.222   6.091  21.079  0.00  0.00    +0.000 HD
ENDROOT
BRANCH   1   3
ATOM      3  C   UNL     1       2.324   7.422  19.701  0.00  0.00    +0.000 A 
ATOM      4  C   UNL     1       1.483   8.094  20.584  0.00  0.00    +0.000 A 
ATOM      5  C   UNL     1       0.799   9.234  20.149  0.00  0.00    +0.000 A 
ATOM      6  C   UNL     1       0.955   9.695  18.839  0.00  0.00    +0.000 A 
ATOM      7  C   UNL     1       1.757   8.980  17.946  0.00  0.00    +0.000 A 
ATOM      8  C   UNL     1       2.466   7.867  18.388  0.00  0.00    +0.000 A 
BRANCH   6   9
ATOM      9  O   UNL     1       0.243  10.821  18.492  0.00  0.00    +0.000 OA
BRANCH   9  10
ATOM     10  C   UNL     1      -1.096  10.707  18.209  0.00  0.00    +0.000 A 
ATOM     11  C   UNL     1      -1.641   9.823  17.277  0.00  0.00    +0.000 A 
ATOM     12  C   UNL     1      -3.020   9.788  17.090  0.00  0.00    +0.000 A 
ATOM     13  C   UNL     1      -3.805  10.675  17.808  0.00  0.00    +0.000 A 
ATOM     14  N   UNL     1      -3.309  11.576  18.683  0.00  0.00    +0.000 NA
ATOM     15  C   UNL     1      -1.964  11.574  18.859  0.00  0.00    +0.000 A 
ENDBRANCH   9  10
ENDBRANCH   6   9
ENDBRANCH   1   3
BRANCH   1  16
ATOM     16  S   UNL     1       2.830   4.846  19.184  0.00  0.00    +0.000 S 
ATOM     17  O   UNL     1       1.549   4.893  18.512  0.00  0.00    +0.000 OA
ATOM     18  O   UNL     1       3.182   3.746  20.058  0.00  0.00    +0.000 OA
BRANCH  16  22
ATOM     19  C   UNL     1       6.087   5.389  16.018  0.00  0.00    +0.000 A 
ATOM     20  C   UNL     1       6.110   6.121  17.209  0.00  0.00    +0.000 A 
ATOM     21  C   UNL     1       5.142   5.921  18.193  0.00  0.00    +0.000 A 
ATOM     22  C   UNL     1       4.121   4.994  17.975  0.00  0.00    +0.000 A 
ATOM     23  C   UNL     1       4.077   4.253  16.794  0.00  0.00    +0.000 A 
ATOM     24  C   UNL     1       5.060   4.458  15.814  0.00  0.00    +0.000 A 
BRANCH  19  28
ATOM     25  C   UNL     1       8.296   5.210  12.962  0.00  0.00    +0.000 C 
ATOM     26  C   UNL     1       7.088   4.869  13.793  0.00  0.00    +0.000 C 
ATOM     27  O   UNL     1       6.272   4.049  13.389  0.00  0.00    +0.000 OA
ATOM     28  N   UNL     1       7.044   5.560  14.993  0.00  0.00    +0.000 N 
ATOM     29  H   UNL     1       7.715   6.307  15.122  0.00  0.00    +0.000 HD
ENDBRANCH  19  28
ENDBRANCH  16  22
ENDBRANCH   1  16
TORSDOF 6
ENDMDL
