MODEL 1
REMARK VINA RESULT:      -7.7      0.000      0.000
REMARK  Name = 
REMARK  7 active torsions:
REMARK  status: ('A' for Active; 'I' for Inactive)
REMARK    1  A    between atoms: C_1  and  C_2
REMARK    2  A    between atoms: C_2  and  C_3
REMARK    3  A    between atoms: C_6  and  N_7
REMARK    4  A    between atoms: N_7  and  N_8
REMARK    5  A    between atoms: C_9  and  S_10
REMARK    6  A    between atoms: C_12  and  C_13
REMARK    7  A    between atoms: C_14  and  C_15
REMARK                            x       y       z     vdW  Elec       q    Type
REMARK                         _______ _______ _______ _____ _____    ______ ____
ROOT
ATOM      1  N   UNL     1       3.369   5.066  18.556  0.00  0.00    +0.000 N 
ATOM      2  C   UNL     1       2.647   3.976  18.075  0.00  0.00    +0.000 A 
ATOM      3  N   UNL     1       3.205   3.430  17.031  0.00  0.00    +0.000 NA
ATOM      4  C   UNL     1       4.410   4.060  16.885  0.00  0.00    +0.000 A 
ATOM      5  C   UNL     1       5.347   3.548  15.855  0.00  0.00    +0.000 C 
ATOM      6  C   UNL     1       4.581   5.061  17.845  0.00  0.00    +0.000 A 
ENDROOT
BRANCH   6   7
ATOM      7  C   UNL     1       5.786   5.871  18.112  0.00  0.00    +0.000 A 
ATOM      8  C   UNL     1       6.060   7.002  17.321  0.00  0.00    +0.000 A 
ATOM      9  C   UNL     1       7.265   7.701  17.433  0.00  0.00    +0.000 A 
ATOM     10  C   UNL     1       8.207   7.309  18.375  0.00  0.00    +0.000 A 
ATOM     11  C   UNL     1       7.944   6.217  19.199  0.00  0.00    +0.000 A 
ATOM     12  C   UNL     1       6.752   5.492  19.056  0.00  0.00    +0.000 A 
ENDBRANCH   6   7
BRANCH   1  13
ATOM     13  N   UNL     1       3.056   5.935  19.631  0.00  0.00    +0.000 N 
ATOM     14  H   UNL     1       3.899   6.095  20.182  0.00  0.00    +0.000 HD
BRANCH  13  18
ATOM     15  C   UNL     1       0.862   9.530  19.221  0.00  0.00    +0.000 A 
ATOM     16  C   UNL     1       1.006   8.906  20.465  0.00  0.00    +0.000 A 
ATOM     17  C   UNL     1       1.787   7.755  20.591  0.00  0.00    +0.000 A 
ATOM     18  C   UNL     1       2.419   7.193  19.473  0.00  0.00    +0.000 A 
ATOM     19  C   UNL     1       2.383   7.892  18.265  0.00  0.00    +0.000 A 
ATOM     20  C   UNL     1       1.587   9.035  18.132  0.00  0.00    +0.000 A 
BRANCH  15  22
ATOM     21  C   UNL     1      -1.153  10.445  18.037  0.00  0.00    +0.000 C 
ATOM     22  C   UNL     1      -0.058  10.712  19.055  0.00  0.00    +0.000 C 
ENDBRANCH  15  22
ENDBRANCH  13  18
ENDBRANCH   1  13
BRANCH   2  23
ATOM     23  S   UNL     1       1.189   3.319  18.758  0.00  0.00    +0.000 S 
ATOM     24  H   UNL     1       0.330   3.589  17.770  0.00  0.00    +0.000 HD
ENDBRANCH   2  23
TORSDOF 5
ENDMDL
MODEL 2
REMARK VINA RESULT:      -7.6      0.328      1.077
REMARK  Name = 
REMARK  7 active torsions:
REMARK  status: ('A' for Active; 'I' for Inactive)
REMARK    1  A    between atoms: C_1  and  C_2
REMARK    2  A    between atoms: C_2  and  C_3
REMARK    3  A    between atoms: C_6  and  N_7
REMARK    4  A    between atoms: N_7  and  N_8
REMARK    5  A    between atoms: C_9  and  S_10
REMARK    6  A    between atoms: C_12  and  C_13
REMARK    7  A    between atoms: C_14  and  C_15
REMARK                            x       y       z     vdW  Elec       q    Type
REMARK                         _______ _______ _______ _____ _____    ______ ____
ROOT
ATOM      1  N   UNL     1       3.480   5.073  18.532  0.00  0.00    +0.000 N 
ATOM      2  C   UNL     1       2.776   3.972  18.050  0.00  0.00    +0.000 A 
ATOM      3  N   UNL     1       3.347   3.432  17.008  0.00  0.00    +0.000 NA
ATOM      4  C   UNL     1       4.543   4.081  16.867  0.00  0.00    +0.000 A 
ATOM      5  C   UNL     1       5.492   3.582  15.842  0.00  0.00    +0.000 C 
ATOM      6  C   UNL     1       4.694   5.087  17.825  0.00  0.00    +0.000 A 
ENDROOT
BRANCH   6   7
ATOM      7  C   UNL     1       5.885   5.916  18.096  0.00  0.00    +0.000 A 
ATOM      8  C   UNL     1       6.131   7.064  17.320  0.00  0.00    +0.000 A 
ATOM      9  C   UNL     1       7.323   7.784  17.434  0.00  0.00    +0.000 A 
ATOM     10  C   UNL     1       8.280   7.397  18.364  0.00  0.00    +0.000 A 
ATOM     11  C   UNL     1       8.044   6.288  19.174  0.00  0.00    +0.000 A 
ATOM     12  C   UNL     1       6.865   5.542  19.028  0.00  0.00    +0.000 A 
ENDBRANCH   6   7
BRANCH   1  13
ATOM     13  N   UNL     1       3.149   5.939  19.604  0.00  0.00    +0.000 N 
ATOM     14  H   UNL     1       4.004   6.204  20.091  0.00  0.00    +0.000 HD
BRANCH  13  18
ATOM     15  C   UNL     1       1.118   9.618  19.112  0.00  0.00    +0.000 A 
ATOM     16  C   UNL     1       1.705   8.964  18.024  0.00  0.00    +0.000 A 
ATOM     17  C   UNL     1       2.316   7.719  18.196  0.00  0.00    +0.000 A 
ATOM     18  C   UNL     1       2.371   7.117  19.460  0.00  0.00    +0.000 A 
ATOM     19  C   UNL     1       1.668   7.709  20.512  0.00  0.00    +0.000 A 
ATOM     20  C   UNL     1       1.072   8.964  20.347  0.00  0.00    +0.000 A 
BRANCH  15  22
ATOM     21  C   UNL     1      -0.966  11.018  19.096  0.00  0.00    +0.000 C 
ATOM     22  C   UNL     1       0.547  11.004  18.957  0.00  0.00    +0.000 C 
ENDBRANCH  15  22
ENDBRANCH  13  18
ENDBRANCH   1  13
BRANCH   2  23
ATOM     23  S   UNL     1       1.326   3.292  18.727  0.00  0.00    +0.000 S 
ATOM     24  H   UNL     1       1.799   2.868  19.903  0.00  0.00    +0.000 HD
ENDBRANCH   2  23
TORSDOF 5
ENDMDL
MODEL 3
REMARK VINA RESULT:      -7.6      0.341      1.489
REMARK  Name = 
REMARK  7 active torsions:
REMARK  status: ('A' for Active; 'I' for Inactive)
REMARK    1  A    between atoms: C_1  and  C_2
REMARK    2  A    between atoms: C_2  and  C_3
REMARK    3  A    between atoms: C_6  and  N_7
REMARK    4  A    between atoms: N_7  and  N_8
REMARK    5  A    between atoms: C_9  and  S_10
REMARK    6  A    between atoms: C_12  and  C_13
REMARK    7  A    between atoms: C_14  and  C_15
REMARK                            x       y       z     vdW  Elec       q    Type
REMARK                         _______ _______ _______ _____ _____    ______ ____
ROOT
ATOM      1  N   UNL     1       3.637   5.133  18.275  0.00  0.00    +0.000 N 
ATOM      2  C   UNL     1       2.881   4.063  17.800  0.00  0.00    +0.000 A 
ATOM      3  N   UNL     1       3.407   3.512  16.741  0.00  0.00    +0.000 NA
ATOM      4  C   UNL     1       4.622   4.117  16.576  0.00  0.00    +0.000 A 
ATOM      5  C   UNL     1       5.527   3.592  15.524  0.00  0.00    +0.000 C 
ATOM      6  C   UNL     1       4.834   5.107  17.539  0.00  0.00    +0.000 A 
ENDROOT
BRANCH   6   7
ATOM      7  C   UNL     1       6.062   5.888  17.788  0.00  0.00    +0.000 A 
ATOM      8  C   UNL     1       6.971   5.469  18.777  0.00  0.00    +0.000 A 
ATOM      9  C   UNL     1       8.059   6.260  19.156  0.00  0.00    +0.000 A 
ATOM     10  C   UNL     1       8.288   7.472  18.518  0.00  0.00    +0.000 A 
ATOM     11  C   UNL     1       7.427   7.893  17.507  0.00  0.00    +0.000 A 
ATOM     12  C   UNL     1       6.312   7.116  17.158  0.00  0.00    +0.000 A 
ENDBRANCH   6   7
BRANCH   1  13
ATOM     13  N   UNL     1       3.364   6.000  19.362  0.00  0.00    +0.000 N 
ATOM     14  H   UNL     1       4.247   6.329  19.751  0.00  0.00    +0.000 HD
BRANCH  13  18
ATOM     15  C   UNL     1       1.067   9.540  19.053  0.00  0.00    +0.000 A 
ATOM     16  C   UNL     1       1.651   8.955  17.924  0.00  0.00    +0.000 A 
ATOM     17  C   UNL     1       2.353   7.752  18.038  0.00  0.00    +0.000 A 
ATOM     18  C   UNL     1       2.503   7.125  19.282  0.00  0.00    +0.000 A 
ATOM     19  C   UNL     1       1.805   7.640  20.377  0.00  0.00    +0.000 A 
ATOM     20  C   UNL     1       1.118   8.854  20.271  0.00  0.00    +0.000 A 
BRANCH  15  22
ATOM     21  C   UNL     1      -0.973  10.799  18.306  0.00  0.00    +0.000 C 
ATOM     22  C   UNL     1       0.396  10.886  18.959  0.00  0.00    +0.000 C 
ENDBRANCH  15  22
ENDBRANCH  13  18
ENDBRANCH   1  13
BRANCH   2  23
ATOM     23  S   UNL     1       1.423   3.433  18.507  0.00  0.00    +0.000 S 
ATOM     24  H   UNL     1       1.889   3.059  19.702  0.00  0.00    +0.000 HD
ENDBRANCH   2  23
TORSDOF 5
ENDMDL
MODEL 4
REMARK VINA RESULT:      -7.5      0.757      1.271
REMARK  Name = 
REMARK  7 active torsions:
REMARK  status: ('A' for Active; 'I' for Inactive)
REMARK    1  A    between atoms: C_1  and  C_2
REMARK    2  A    between atoms: C_2  and  C_3
REMARK    3  A    between atoms: C_6  and  N_7
REMARK    4  A    between atoms: N_7  and  N_8
REMARK    5  A    between atoms: C_9  and  S_10
REMARK    6  A    between atoms: C_12  and  C_13
REMARK    7  A    between atoms: C_14  and  C_15
REMARK                            x       y       z     vdW  Elec       q    Type
REMARK                         _______ _______ _______ _____ _____    ______ ____
ROOT
ATOM      1  N   UNL     1       3.089   5.190  19.166  0.00  0.00    +0.000 N 
ATOM      2  C   UNL     1       2.234   4.091  19.123  0.00  0.00    +0.000 A 
ATOM      3  N   UNL     1       2.574   3.230  18.204  0.00  0.00    +0.000 NA
ATOM      4  C   UNL     1       3.771   3.672  17.711  0.00  0.00    +0.000 A 
ATOM      5  C   UNL     1       4.488   2.809  16.740  0.00  0.00    +0.000 C 
ATOM      6  C   UNL     1       4.160   4.871  18.313  0.00  0.00    +0.000 A 
ENDROOT
BRANCH   6   7
ATOM      7  C   UNL     1       5.437   5.595  18.160  0.00  0.00    +0.000 A 
ATOM      8  C   UNL     1       6.521   5.290  19.003  0.00  0.00    +0.000 A 
ATOM      9  C   UNL     1       7.690   6.056  19.002  0.00  0.00    +0.000 A 
ATOM     10  C   UNL     1       7.818   7.121  18.120  0.00  0.00    +0.000 A 
ATOM     11  C   UNL     1       6.775   7.421  17.246  0.00  0.00    +0.000 A 
ATOM     12  C   UNL     1       5.587   6.676  17.278  0.00  0.00    +0.000 A 
ENDBRANCH   6   7
BRANCH   1  13
ATOM     13  N   UNL     1       3.014   6.343  19.986  0.00  0.00    +0.000 N 
ATOM     14  H   UNL     1       3.958   6.622  20.251  0.00  0.00    +0.000 HD
BRANCH  13  18
ATOM     15  C   UNL     1       0.648   9.703  18.976  0.00  0.00    +0.000 A 
ATOM     16  C   UNL     1       0.723   9.239  20.294  0.00  0.00    +0.000 A 
ATOM     17  C   UNL     1       1.559   8.168  20.618  0.00  0.00    +0.000 A 
ATOM     18  C   UNL     1       2.317   7.526  19.629  0.00  0.00    +0.000 A 
ATOM     19  C   UNL     1       2.341   8.077  18.345  0.00  0.00    +0.000 A 
ATOM     20  C   UNL     1       1.492   9.138  18.014  0.00  0.00    +0.000 A 
BRANCH  15  22
ATOM     21  C   UNL     1      -1.548  10.240  17.885  0.00  0.00    +0.000 C 
ATOM     22  C   UNL     1      -0.325  10.790  18.598  0.00  0.00    +0.000 C 
ENDBRANCH  15  22
ENDBRANCH  13  18
ENDBRANCH   1  13
BRANCH   2  23
ATOM     23  S   UNL     1       0.878   3.794  20.171  0.00  0.00    +0.000 S 
ATOM     24  H   UNL     1      -0.013   4.635  19.638  0.00  0.00    +0.000 HD
ENDBRANCH   2  23
TORSDOF 5
ENDMDL
MODEL 5
REMARK VINA RESULT:      -7.4      0.413      1.190
REMARK  Name = 
REMARK  7 active torsions:
REMARK  status: ('A' for Active; 'I' for Inactive)
REMARK    1  A    between atoms: C_1  and  C_2
REMARK    2  A    between atoms: C_2  and  C_3
REMARK    3  A    between atoms: C_6  and  N_7
REMARK    4  A    between atoms: N_7  and  N_8
REMARK    5  A    between atoms: C_9  and  S_10
REMARK    6  A    between atoms: C_12  and  C_13
REMARK    7  A    between atoms: C_14  and  C_15
REMARK                            x       y       z     vdW  Elec       q    Type
REMARK                         _______ _______ _______ _____ _____    ______ ____
ROOT
ATOM      1  N   UNL     1       3.558   5.120  18.321  0.00  0.00    +0.000 N 
ATOM      2  C   UNL     1       2.799   4.035  17.887  0.00  0.00    +0.000 A 
ATOM      3  N   UNL     1       3.323   3.444  16.848  0.00  0.00    +0.000 NA
ATOM      4  C   UNL     1       4.540   4.040  16.660  0.00  0.00    +0.000 A 
ATOM      5  C   UNL     1       5.443   3.474  15.628  0.00  0.00    +0.000 C 
ATOM      6  C   UNL     1       4.754   5.065  17.586  0.00  0.00    +0.000 A 
ENDROOT
BRANCH   6   7
ATOM      7  C   UNL     1       5.984   5.852  17.805  0.00  0.00    +0.000 A 
ATOM      8  C   UNL     1       6.915   5.442  18.777  0.00  0.00    +0.000 A 
ATOM      9  C   UNL     1       8.007   6.239  19.128  0.00  0.00    +0.000 A 
ATOM     10  C   UNL     1       8.219   7.448  18.478  0.00  0.00    +0.000 A 
ATOM     11  C   UNL     1       7.335   7.859  17.483  0.00  0.00    +0.000 A 
ATOM     12  C   UNL     1       6.216   7.076  17.161  0.00  0.00    +0.000 A 
ENDBRANCH   6   7
BRANCH   1  13
ATOM     13  N   UNL     1       3.288   6.028  19.375  0.00  0.00    +0.000 N 
ATOM     14  H   UNL     1       4.157   6.229  19.868  0.00  0.00    +0.000 HD
BRANCH  13  18
ATOM     15  C   UNL     1       0.985   9.545  18.895  0.00  0.00    +0.000 A 
ATOM     16  C   UNL     1       1.062   8.893  20.130  0.00  0.00    +0.000 A 
ATOM     17  C   UNL     1       1.878   7.769  20.284  0.00  0.00    +0.000 A 
ATOM     18  C   UNL     1       2.613   7.264  19.203  0.00  0.00    +0.000 A 
ATOM     19  C   UNL     1       2.637   7.997  18.013  0.00  0.00    +0.000 A 
ATOM     20  C   UNL     1       1.808   9.111  17.851  0.00  0.00    +0.000 A 
BRANCH  15  22
ATOM     21  C   UNL     1       0.058  11.671  19.856  0.00  0.00    +0.000 C 
ATOM     22  C   UNL     1       0.032  10.695  18.692  0.00  0.00    +0.000 C 
ENDBRANCH  15  22
ENDBRANCH  13  18
ENDBRANCH   1  13
BRANCH   2  23
ATOM     23  S   UNL     1       1.340   3.434  18.617  0.00  0.00    +0.000 S 
ATOM     24  H   UNL     1       1.827   3.010  19.787  0.00  0.00    +0.000 HD
ENDBRANCH   2  23
TORSDOF 5
ENDMDL
MODEL 6
REMARK VINA RESULT:      -7.4      0.781      1.642
REMARK  Name = 
REMARK  7 active torsions:
REMARK  status: ('A' for Active; 'I' for Inactive)
REMARK    1  A    between atoms: C_1  and  C_2
REMARK    2  A    between atoms: C_2  and  C_3
REMARK    3  A    between atoms: C_6  and  N_7
REMARK    4  A    between atoms: N_7  and  N_8
REMARK    5  A    between atoms: C_9  and  S_10
REMARK    6  A    between atoms: C_12  and  C_13
REMARK    7  A    between atoms: C_14  and  C_15
REMARK                            x       y       z     vdW  Elec       q    Type
REMARK                         _______ _______ _______ _____ _____    ______ ____
ROOT
ATOM      1  N   UNL     1       3.150   5.200  19.239  0.00  0.00    +0.000 N 
ATOM      2  C   UNL     1       2.297   4.099  19.214  0.00  0.00    +0.000 A 
ATOM      3  N   UNL     1       2.631   3.230  18.300  0.00  0.00    +0.000 NA
ATOM      4  C   UNL     1       3.823   3.670  17.792  0.00  0.00    +0.000 A 
ATOM      5  C   UNL     1       4.534   2.800  16.823  0.00  0.00    +0.000 C 
ATOM      6  C   UNL     1       4.214   4.876  18.380  0.00  0.00    +0.000 A 
ENDROOT
BRANCH   6   7
ATOM      7  C   UNL     1       5.488   5.602  18.210  0.00  0.00    +0.000 A 
ATOM      8  C   UNL     1       6.577   5.314  19.054  0.00  0.00    +0.000 A 
ATOM      9  C   UNL     1       7.742   6.084  19.035  0.00  0.00    +0.000 A 
ATOM     10  C   UNL     1       7.864   7.135  18.135  0.00  0.00    +0.000 A 
ATOM     11  C   UNL     1       6.816   7.416  17.260  0.00  0.00    +0.000 A 
ATOM     12  C   UNL     1       5.631   6.668  17.310  0.00  0.00    +0.000 A 
ENDBRANCH   6   7
BRANCH   1  13
ATOM     13  N   UNL     1       3.079   6.360  20.050  0.00  0.00    +0.000 N 
ATOM     14  H   UNL     1       4.018   6.735  20.172  0.00  0.00    +0.000 HD
BRANCH  13  18
ATOM     15  C   UNL     1       0.807   9.827  19.197  0.00  0.00    +0.000 A 
ATOM     16  C   UNL     1       1.498   9.147  18.188  0.00  0.00    +0.000 A 
ATOM     17  C   UNL     1       2.190   7.969  18.478  0.00  0.00    +0.000 A 
ATOM     18  C   UNL     1       2.224   7.461  19.785  0.00  0.00    +0.000 A 
ATOM     19  C   UNL     1       1.424   8.068  20.757  0.00  0.00    +0.000 A 
ATOM     20  C   UNL     1       0.745   9.258  20.473  0.00  0.00    +0.000 A 
BRANCH  15  22
ATOM     21  C   UNL     1      -1.201  10.980  18.228  0.00  0.00    +0.000 C 
ATOM     22  C   UNL     1       0.143  11.150  18.915  0.00  0.00    +0.000 C 
ENDBRANCH  15  22
ENDBRANCH  13  18
ENDBRANCH   1  13
BRANCH   2  23
ATOM     23  S   UNL     1       0.951   3.808  20.276  0.00  0.00    +0.000 S 
ATOM     24  H   UNL     1       1.234   2.562  20.669  0.00  0.00    +0.000 HD
ENDBRANCH   2  23
TORSDOF 5
ENDMDL
MODEL 7
REMARK VINA RESULT:      -7.2      1.669      2.292
REMARK  Name = 
REMARK  7 active torsions:
REMARK  status: ('A' for Active; 'I' for Inactive)
REMARK    1  A    between atoms: C_1  and  C_2
REMARK    2  A    between atoms: C_2  and  C_3
REMARK    3  A    between atoms: C_6  and  N_7
REMARK    4  A    between atoms: N_7  and  N_8
REMARK    5  A    between atoms: C_9  and  S_10
REMARK    6  A    between atoms: C_12  and  C_13
REMARK    7  A    between atoms: C_14  and  C_15
REMARK                            x       y       z     vdW  Elec       q    Type
REMARK                         _______ _______ _______ _____ _____    ______ ____
ROOT
ATOM      1  N   UNL     1       3.354   4.418  19.570  0.00  0.00    +0.000 N 
ATOM      2  C   UNL     1       2.637   3.413  20.214  0.00  0.00    +0.000 A 
ATOM      3  N   UNL     1       2.615   2.301  19.532  0.00  0.00    +0.000 NA
ATOM      4  C   UNL     1       3.459   2.501  18.475  0.00  0.00    +0.000 A 
ATOM      5  C   UNL     1       3.757   1.347  17.590  0.00  0.00    +0.000 C 
ATOM      6  C   UNL     1       3.984   3.796  18.479  0.00  0.00    +0.000 A 
ENDROOT
BRANCH   6   7
ATOM      7  C   UNL     1       5.026   4.360  17.598  0.00  0.00    +0.000 A 
ATOM      8  C   UNL     1       4.713   4.694  16.267  0.00  0.00    +0.000 A 
ATOM      9  C   UNL     1       5.700   5.077  15.356  0.00  0.00    +0.000 A 
ATOM     10  C   UNL     1       7.022   5.180  15.770  0.00  0.00    +0.000 A 
ATOM     11  C   UNL     1       7.354   4.894  17.093  0.00  0.00    +0.000 A 
ATOM     12  C   UNL     1       6.367   4.469  17.995  0.00  0.00    +0.000 A 
ENDBRANCH   6   7
BRANCH   1  13
ATOM     13  N   UNL     1       3.554   5.763  19.970  0.00  0.00    +0.000 N 
ATOM     14  H   UNL     1       4.504   6.042  19.727  0.00  0.00    +0.000 HD
BRANCH  13  18
ATOM     15  C   UNL     1       1.286   9.143  18.814  0.00  0.00    +0.000 A 
ATOM     16  C   UNL     1       2.033   8.418  17.880  0.00  0.00    +0.000 A 
ATOM     17  C   UNL     1       2.725   7.268  18.270  0.00  0.00    +0.000 A 
ATOM     18  C   UNL     1       2.700   6.835  19.602  0.00  0.00    +0.000 A 
ATOM     19  C   UNL     1       1.846   7.483  20.499  0.00  0.00    +0.000 A 
ATOM     20  C   UNL     1       1.168   8.644  20.116  0.00  0.00    +0.000 A 
BRANCH  15  22
ATOM     21  C   UNL     1      -0.894  10.350  18.510  0.00  0.00    +0.000 C 
ATOM     22  C   UNL     1       0.620  10.439  18.427  0.00  0.00    +0.000 C 
ENDBRANCH  15  22
ENDBRANCH  13  18
ENDBRANCH   1  13
BRANCH   2  23
ATOM     23  S   UNL     1       1.873   3.522  21.772  0.00  0.00    +0.000 S 
ATOM     24  H   UNL     1       0.693   2.962  21.490  0.00  0.00    +0.000 HD
ENDBRANCH   2  23
TORSDOF 5
ENDMDL
MODEL 8
REMARK VINA RESULT:      -7.1      1.538      2.302
REMARK  Name = 
REMARK  7 active torsions:
REMARK  status: ('A' for Active; 'I' for Inactive)
REMARK    1  A    between atoms: C_1  and  C_2
REMARK    2  A    between atoms: C_2  and  C_3
REMARK    3  A    between atoms: C_6  and  N_7
REMARK    4  A    between atoms: N_7  and  N_8
REMARK    5  A    between atoms: C_9  and  S_10
REMARK    6  A    between atoms: C_12  and  C_13
REMARK    7  A    between atoms: C_14  and  C_15
REMARK                            x       y       z     vdW  Elec       q    Type
REMARK                         _______ _______ _______ _____ _____    ______ ____
ROOT
ATOM      1  N   UNL     1       3.237   4.339  19.634  0.00  0.00    +0.000 N 
ATOM      2  C   UNL     1       2.496   3.286  20.166  0.00  0.00    +0.000 A 
ATOM      3  N   UNL     1       2.532   2.220  19.415  0.00  0.00    +0.000 NA
ATOM      4  C   UNL     1       3.438   2.497  18.428  0.00  0.00    +0.000 A 
ATOM      5  C   UNL     1       3.807   1.406  17.493  0.00  0.00    +0.000 C 
ATOM      6  C   UNL     1       3.943   3.794  18.548  0.00  0.00    +0.000 A 
ENDROOT
BRANCH   6   7
ATOM      7  C   UNL     1       5.029   4.424  17.772  0.00  0.00    +0.000 A 
ATOM      8  C   UNL     1       6.258   4.712  18.393  0.00  0.00    +0.000 A 
ATOM      9  C   UNL     1       7.252   5.450  17.745  0.00  0.00    +0.000 A 
ATOM     10  C   UNL     1       7.056   5.878  16.438  0.00  0.00    +0.000 A 
ATOM     11  C   UNL     1       5.865   5.571  15.785  0.00  0.00    +0.000 A 
ATOM     12  C   UNL     1       4.852   4.866  16.452  0.00  0.00    +0.000 A 
ENDBRANCH   6   7
BRANCH   1  13
ATOM     13  N   UNL     1       3.393   5.657  20.131  0.00  0.00    +0.000 N 
ATOM     14  H   UNL     1       4.369   5.932  20.037  0.00  0.00    +0.000 HD
BRANCH  13  18
ATOM     15  C   UNL     1       1.341   9.117  18.819  0.00  0.00    +0.000 A 
ATOM     16  C   UNL     1       2.085   8.335  17.929  0.00  0.00    +0.000 A 
ATOM     17  C   UNL     1       2.703   7.162  18.369  0.00  0.00    +0.000 A 
ATOM     18  C   UNL     1       2.608   6.761  19.708  0.00  0.00    +0.000 A 
ATOM     19  C   UNL     1       1.756   7.471  20.558  0.00  0.00    +0.000 A 
ATOM     20  C   UNL     1       1.151   8.656  20.125  0.00  0.00    +0.000 A 
BRANCH  15  22
ATOM     21  C   UNL     1      -0.753  10.474  18.544  0.00  0.00    +0.000 C 
ATOM     22  C   UNL     1       0.757  10.435  18.379  0.00  0.00    +0.000 C 
ENDBRANCH  15  22
ENDBRANCH  13  18
ENDBRANCH   1  13
BRANCH   2  23
ATOM     23  S   UNL     1       1.635   3.287  21.677  0.00  0.00    +0.000 S 
ATOM     24  H   UNL     1       2.088   4.431  22.199  0.00  0.00    +0.000 HD
ENDBRANCH   2  23
TORSDOF 5
ENDMDL
MODEL 9
REMARK VINA RESULT:      -6.9      1.624      1.972
REMARK  Name = 
REMARK  7 active torsions:
REMARK  status: ('A' for Active; 'I' for Inactive)
REMARK    1  A    between atoms: C_1  and  C_2
REMARK    2  A    between atoms: C_2  and  C_3
REMARK    3  A    between atoms: C_6  and  N_7
REMARK    4  A    between atoms: N_7  and  N_8
REMARK    5  A    between atoms: C_9  and  S_10
REMARK    6  A    between atoms: C_12  and  C_13
REMARK    7  A    between atoms: C_14  and  C_15
REMARK                            x       y       z     vdW  Elec       q    Type
REMARK                         _______ _______ _______ _____ _____    ______ ____
ROOT
ATOM      1  N   UNL     1       3.246   4.443  19.572  0.00  0.00    +0.000 N 
ATOM      2  C   UNL     1       2.486   3.416  20.129  0.00  0.00    +0.000 A 
ATOM      3  N   UNL     1       2.469   2.347  19.382  0.00  0.00    +0.000 NA
ATOM      4  C   UNL     1       3.356   2.591  18.370  0.00  0.00    +0.000 A 
ATOM      5  C   UNL     1       3.665   1.485  17.430  0.00  0.00    +0.000 C 
ATOM      6  C   UNL     1       3.905   3.872  18.470  0.00  0.00    +0.000 A 
ENDROOT
BRANCH   6   7
ATOM      7  C   UNL     1       4.990   4.464  17.663  0.00  0.00    +0.000 A 
ATOM      8  C   UNL     1       4.736   4.876  16.342  0.00  0.00    +0.000 A 
ATOM      9  C   UNL     1       5.765   5.291  15.492  0.00  0.00    +0.000 A 
ATOM     10  C   UNL     1       7.070   5.347  15.963  0.00  0.00    +0.000 A 
ATOM     11  C   UNL     1       7.344   4.984  17.280  0.00  0.00    +0.000 A 
ATOM     12  C   UNL     1       6.315   4.528  18.117  0.00  0.00    +0.000 A 
ENDBRANCH   6   7
BRANCH   1  13
ATOM     13  N   UNL     1       3.456   5.757  20.059  0.00  0.00    +0.000 N 
ATOM     14  H   UNL     1       4.452   5.970  20.013  0.00  0.00    +0.000 HD
BRANCH  13  18
ATOM     15  C   UNL     1       1.107   8.994  18.678  0.00  0.00    +0.000 A 
ATOM     16  C   UNL     1       1.101   8.617  20.025  0.00  0.00    +0.000 A 
ATOM     17  C   UNL     1       1.931   7.587  20.473  0.00  0.00    +0.000 A 
ATOM     18  C   UNL     1       2.765   6.899  19.580  0.00  0.00    +0.000 A 
ATOM     19  C   UNL     1       2.866   7.367  18.267  0.00  0.00    +0.000 A 
ATOM     20  C   UNL     1       2.023   8.386  17.812  0.00  0.00    +0.000 A 
BRANCH  15  22
ATOM     21  C   UNL     1      -0.666  10.663  19.287  0.00  0.00    +0.000 C 
ATOM     22  C   UNL     1       0.143  10.034  18.166  0.00  0.00    +0.000 C 
ENDBRANCH  15  22
ENDBRANCH  13  18
ENDBRANCH   1  13
BRANCH   2  23
ATOM     23  S   UNL     1       1.666   3.450  21.661  0.00  0.00    +0.000 S 
ATOM     24  H   UNL     1       0.626   4.229  21.348  0.00  0.00    +0.000 HD
ENDBRANCH   2  23
TORSDOF 5
ENDMDL
