MODEL 1
REMARK VINA RESULT:      -8.1      0.000      0.000
REMARK  Name = 
REMARK  11 active torsions:
REMARK  status: ('A' for Active; 'I' for Inactive)
REMARK    1  A    between atoms: C_1  and  C_2
REMARK    2  A    between atoms: C_2  and  O_3
REMARK    3  A    between atoms: O_3  and  C_4
REMARK    4  A    between atoms: C_7  and  C_8
REMARK    5  A    between atoms: C_8  and  N_9
REMARK    6  A    between atoms: C_10  and  C_12
REMARK    7  A    between atoms: C_12  and  C_13
REMARK    8  A    between atoms: C_13  and  N_14
REMARK    9  A    between atoms: C_16  and  C_17
REMARK   10  A    between atoms: C_19  and  C_20
REMARK   11  A    between atoms: N_21  and  C_22
REMARK                            x       y       z     vdW  Elec       q    Type
REMARK                         _______ _______ _______ _____ _____    ______ ____
ROOT
ATOM      1  N   UNL     1       1.155   8.873  20.327  0.00  0.00    +0.000 N 
ATOM      2  N   UNL     1       0.436   9.258  19.198  0.00  0.00    +0.000 NA
ATOM      3  C   UNL     1      -0.436  10.221  19.244  0.00  0.00    +0.000 A 
ATOM      4  C   UNL     1      -1.162  10.572  17.980  0.00  0.00    +0.000 C 
ATOM      5  C   UNL     1      -0.655  10.920  20.486  0.00  0.00    +0.000 A 
ATOM      6  C   UNL     1      -1.480  11.962  20.865  0.00  0.00    +0.000 A 
ATOM      7  C   UNL     1      -2.399  12.802  20.053  0.00  0.00    +0.000 C 
ATOM      8  N   UNL     1      -1.241  12.150  22.232  0.00  0.00    +0.000 N 
ATOM      9  N   UNL     1      -0.189  11.391  22.656  0.00  0.00    +0.000 NA
ATOM     10  C   UNL     1       0.099  10.592  21.620  0.00  0.00    +0.000 A 
ATOM     11  C   UNL     1       1.093   9.516  21.583  0.00  0.00    +0.000 A 
ATOM     12  O   UNL     1       1.787   9.191  22.544  0.00  0.00    +0.000 OA
ENDROOT
BRANCH   8  13
ATOM     13  C   UNL     1      -1.916  12.997  23.168  0.00  0.00    +0.000 A 
ATOM     14  C   UNL     1      -3.211  12.713  23.625  0.00  0.00    +0.000 A 
ATOM     15  C   UNL     1      -3.850  13.556  24.540  0.00  0.00    +0.000 A 
ATOM     16  C   UNL     1      -3.198  14.688  25.020  0.00  0.00    +0.000 A 
ATOM     17  C   UNL     1      -1.904  14.972  24.592  0.00  0.00    +0.000 A 
ATOM     18  C   UNL     1      -1.260  14.130  23.677  0.00  0.00    +0.000 A 
ENDBRANCH   8  13
BRANCH   1  19
ATOM     19  C   UNL     1       2.077   7.759  20.099  0.00  0.00    +0.000 C 
BRANCH  19  20
ATOM     20  C   UNL     1       1.577   6.414  20.606  0.00  0.00    +0.000 C 
BRANCH  20  22
ATOM     21  N   UNL     1       3.469   4.988  20.156  0.00  0.00    +0.000 N 
ATOM     22  C   UNL     1       2.148   5.237  19.843  0.00  0.00    +0.000 C 
ATOM     23  O   UNL     1       1.534   4.634  18.971  0.00  0.00    +0.000 OA
ATOM     24  H   UNL     1       3.861   5.411  20.986  0.00  0.00    +0.000 HD
BRANCH  21  25
ATOM     25  C   UNL     1       4.222   3.929  19.528  0.00  0.00    +0.000 C 
BRANCH  25  29
ATOM     26  C   UNL     1       6.272   5.355  16.002  0.00  0.00    +0.000 A 
ATOM     27  C   UNL     1       5.273   4.386  15.900  0.00  0.00    +0.000 A 
ATOM     28  C   UNL     1       4.619   3.918  17.041  0.00  0.00    +0.000 A 
ATOM     29  C   UNL     1       4.958   4.415  18.306  0.00  0.00    +0.000 A 
ATOM     30  C   UNL     1       5.995   5.353  18.408  0.00  0.00    +0.000 A 
ATOM     31  C   UNL     1       6.653   5.816  17.261  0.00  0.00    +0.000 A 
BRANCH  26  32
ATOM     32  O   UNL     1       6.808   5.757  14.810  0.00  0.00    +0.000 OA
BRANCH  32  34
ATOM     33  C   UNL     1       7.876   5.342  12.726  0.00  0.00    +0.000 C 
ATOM     34  C   UNL     1       7.054   4.731  13.848  0.00  0.00    +0.000 C 
ENDBRANCH  32  34
ENDBRANCH  26  32
ENDBRANCH  25  29
ENDBRANCH  21  25
ENDBRANCH  20  22
ENDBRANCH  19  20
ENDBRANCH   1  19
TORSDOF 8
ENDMDL
MODEL 2
REMARK VINA RESULT:      -8.0      2.461      3.368
REMARK  Name = 
REMARK  11 active torsions:
REMARK  status: ('A' for Active; 'I' for Inactive)
REMARK    1  A    between atoms: C_1  and  C_2
REMARK    2  A    between atoms: C_2  and  O_3
REMARK    3  A    between atoms: O_3  and  C_4
REMARK    4  A    between atoms: C_7  and  C_8
REMARK    5  A    between atoms: C_8  and  N_9
REMARK    6  A    between atoms: C_10  and  C_12
REMARK    7  A    between atoms: C_12  and  C_13
REMARK    8  A    between atoms: C_13  and  N_14
REMARK    9  A    between atoms: C_16  and  C_17
REMARK   10  A    between atoms: C_19  and  C_20
REMARK   11  A    between atoms: N_21  and  C_22
REMARK                            x       y       z     vdW  Elec       q    Type
REMARK                         _______ _______ _______ _____ _____    ______ ____
ROOT
ATOM      1  N   UNL     1       1.733   8.357  19.491  0.00  0.00    +0.000 N 
ATOM      2  N   UNL     1       1.197   8.321  20.777  0.00  0.00    +0.000 NA
ATOM      3  C   UNL     1       0.728   9.390  21.348  0.00  0.00    +0.000 A 
ATOM      4  C   UNL     1       0.166   9.258  22.732  0.00  0.00    +0.000 C 
ATOM      5  C   UNL     1       0.747  10.641  20.632  0.00  0.00    +0.000 A 
ATOM      6  C   UNL     1       0.334  11.925  20.938  0.00  0.00    +0.000 A 
ATOM      7  C   UNL     1      -0.376  12.445  22.135  0.00  0.00    +0.000 C 
ATOM      8  N   UNL     1       0.665  12.700  19.819  0.00  0.00    +0.000 N 
ATOM      9  N   UNL     1       1.097  11.916  18.789  0.00  0.00    +0.000 NA
ATOM     10  C   UNL     1       1.224  10.691  19.316  0.00  0.00    +0.000 A 
ATOM     11  C   UNL     1       1.747   9.494  18.654  0.00  0.00    +0.000 A 
ATOM     12  O   UNL     1       2.171   9.478  17.500  0.00  0.00    +0.000 OA
ENDROOT
BRANCH   8  13
ATOM     13  C   UNL     1       0.595  14.119  19.640  0.00  0.00    +0.000 A 
ATOM     14  C   UNL     1      -0.285  14.708  18.722  0.00  0.00    +0.000 A 
ATOM     15  C   UNL     1      -0.335  16.097  18.566  0.00  0.00    +0.000 A 
ATOM     16  C   UNL     1       0.486  16.916  19.335  0.00  0.00    +0.000 A 
ATOM     17  C   UNL     1       1.350  16.347  20.266  0.00  0.00    +0.000 A 
ATOM     18  C   UNL     1       1.402  14.957  20.427  0.00  0.00    +0.000 A 
ENDBRANCH   8  13
BRANCH   1  19
ATOM     19  C   UNL     1       2.234   7.066  19.015  0.00  0.00    +0.000 C 
BRANCH  19  20
ATOM     20  C   UNL     1       2.258   5.971  20.071  0.00  0.00    +0.000 C 
BRANCH  20  22
ATOM     21  N   UNL     1       4.508   5.396  19.421  0.00  0.00    +0.000 N 
ATOM     22  C   UNL     1       3.277   4.888  19.786  0.00  0.00    +0.000 C 
ATOM     23  O   UNL     1       3.011   3.692  19.784  0.00  0.00    +0.000 OA
ATOM     24  H   UNL     1       4.703   6.371  19.597  0.00  0.00    +0.000 HD
BRANCH  21  25
ATOM     25  C   UNL     1       5.620   4.543  19.079  0.00  0.00    +0.000 C 
BRANCH  25  29
ATOM     26  C   UNL     1       6.309   4.553  14.814  0.00  0.00    +0.000 A 
ATOM     27  C   UNL     1       5.069   4.180  15.332  0.00  0.00    +0.000 A 
ATOM     28  C   UNL     1       4.851   4.167  16.711  0.00  0.00    +0.000 A 
ATOM     29  C   UNL     1       5.876   4.527  17.594  0.00  0.00    +0.000 A 
ATOM     30  C   UNL     1       7.135   4.854  17.071  0.00  0.00    +0.000 A 
ATOM     31  C   UNL     1       7.352   4.862  15.686  0.00  0.00    +0.000 A 
BRANCH  26  32
ATOM     32  O   UNL     1       6.384   4.562  13.449  0.00  0.00    +0.000 OA
BRANCH  32  34
ATOM     33  C   UNL     1       5.022   3.360  11.913  0.00  0.00    +0.000 C 
ATOM     34  C   UNL     1       6.255   3.297  12.798  0.00  0.00    +0.000 C 
ENDBRANCH  32  34
ENDBRANCH  26  32
ENDBRANCH  25  29
ENDBRANCH  21  25
ENDBRANCH  20  22
ENDBRANCH  19  20
ENDBRANCH   1  19
TORSDOF 8
ENDMDL
MODEL 3
REMARK VINA RESULT:      -7.9      2.546     11.747
REMARK  Name = 
REMARK  11 active torsions:
REMARK  status: ('A' for Active; 'I' for Inactive)
REMARK    1  A    between atoms: C_1  and  C_2
REMARK    2  A    between atoms: C_2  and  O_3
REMARK    3  A    between atoms: O_3  and  C_4
REMARK    4  A    between atoms: C_7  and  C_8
REMARK    5  A    between atoms: C_8  and  N_9
REMARK    6  A    between atoms: C_10  and  C_12
REMARK    7  A    between atoms: C_12  and  C_13
REMARK    8  A    between atoms: C_13  and  N_14
REMARK    9  A    between atoms: C_16  and  C_17
REMARK   10  A    between atoms: C_19  and  C_20
REMARK   11  A    between atoms: N_21  and  C_22
REMARK                            x       y       z     vdW  Elec       q    Type
REMARK                         _______ _______ _______ _____ _____    ______ ____
ROOT
ATOM      1  N   UNL     1       1.730   8.064  19.615  0.00  0.00    +0.000 N 
ATOM      2  N   UNL     1       1.739   6.896  20.376  0.00  0.00    +0.000 NA
ATOM      3  C   UNL     1       2.444   5.862  20.024  0.00  0.00    +0.000 A 
ATOM      4  C   UNL     1       2.398   4.649  20.905  0.00  0.00    +0.000 C 
ATOM      5  C   UNL     1       3.245   5.925  18.827  0.00  0.00    +0.000 A 
ATOM      6  C   UNL     1       4.088   5.032  18.193  0.00  0.00    +0.000 A 
ATOM      7  C   UNL     1       4.531   3.673  18.602  0.00  0.00    +0.000 C 
ATOM      8  N   UNL     1       4.540   5.696  17.045  0.00  0.00    +0.000 N 
ATOM      9  N   UNL     1       4.148   7.003  17.047  0.00  0.00    +0.000 NA
ATOM     10  C   UNL     1       3.300   7.107  18.079  0.00  0.00    +0.000 A 
ATOM     11  C   UNL     1       2.521   8.286  18.467  0.00  0.00    +0.000 A 
ATOM     12  O   UNL     1       2.536   9.350  17.852  0.00  0.00    +0.000 OA
ENDROOT
BRANCH   8  13
ATOM     13  C   UNL     1       5.320   5.199  15.952  0.00  0.00    +0.000 A 
ATOM     14  C   UNL     1       4.749   4.452  14.912  0.00  0.00    +0.000 A 
ATOM     15  C   UNL     1       5.533   3.978  13.856  0.00  0.00    +0.000 A 
ATOM     16  C   UNL     1       6.896   4.255  13.817  0.00  0.00    +0.000 A 
ATOM     17  C   UNL     1       7.474   5.013  14.832  0.00  0.00    +0.000 A 
ATOM     18  C   UNL     1       6.692   5.491  15.891  0.00  0.00    +0.000 A 
ENDBRANCH   8  13
BRANCH   1  19
ATOM     19  C   UNL     1       0.866   9.118  20.148  0.00  0.00    +0.000 C 
BRANCH  19  20
ATOM     20  C   UNL     1       0.197   8.777  21.472  0.00  0.00    +0.000 C 
BRANCH  20  22
ATOM     21  N   UNL     1      -0.465  11.095  21.522  0.00  0.00    +0.000 N 
ATOM     22  C   UNL     1      -0.153   9.996  22.298  0.00  0.00    +0.000 C 
ATOM     23  O   UNL     1      -0.071  10.032  23.520  0.00  0.00    +0.000 OA
ATOM     24  H   UNL     1      -0.668  10.957  20.542  0.00  0.00    +0.000 HD
BRANCH  21  25
ATOM     25  C   UNL     1      -0.803  12.373  22.099  0.00  0.00    +0.000 C 
BRANCH  25  29
ATOM     26  C   UNL     1      -5.067  12.960  22.471  0.00  0.00    +0.000 A 
ATOM     27  C   UNL     1      -4.291  12.660  23.590  0.00  0.00    +0.000 A 
ATOM     28  C   UNL     1      -2.915  12.459  23.467  0.00  0.00    +0.000 A 
ATOM     29  C   UNL     1      -2.294  12.556  22.216  0.00  0.00    +0.000 A 
ATOM     30  C   UNL     1      -3.085  12.810  21.087  0.00  0.00    +0.000 A 
ATOM     31  C   UNL     1      -4.467  13.006  21.214  0.00  0.00    +0.000 A 
BRANCH  26  32
ATOM     32  O   UNL     1      -6.394  13.171  22.728  0.00  0.00    +0.000 OA
BRANCH  32  34
ATOM     33  C   UNL     1      -7.913  14.077  24.318  0.00  0.00    +0.000 C 
ATOM     34  C   UNL     1      -6.720  14.372  23.427  0.00  0.00    +0.000 C 
ENDBRANCH  32  34
ENDBRANCH  26  32
ENDBRANCH  25  29
ENDBRANCH  21  25
ENDBRANCH  20  22
ENDBRANCH  19  20
ENDBRANCH   1  19
TORSDOF 8
ENDMDL
MODEL 4
REMARK VINA RESULT:      -7.9      2.229      3.220
REMARK  Name = 
REMARK  11 active torsions:
REMARK  status: ('A' for Active; 'I' for Inactive)
REMARK    1  A    between atoms: C_1  and  C_2
REMARK    2  A    between atoms: C_2  and  O_3
REMARK    3  A    between atoms: O_3  and  C_4
REMARK    4  A    between atoms: C_7  and  C_8
REMARK    5  A    between atoms: C_8  and  N_9
REMARK    6  A    between atoms: C_10  and  C_12
REMARK    7  A    between atoms: C_12  and  C_13
REMARK    8  A    between atoms: C_13  and  N_14
REMARK    9  A    between atoms: C_16  and  C_17
REMARK   10  A    between atoms: C_19  and  C_20
REMARK   11  A    between atoms: N_21  and  C_22
REMARK                            x       y       z     vdW  Elec       q    Type
REMARK                         _______ _______ _______ _____ _____    ______ ____
ROOT
ATOM      1  N   UNL     1       1.534   8.515  19.934  0.00  0.00    +0.000 N 
ATOM      2  N   UNL     1       1.038   8.542  21.236  0.00  0.00    +0.000 NA
ATOM      3  C   UNL     1       0.518   9.620  21.743  0.00  0.00    +0.000 A 
ATOM      4  C   UNL     1       0.005   9.557  23.151  0.00  0.00    +0.000 C 
ATOM      5  C   UNL     1       0.438  10.814  20.938  0.00  0.00    +0.000 A 
ATOM      6  C   UNL     1      -0.047  12.089  21.164  0.00  0.00    +0.000 A 
ATOM      7  C   UNL     1      -0.754  12.652  22.343  0.00  0.00    +0.000 C 
ATOM      8  N   UNL     1       0.203  12.797  19.982  0.00  0.00    +0.000 N 
ATOM      9  N   UNL     1       0.655  11.968  18.997  0.00  0.00    +0.000 NA
ATOM     10  C   UNL     1       0.874  10.795  19.607  0.00  0.00    +0.000 A 
ATOM     11  C   UNL     1       1.453   9.586  19.017  0.00  0.00    +0.000 A 
ATOM     12  O   UNL     1       1.845   9.511  17.854  0.00  0.00    +0.000 OA
ENDROOT
BRANCH   8  13
ATOM     13  C   UNL     1       0.039  14.192  19.703  0.00  0.00    +0.000 A 
ATOM     14  C   UNL     1      -1.117  14.892  20.076  0.00  0.00    +0.000 A 
ATOM     15  C   UNL     1      -1.253  16.254  19.794  0.00  0.00    +0.000 A 
ATOM     16  C   UNL     1      -0.230  16.939  19.145  0.00  0.00    +0.000 A 
ATOM     17  C   UNL     1       0.933  16.263  18.787  0.00  0.00    +0.000 A 
ATOM     18  C   UNL     1       1.074  14.899  19.070  0.00  0.00    +0.000 A 
ENDBRANCH   8  13
BRANCH   1  19
ATOM     19  C   UNL     1       2.102   7.226  19.536  0.00  0.00    +0.000 C 
BRANCH  19  20
ATOM     20  C   UNL     1       1.828   6.090  20.511  0.00  0.00    +0.000 C 
BRANCH  20  22
ATOM     21  N   UNL     1       3.985   5.240  19.843  0.00  0.00    +0.000 N 
ATOM     22  C   UNL     1       2.729   4.891  20.299  0.00  0.00    +0.000 C 
ATOM     23  O   UNL     1       2.353   3.731  20.424  0.00  0.00    +0.000 OA
ATOM     24  H   UNL     1       4.278   6.205  19.916  0.00  0.00    +0.000 HD
BRANCH  21  25
ATOM     25  C   UNL     1       4.998   4.256  19.549  0.00  0.00    +0.000 C 
BRANCH  25  29
ATOM     26  C   UNL     1       6.356   4.433  15.452  0.00  0.00    +0.000 A 
ATOM     27  C   UNL     1       7.239   4.679  16.504  0.00  0.00    +0.000 A 
ATOM     28  C   UNL     1       6.796   4.632  17.827  0.00  0.00    +0.000 A 
ATOM     29  C   UNL     1       5.458   4.338  18.117  0.00  0.00    +0.000 A 
ATOM     30  C   UNL     1       4.564   4.140  17.054  0.00  0.00    +0.000 A 
ATOM     31  C   UNL     1       5.011   4.192  15.728  0.00  0.00    +0.000 A 
BRANCH  26  32
ATOM     32  O   UNL     1       6.920   4.471  14.207  0.00  0.00    +0.000 OA
BRANCH  32  34
ATOM     33  C   UNL     1       7.022   3.929  11.893  0.00  0.00    +0.000 C 
ATOM     34  C   UNL     1       6.236   3.752  13.180  0.00  0.00    +0.000 C 
ENDBRANCH  32  34
ENDBRANCH  26  32
ENDBRANCH  25  29
ENDBRANCH  21  25
ENDBRANCH  20  22
ENDBRANCH  19  20
ENDBRANCH   1  19
TORSDOF 8
ENDMDL
MODEL 5
REMARK VINA RESULT:      -7.7      0.983      1.062
REMARK  Name = 
REMARK  11 active torsions:
REMARK  status: ('A' for Active; 'I' for Inactive)
REMARK    1  A    between atoms: C_1  and  C_2
REMARK    2  A    between atoms: C_2  and  O_3
REMARK    3  A    between atoms: O_3  and  C_4
REMARK    4  A    between atoms: C_7  and  C_8
REMARK    5  A    between atoms: C_8  and  N_9
REMARK    6  A    between atoms: C_10  and  C_12
REMARK    7  A    between atoms: C_12  and  C_13
REMARK    8  A    between atoms: C_13  and  N_14
REMARK    9  A    between atoms: C_16  and  C_17
REMARK   10  A    between atoms: C_19  and  C_20
REMARK   11  A    between atoms: N_21  and  C_22
REMARK                            x       y       z     vdW  Elec       q    Type
REMARK                         _______ _______ _______ _____ _____    ______ ____
ROOT
ATOM      1  N   UNL     1       1.102   8.837  20.976  0.00  0.00    +0.000 N 
ATOM      2  N   UNL     1       0.587   9.145  19.718  0.00  0.00    +0.000 NA
ATOM      3  C   UNL     1      -0.256  10.120  19.550  0.00  0.00    +0.000 A 
ATOM      4  C   UNL     1      -0.757  10.385  18.161  0.00  0.00    +0.000 C 
ATOM      5  C   UNL     1      -0.658  10.912  20.686  0.00  0.00    +0.000 A 
ATOM      6  C   UNL     1      -1.508  11.991  20.847  0.00  0.00    +0.000 A 
ATOM      7  C   UNL     1      -2.260  12.779  19.837  0.00  0.00    +0.000 C 
ATOM      8  N   UNL     1      -1.491  12.277  22.218  0.00  0.00    +0.000 N 
ATOM      9  N   UNL     1      -0.543  11.539  22.863  0.00  0.00    +0.000 NA
ATOM     10  C   UNL     1      -0.108  10.661  21.949  0.00  0.00    +0.000 A 
ATOM     11  C   UNL     1       0.851   9.573  22.154  0.00  0.00    +0.000 A 
ATOM     12  O   UNL     1       1.370   9.312  23.238  0.00  0.00    +0.000 OA
ENDROOT
BRANCH   8  13
ATOM     13  C   UNL     1      -2.290  13.201  22.966  0.00  0.00    +0.000 A 
ATOM     14  C   UNL     1      -3.418  12.789  23.689  0.00  0.00    +0.000 A 
ATOM     15  C   UNL     1      -4.181  13.711  24.412  0.00  0.00    +0.000 A 
ATOM     16  C   UNL     1      -3.820  15.054  24.433  0.00  0.00    +0.000 A 
ATOM     17  C   UNL     1      -2.690  15.475  23.737  0.00  0.00    +0.000 A 
ATOM     18  C   UNL     1      -1.922  14.555  23.013  0.00  0.00    +0.000 A 
ENDBRANCH   8  13
BRANCH   1  19
ATOM     19  C   UNL     1       2.021   7.697  20.983  0.00  0.00    +0.000 C 
BRANCH  19  20
ATOM     20  C   UNL     1       1.413   6.395  20.482  0.00  0.00    +0.000 C 
BRANCH  20  22
ATOM     21  N   UNL     1       3.683   5.874  19.855  0.00  0.00    +0.000 N 
ATOM     22  C   UNL     1       2.447   5.337  20.158  0.00  0.00    +0.000 C 
ATOM     23  O   UNL     1       2.191   4.142  20.075  0.00  0.00    +0.000 OA
ATOM     24  H   UNL     1       3.866   6.839  20.095  0.00  0.00    +0.000 HD
BRANCH  21  25
ATOM     25  C   UNL     1       4.810   5.052  19.489  0.00  0.00    +0.000 C 
BRANCH  25  29
ATOM     26  C   UNL     1       5.464   5.072  15.218  0.00  0.00    +0.000 A 
ATOM     27  C   UNL     1       5.625   3.899  15.956  0.00  0.00    +0.000 A 
ATOM     28  C   UNL     1       5.425   3.897  17.338  0.00  0.00    +0.000 A 
ATOM     29  C   UNL     1       5.058   5.073  18.003  0.00  0.00    +0.000 A 
ATOM     30  C   UNL     1       4.944   6.259  17.264  0.00  0.00    +0.000 A 
ATOM     31  C   UNL     1       5.151   6.259  15.878  0.00  0.00    +0.000 A 
BRANCH  26  32
ATOM     32  O   UNL     1       5.651   4.935  13.871  0.00  0.00    +0.000 OA
BRANCH  32  34
ATOM     33  C   UNL     1       5.564   3.324  12.123  0.00  0.00    +0.000 C 
ATOM     34  C   UNL     1       6.230   3.706  13.433  0.00  0.00    +0.000 C 
ENDBRANCH  32  34
ENDBRANCH  26  32
ENDBRANCH  25  29
ENDBRANCH  21  25
ENDBRANCH  20  22
ENDBRANCH  19  20
ENDBRANCH   1  19
TORSDOF 8
ENDMDL
MODEL 6
REMARK VINA RESULT:      -7.7      2.527     10.250
REMARK  Name = 
REMARK  11 active torsions:
REMARK  status: ('A' for Active; 'I' for Inactive)
REMARK    1  A    between atoms: C_1  and  C_2
REMARK    2  A    between atoms: C_2  and  O_3
REMARK    3  A    between atoms: O_3  and  C_4
REMARK    4  A    between atoms: C_7  and  C_8
REMARK    5  A    between atoms: C_8  and  N_9
REMARK    6  A    between atoms: C_10  and  C_12
REMARK    7  A    between atoms: C_12  and  C_13
REMARK    8  A    between atoms: C_13  and  N_14
REMARK    9  A    between atoms: C_16  and  C_17
REMARK   10  A    between atoms: C_19  and  C_20
REMARK   11  A    between atoms: N_21  and  C_22
REMARK                            x       y       z     vdW  Elec       q    Type
REMARK                         _______ _______ _______ _____ _____    ______ ____
ROOT
ATOM      1  N   UNL     1       1.391   7.138  20.591  0.00  0.00    +0.000 N 
ATOM      2  N   UNL     1       1.456   5.885  21.196  0.00  0.00    +0.000 NA
ATOM      3  C   UNL     1       2.237   4.950  20.742  0.00  0.00    +0.000 A 
ATOM      4  C   UNL     1       2.246   3.633  21.458  0.00  0.00    +0.000 C 
ATOM      5  C   UNL     1       3.068   5.218  19.594  0.00  0.00    +0.000 A 
ATOM      6  C   UNL     1       3.986   4.469  18.883  0.00  0.00    +0.000 A 
ATOM      7  C   UNL     1       4.506   3.099  19.131  0.00  0.00    +0.000 C 
ATOM      8  N   UNL     1       4.426   5.303  17.847  0.00  0.00    +0.000 N 
ATOM      9  N   UNL     1       3.949   6.572  18.001  0.00  0.00    +0.000 NA
ATOM     10  C   UNL     1       3.065   6.489  19.005  0.00  0.00    +0.000 A 
ATOM     11  C   UNL     1       2.199   7.556  19.511  0.00  0.00    +0.000 A 
ATOM     12  O   UNL     1       2.161   8.690  19.038  0.00  0.00    +0.000 OA
ENDROOT
BRANCH   8  13
ATOM     13  C   UNL     1       5.269   5.001  16.730  0.00  0.00    +0.000 A 
ATOM     14  C   UNL     1       4.786   4.335  15.595  0.00  0.00    +0.000 A 
ATOM     15  C   UNL     1       5.630   4.053  14.516  0.00  0.00    +0.000 A 
ATOM     16  C   UNL     1       6.965   4.444  14.552  0.00  0.00    +0.000 A 
ATOM     17  C   UNL     1       7.455   5.124  15.663  0.00  0.00    +0.000 A 
ATOM     18  C   UNL     1       6.612   5.411  16.745  0.00  0.00    +0.000 A 
ENDBRANCH   8  13
BRANCH   1  19
ATOM     19  C   UNL     1       0.444   8.059  21.221  0.00  0.00    +0.000 C 
BRANCH  19  20
ATOM     20  C   UNL     1       1.092   9.171  22.033  0.00  0.00    +0.000 C 
BRANCH  20  22
ATOM     21  N   UNL     1      -0.709  10.716  21.601  0.00  0.00    +0.000 N 
ATOM     22  C   UNL     1       0.663  10.557  21.599  0.00  0.00    +0.000 C 
ATOM     23  O   UNL     1       1.442  11.412  21.195  0.00  0.00    +0.000 OA
ATOM     24  H   UNL     1      -1.277  10.038  22.090  0.00  0.00    +0.000 HD
BRANCH  21  25
ATOM     25  C   UNL     1      -1.341  11.948  21.197  0.00  0.00    +0.000 C 
BRANCH  25  29
ATOM     26  C   UNL     1      -3.583  11.403  17.544  0.00  0.00    +0.000 A 
ATOM     27  C   UNL     1      -2.266  10.953  17.643  0.00  0.00    +0.000 A 
ATOM     28  C   UNL     1      -1.539  11.140  18.820  0.00  0.00    +0.000 A 
ATOM     29  C   UNL     1      -2.123  11.783  19.919  0.00  0.00    +0.000 A 
ATOM     30  C   UNL     1      -3.429  12.276  19.798  0.00  0.00    +0.000 A 
ATOM     31  C   UNL     1      -4.154  12.091  18.613  0.00  0.00    +0.000 A 
BRANCH  26  32
ATOM     32  O   UNL     1      -4.199  11.127  16.355  0.00  0.00    +0.000 OA
BRANCH  32  34
ATOM     33  C   UNL     1      -3.437   9.746  14.573  0.00  0.00    +0.000 C 
ATOM     34  C   UNL     1      -3.366  11.130  15.195  0.00  0.00    +0.000 C 
ENDBRANCH  32  34
ENDBRANCH  26  32
ENDBRANCH  25  29
ENDBRANCH  21  25
ENDBRANCH  20  22
ENDBRANCH  19  20
ENDBRANCH   1  19
TORSDOF 8
ENDMDL
MODEL 7
REMARK VINA RESULT:      -7.7      3.561      9.042
REMARK  Name = 
REMARK  11 active torsions:
REMARK  status: ('A' for Active; 'I' for Inactive)
REMARK    1  A    between atoms: C_1  and  C_2
REMARK    2  A    between atoms: C_2  and  O_3
REMARK    3  A    between atoms: O_3  and  C_4
REMARK    4  A    between atoms: C_7  and  C_8
REMARK    5  A    between atoms: C_8  and  N_9
REMARK    6  A    between atoms: C_10  and  C_12
REMARK    7  A    between atoms: C_12  and  C_13
REMARK    8  A    between atoms: C_13  and  N_14
REMARK    9  A    between atoms: C_16  and  C_17
REMARK   10  A    between atoms: C_19  and  C_20
REMARK   11  A    between atoms: N_21  and  C_22
REMARK                            x       y       z     vdW  Elec       q    Type
REMARK                         _______ _______ _______ _____ _____    ______ ____
ROOT
ATOM      1  N   UNL     1      -0.384  12.285  22.157  0.00  0.00    +0.000 N 
ATOM      2  N   UNL     1      -0.217  12.869  20.903  0.00  0.00    +0.000 NA
ATOM      3  C   UNL     1       0.261  12.197  19.898  0.00  0.00    +0.000 A 
ATOM      4  C   UNL     1       0.403  12.904  18.584  0.00  0.00    +0.000 C 
ATOM      5  C   UNL     1       0.612  10.810  20.077  0.00  0.00    +0.000 A 
ATOM      6  C   UNL     1       1.125   9.837  19.240  0.00  0.00    +0.000 A 
ATOM      7  C   UNL     1       1.419   9.883  17.784  0.00  0.00    +0.000 C 
ATOM      8  N   UNL     1       1.272   8.696  20.039  0.00  0.00    +0.000 N 
ATOM      9  N   UNL     1       0.713   8.882  21.269  0.00  0.00    +0.000 NA
ATOM     10  C   UNL     1       0.396  10.183  21.311  0.00  0.00    +0.000 A 
ATOM     11  C   UNL     1      -0.150  10.923  22.451  0.00  0.00    +0.000 A 
ATOM     12  O   UNL     1      -0.367  10.424  23.554  0.00  0.00    +0.000 OA
ENDROOT
BRANCH   8  13
ATOM     13  C   UNL     1       1.888   7.441  19.731  0.00  0.00    +0.000 A 
ATOM     14  C   UNL     1       2.666   7.260  18.579  0.00  0.00    +0.000 A 
ATOM     15  C   UNL     1       3.258   6.024  18.300  0.00  0.00    +0.000 A 
ATOM     16  C   UNL     1       3.090   4.956  19.175  0.00  0.00    +0.000 A 
ATOM     17  C   UNL     1       2.337   5.125  20.334  0.00  0.00    +0.000 A 
ATOM     18  C   UNL     1       1.745   6.362  20.618  0.00  0.00    +0.000 A 
ENDBRANCH   8  13
BRANCH   1  19
ATOM     19  C   UNL     1      -0.913  13.194  23.175  0.00  0.00    +0.000 C 
BRANCH  19  20
ATOM     20  C   UNL     1      -2.161  13.955  22.752  0.00  0.00    +0.000 C 
BRANCH  20  22
ATOM     21  N   UNL     1      -3.772  13.312  21.077  0.00  0.00    +0.000 N 
ATOM     22  C   UNL     1      -3.307  13.051  22.351  0.00  0.00    +0.000 C 
ATOM     23  O   UNL     1      -3.830  12.243  23.109  0.00  0.00    +0.000 OA
ATOM     24  H   UNL     1      -3.203  13.870  20.456  0.00  0.00    +0.000 HD
BRANCH  21  25
ATOM     25  C   UNL     1      -4.878  12.588  20.498  0.00  0.00    +0.000 C 
BRANCH  25  29
ATOM     26  C   UNL     1      -4.003  11.319  16.463  0.00  0.00    +0.000 A 
ATOM     27  C   UNL     1      -5.288  11.731  16.815  0.00  0.00    +0.000 A 
ATOM     28  C   UNL     1      -5.572  12.130  18.122  0.00  0.00    +0.000 A 
ATOM     29  C   UNL     1      -4.569  12.122  19.099  0.00  0.00    +0.000 A 
ATOM     30  C   UNL     1      -3.292  11.660  18.752  0.00  0.00    +0.000 A 
ATOM     31  C   UNL     1      -3.011  11.256  17.441  0.00  0.00    +0.000 A 
BRANCH  26  32
ATOM     32  O   UNL     1      -3.844  10.990  15.145  0.00  0.00    +0.000 OA
BRANCH  32  34
ATOM     33  C   UNL     1      -2.929   9.707  13.363  0.00  0.00    +0.000 C 
ATOM     34  C   UNL     1      -2.888   9.968  14.858  0.00  0.00    +0.000 C 
ENDBRANCH  32  34
ENDBRANCH  26  32
ENDBRANCH  25  29
ENDBRANCH  21  25
ENDBRANCH  20  22
ENDBRANCH  19  20
ENDBRANCH   1  19
TORSDOF 8
ENDMDL
MODEL 8
REMARK VINA RESULT:      -7.6      2.708     10.895
REMARK  Name = 
REMARK  11 active torsions:
REMARK  status: ('A' for Active; 'I' for Inactive)
REMARK    1  A    between atoms: C_1  and  C_2
REMARK    2  A    between atoms: C_2  and  O_3
REMARK    3  A    between atoms: O_3  and  C_4
REMARK    4  A    between atoms: C_7  and  C_8
REMARK    5  A    between atoms: C_8  and  N_9
REMARK    6  A    between atoms: C_10  and  C_12
REMARK    7  A    between atoms: C_12  and  C_13
REMARK    8  A    between atoms: C_13  and  N_14
REMARK    9  A    between atoms: C_16  and  C_17
REMARK   10  A    between atoms: C_19  and  C_20
REMARK   11  A    between atoms: N_21  and  C_22
REMARK                            x       y       z     vdW  Elec       q    Type
REMARK                         _______ _______ _______ _____ _____    ______ ____
ROOT
ATOM      1  N   UNL     1       1.361   7.547  20.256  0.00  0.00    +0.000 N 
ATOM      2  N   UNL     1       1.458   6.350  20.961  0.00  0.00    +0.000 NA
ATOM      3  C   UNL     1       2.255   5.397  20.576  0.00  0.00    +0.000 A 
ATOM      4  C   UNL     1       2.299   4.143  21.397  0.00  0.00    +0.000 C 
ATOM      5  C   UNL     1       3.069   5.587  19.401  0.00  0.00    +0.000 A 
ATOM      6  C   UNL     1       3.997   4.801  18.744  0.00  0.00    +0.000 A 
ATOM      7  C   UNL     1       4.548   3.467  19.098  0.00  0.00    +0.000 C 
ATOM      8  N   UNL     1       4.410   5.557  17.639  0.00  0.00    +0.000 N 
ATOM      9  N   UNL     1       3.907   6.824  17.694  0.00  0.00    +0.000 NA
ATOM     10  C   UNL     1       3.035   6.805  18.711  0.00  0.00    +0.000 A 
ATOM     11  C   UNL     1       2.150   7.892  19.136  0.00  0.00    +0.000 A 
ATOM     12  O   UNL     1       2.084   8.983  18.573  0.00  0.00    +0.000 OA
ENDROOT
BRANCH   8  13
ATOM     13  C   UNL     1       5.249   5.182  16.541  0.00  0.00    +0.000 A 
ATOM     14  C   UNL     1       4.755   4.470  15.439  0.00  0.00    +0.000 A 
ATOM     15  C   UNL     1       5.596   4.117  14.379  0.00  0.00    +0.000 A 
ATOM     16  C   UNL     1       6.938   4.481  14.399  0.00  0.00    +0.000 A 
ATOM     17  C   UNL     1       7.439   5.207  15.477  0.00  0.00    +0.000 A 
ATOM     18  C   UNL     1       6.601   5.564  16.540  0.00  0.00    +0.000 A 
ENDBRANCH   8  13
BRANCH   1  19
ATOM     19  C   UNL     1       0.400   8.497  20.819  0.00  0.00    +0.000 C 
BRANCH  19  20
ATOM     20  C   UNL     1       1.028   9.627  21.622  0.00  0.00    +0.000 C 
BRANCH  20  22
ATOM     21  N   UNL     1      -0.209  11.467  20.673  0.00  0.00    +0.000 N 
ATOM     22  C   UNL     1       0.092  10.797  21.842  0.00  0.00    +0.000 C 
ATOM     23  O   UNL     1      -0.277  11.169  22.949  0.00  0.00    +0.000 OA
ATOM     24  H   UNL     1      -0.006  11.020  19.789  0.00  0.00    +0.000 HD
BRANCH  21  25
ATOM     25  C   UNL     1      -1.062  12.630  20.651  0.00  0.00    +0.000 C 
BRANCH  25  29
ATOM     26  C   UNL     1      -4.761  11.788  18.582  0.00  0.00    +0.000 A 
ATOM     27  C   UNL     1      -3.535  11.431  18.020  0.00  0.00    +0.000 A 
ATOM     28  C   UNL     1      -2.340  11.713  18.684  0.00  0.00    +0.000 A 
ATOM     29  C   UNL     1      -2.356  12.361  19.926  0.00  0.00    +0.000 A 
ATOM     30  C   UNL     1      -3.587  12.761  20.464  0.00  0.00    +0.000 A 
ATOM     31  C   UNL     1      -4.784  12.480  19.792  0.00  0.00    +0.000 A 
BRANCH  26  32
ATOM     32  O   UNL     1      -5.858  11.422  17.853  0.00  0.00    +0.000 OA
BRANCH  32  34
ATOM     33  C   UNL     1      -6.892  13.376  16.974  0.00  0.00    +0.000 C 
ATOM     34  C   UNL     1      -7.013  12.251  17.987  0.00  0.00    +0.000 C 
ENDBRANCH  32  34
ENDBRANCH  26  32
ENDBRANCH  25  29
ENDBRANCH  21  25
ENDBRANCH  20  22
ENDBRANCH  19  20
ENDBRANCH   1  19
TORSDOF 8
ENDMDL
MODEL 9
REMARK VINA RESULT:      -7.5      1.309      1.753
REMARK  Name = 
REMARK  11 active torsions:
REMARK  status: ('A' for Active; 'I' for Inactive)
REMARK    1  A    between atoms: C_1  and  C_2
REMARK    2  A    between atoms: C_2  and  O_3
REMARK    3  A    between atoms: O_3  and  C_4
REMARK    4  A    between atoms: C_7  and  C_8
REMARK    5  A    between atoms: C_8  and  N_9
REMARK    6  A    between atoms: C_10  and  C_12
REMARK    7  A    between atoms: C_12  and  C_13
REMARK    8  A    between atoms: C_13  and  N_14
REMARK    9  A    between atoms: C_16  and  C_17
REMARK   10  A    between atoms: C_19  and  C_20
REMARK   11  A    between atoms: N_21  and  C_22
REMARK                            x       y       z     vdW  Elec       q    Type
REMARK                         _______ _______ _______ _____ _____    ______ ____
ROOT
ATOM      1  N   UNL     1       0.641   9.500  21.509  0.00  0.00    +0.000 N 
ATOM      2  N   UNL     1       0.538  10.047  20.232  0.00  0.00    +0.000 NA
ATOM      3  C   UNL     1      -0.124  11.145  20.014  0.00  0.00    +0.000 A 
ATOM      4  C   UNL     1      -0.179  11.664  18.608  0.00  0.00    +0.000 C 
ATOM      5  C   UNL     1      -0.754  11.823  21.119  0.00  0.00    +0.000 A 
ATOM      6  C   UNL     1      -1.506  12.978  21.229  0.00  0.00    +0.000 A 
ATOM      7  C   UNL     1      -1.858  13.995  20.205  0.00  0.00    +0.000 C 
ATOM      8  N   UNL     1      -1.852  13.069  22.584  0.00  0.00    +0.000 N 
ATOM      9  N   UNL     1      -1.204  12.123  23.322  0.00  0.00    +0.000 NA
ATOM     10  C   UNL     1      -0.614  11.326  22.421  0.00  0.00    +0.000 A 
ATOM     11  C   UNL     1       0.137  10.096  22.686  0.00  0.00    +0.000 A 
ATOM     12  O   UNL     1       0.297   9.619  23.808  0.00  0.00    +0.000 OA
ENDROOT
BRANCH   8  13
ATOM     13  C   UNL     1      -2.738  13.985  23.238  0.00  0.00    +0.000 A 
ATOM     14  C   UNL     1      -2.261  15.071  23.984  0.00  0.00    +0.000 A 
ATOM     15  C   UNL     1      -3.147  15.952  24.613  0.00  0.00    +0.000 A 
ATOM     16  C   UNL     1      -4.520  15.766  24.494  0.00  0.00    +0.000 A 
ATOM     17  C   UNL     1      -5.009  14.704  23.739  0.00  0.00    +0.000 A 
ATOM     18  C   UNL     1      -4.126  13.820  23.106  0.00  0.00    +0.000 A 
ENDBRANCH   8  13
BRANCH   1  19
ATOM     19  C   UNL     1       1.404   8.252  21.566  0.00  0.00    +0.000 C 
BRANCH  19  20
ATOM     20  C   UNL     1       0.908   7.167  20.623  0.00  0.00    +0.000 C 
BRANCH  20  22
ATOM     21  N   UNL     1       3.008   6.232  19.891  0.00  0.00    +0.000 N 
ATOM     22  C   UNL     1       1.828   5.965  20.556  0.00  0.00    +0.000 C 
ATOM     23  O   UNL     1       1.517   4.852  20.961  0.00  0.00    +0.000 OA
ATOM     24  H   UNL     1       3.267   7.196  19.727  0.00  0.00    +0.000 HD
BRANCH  21  25
ATOM     25  C   UNL     1       4.020   5.225  19.687  0.00  0.00    +0.000 C 
BRANCH  25  29
ATOM     26  C   UNL     1       5.561   5.284  15.651  0.00  0.00    +0.000 A 
ATOM     27  C   UNL     1       5.083   6.452  16.246  0.00  0.00    +0.000 A 
ATOM     28  C   UNL     1       4.575   6.429  17.546  0.00  0.00    +0.000 A 
ATOM     29  C   UNL     1       4.538   5.232  18.272  0.00  0.00    +0.000 A 
ATOM     30  C   UNL     1       4.974   4.053  17.652  0.00  0.00    +0.000 A 
ATOM     31  C   UNL     1       5.479   4.078  16.345  0.00  0.00    +0.000 A 
BRANCH  26  32
ATOM     32  O   UNL     1       6.067   5.445  14.391  0.00  0.00    +0.000 OA
BRANCH  32  34
ATOM     33  C   UNL     1       5.941   3.685  12.796  0.00  0.00    +0.000 C 
ATOM     34  C   UNL     1       6.803   4.343  13.859  0.00  0.00    +0.000 C 
ENDBRANCH  32  34
ENDBRANCH  26  32
ENDBRANCH  25  29
ENDBRANCH  21  25
ENDBRANCH  20  22
ENDBRANCH  19  20
ENDBRANCH   1  19
TORSDOF 8
ENDMDL
