MODEL 1
REMARK VINA RESULT:      -6.8      0.000      0.000
REMARK  Name = 
REMARK  1 active torsions:
REMARK  status: ('A' for Active; 'I' for Inactive)
REMARK    1  A    between atoms: C_2  and  C_3
REMARK                            x       y       z     vdW  Elec       q    Type
REMARK                         _______ _______ _______ _____ _____    ______ ____
ROOT
ATOM      1  C   UNL     1       6.097   4.681  17.020  0.00  0.00    +0.000 A 
ATOM      2  S   UNL     1       4.620   3.850  16.851  0.00  0.00    +0.000 S 
ATOM      3  C   UNL     1       4.412   3.831  18.574  0.00  0.00    +0.000 A 
ATOM      4  N   UNL     1       3.315   3.290  19.172  0.00  0.00    +0.000 N 
ATOM      5  C   UNL     1       2.564   2.181  18.601  0.00  0.00    +0.000 C 
ATOM      6  C   UNL     1       1.083   2.548  18.608  0.00  0.00    +0.000 C 
ATOM      7  C   UNL     1       0.616   2.911  20.019  0.00  0.00    +0.000 C 
ATOM      8  C   UNL     1       1.517   3.972  20.657  0.00  0.00    +0.000 C 
ATOM      9  C   UNL     1       3.003   3.603  20.563  0.00  0.00    +0.000 C 
ATOM     10  N   UNL     1       5.380   4.442  19.223  0.00  0.00    +0.000 NA
ATOM     11  C   UNL     1       6.348   4.899  18.352  0.00  0.00    +0.000 A 
ATOM     12 BR   UNL     1       7.896   5.766  19.034  0.00  0.00    +0.000 Br
ENDROOT
BRANCH   1  14
ATOM     13  N   UNL     1       7.571   5.356  15.012  0.00  0.00    +0.000 NA
ATOM     14  C   UNL     1       6.907   5.062  15.917  0.00  0.00    +0.000 C 
ENDBRANCH   1  14
TORSDOF 1
ENDMDL
MODEL 2
REMARK VINA RESULT:      -6.2      2.074      2.508
REMARK  Name = 
REMARK  1 active torsions:
REMARK  status: ('A' for Active; 'I' for Inactive)
REMARK    1  A    between atoms: C_2  and  C_3
REMARK                            x       y       z     vdW  Elec       q    Type
REMARK                         _______ _______ _______ _____ _____    ______ ____
ROOT
ATOM      1  C   UNL     1       5.704   5.642  17.111  0.00  0.00    +0.000 A 
ATOM      2  S   UNL     1       4.701   5.791  18.479  0.00  0.00    +0.000 S 
ATOM      3  C   UNL     1       3.676   4.520  17.890  0.00  0.00    +0.000 A 
ATOM      4  N   UNL     1       2.593   4.072  18.583  0.00  0.00    +0.000 N 
ATOM      5  C   UNL     1       1.814   4.921  19.474  0.00  0.00    +0.000 C 
ATOM      6  C   UNL     1       1.645   4.194  20.806  0.00  0.00    +0.000 C 
ATOM      7  C   UNL     1       1.012   2.817  20.600  0.00  0.00    +0.000 C 
ATOM      8  C   UNL     1       1.761   2.001  19.544  0.00  0.00    +0.000 C 
ATOM      9  C   UNL     1       1.978   2.792  18.247  0.00  0.00    +0.000 C 
ATOM     10  N   UNL     1       4.090   4.000  16.754  0.00  0.00    +0.000 NA
ATOM     11  C   UNL     1       5.219   4.649  16.295  0.00  0.00    +0.000 A 
ATOM     12 BR   UNL     1       5.990   4.139  14.635  0.00  0.00    +0.000 Br
ENDROOT
BRANCH   1  14
ATOM     13  N   UNL     1       7.782   7.123  16.726  0.00  0.00    +0.000 NA
ATOM     14  C   UNL     1       6.853   6.450  16.895  0.00  0.00    +0.000 C 
ENDBRANCH   1  14
TORSDOF 1
ENDMDL
MODEL 3
REMARK VINA RESULT:      -5.8      1.523      1.563
REMARK  Name = 
REMARK  1 active torsions:
REMARK  status: ('A' for Active; 'I' for Inactive)
REMARK    1  A    between atoms: C_2  and  C_3
REMARK                            x       y       z     vdW  Elec       q    Type
REMARK                         _______ _______ _______ _____ _____    ______ ____
ROOT
ATOM      1  C   UNL     1       6.252   6.137  18.001  0.00  0.00    +0.000 A 
ATOM      2  S   UNL     1       4.714   5.686  17.426  0.00  0.00    +0.000 S 
ATOM      3  C   UNL     1       4.623   4.417  18.606  0.00  0.00    +0.000 A 
ATOM      4  N   UNL     1       3.537   3.607  18.728  0.00  0.00    +0.000 N 
ATOM      5  C   UNL     1       2.674   3.260  17.607  0.00  0.00    +0.000 C 
ATOM      6  C   UNL     1       1.225   3.502  18.020  0.00  0.00    +0.000 C 
ATOM      7  C   UNL     1       0.882   2.722  19.290  0.00  0.00    +0.000 C 
ATOM      8  C   UNL     1       1.895   2.986  20.408  0.00  0.00    +0.000 C 
ATOM      9  C   UNL     1       3.342   2.807  19.933  0.00  0.00    +0.000 C 
ATOM     10  N   UNL     1       5.673   4.365  19.399  0.00  0.00    +0.000 NA
ATOM     11  C   UNL     1       6.608   5.316  19.044  0.00  0.00    +0.000 A 
ATOM     12 BR   UNL     1       8.254   5.418  19.987  0.00  0.00    +0.000 Br
ENDROOT
BRANCH   1  14
ATOM     13  N   UNL     1       7.642   8.068  17.002  0.00  0.00    +0.000 NA
ATOM     14  C   UNL     1       7.009   7.204  17.448  0.00  0.00    +0.000 C 
ENDBRANCH   1  14
TORSDOF 1
ENDMDL
MODEL 4
REMARK VINA RESULT:      -5.4      1.692      1.854
REMARK  Name = 
REMARK  1 active torsions:
REMARK  status: ('A' for Active; 'I' for Inactive)
REMARK    1  A    between atoms: C_2  and  C_3
REMARK                            x       y       z     vdW  Elec       q    Type
REMARK                         _______ _______ _______ _____ _____    ______ ____
ROOT
ATOM      1  C   UNL     1       5.710   6.066  17.958  0.00  0.00    +0.000 A 
ATOM      2  S   UNL     1       4.047   6.008  18.323  0.00  0.00    +0.000 S 
ATOM      3  C   UNL     1       4.219   4.396  18.942  0.00  0.00    +0.000 A 
ATOM      4  N   UNL     1       3.176   3.700  19.472  0.00  0.00    +0.000 N 
ATOM      5  C   UNL     1       1.796   3.890  19.046  0.00  0.00    +0.000 C 
ATOM      6  C   UNL     1       0.930   4.080  20.287  0.00  0.00    +0.000 C 
ATOM      7  C   UNL     1       1.093   2.904  21.252  0.00  0.00    +0.000 C 
ATOM      8  C   UNL     1       2.566   2.628  21.565  0.00  0.00    +0.000 C 
ATOM      9  C   UNL     1       3.417   2.519  20.294  0.00  0.00    +0.000 C 
ATOM     10  N   UNL     1       5.457   3.951  18.902  0.00  0.00    +0.000 NA
ATOM     11  C   UNL     1       6.298   4.880  18.322  0.00  0.00    +0.000 A 
ATOM     12 BR   UNL     1       8.137   4.466  18.082  0.00  0.00    +0.000 Br
ENDROOT
BRANCH   1  14
ATOM     13  N   UNL     1       6.865   8.103  16.874  0.00  0.00    +0.000 NA
ATOM     14  C   UNL     1       6.339   7.193  17.365  0.00  0.00    +0.000 C 
ENDBRANCH   1  14
TORSDOF 1
ENDMDL
MODEL 5
REMARK VINA RESULT:      -5.3      2.722      5.664
REMARK  Name = 
REMARK  1 active torsions:
REMARK  status: ('A' for Active; 'I' for Inactive)
REMARK    1  A    between atoms: C_2  and  C_3
REMARK                            x       y       z     vdW  Elec       q    Type
REMARK                         _______ _______ _______ _____ _____    ______ ____
ROOT
ATOM      1  C   UNL     1       2.667   4.044  20.151  0.00  0.00    +0.000 A 
ATOM      2  S   UNL     1       3.655   3.327  18.964  0.00  0.00    +0.000 S 
ATOM      3  C   UNL     1       3.870   4.864  18.187  0.00  0.00    +0.000 A 
ATOM      4  N   UNL     1       4.649   5.024  17.083  0.00  0.00    +0.000 N 
ATOM      5  C   UNL     1       4.855   3.973  16.096  0.00  0.00    +0.000 C 
ATOM      6  C   UNL     1       6.353   3.838  15.840  0.00  0.00    +0.000 C 
ATOM      7  C   UNL     1       6.957   5.176  15.410  0.00  0.00    +0.000 C 
ATOM      8  C   UNL     1       6.596   6.300  16.385  0.00  0.00    +0.000 C 
ATOM      9  C   UNL     1       5.092   6.354  16.676  0.00  0.00    +0.000 C 
ATOM     10  N   UNL     1       3.259   5.852  18.807  0.00  0.00    +0.000 NA
ATOM     11  C   UNL     1       2.556   5.390  19.901  0.00  0.00    +0.000 A 
ATOM     12 BR   UNL     1       1.528   6.602  20.942  0.00  0.00    +0.000 Br
ENDROOT
BRANCH   1  14
ATOM     13  N   UNL     1       1.568   2.713  22.069  0.00  0.00    +0.000 NA
ATOM     14  C   UNL     1       2.069   3.312  21.212  0.00  0.00    +0.000 C 
ENDBRANCH   1  14
TORSDOF 1
ENDMDL
MODEL 6
REMARK VINA RESULT:      -5.2      2.501      5.576
REMARK  Name = 
REMARK  1 active torsions:
REMARK  status: ('A' for Active; 'I' for Inactive)
REMARK    1  A    between atoms: C_2  and  C_3
REMARK                            x       y       z     vdW  Elec       q    Type
REMARK                         _______ _______ _______ _____ _____    ______ ____
ROOT
ATOM      1  C   UNL     1       2.185   3.351  18.846  0.00  0.00    +0.000 A 
ATOM      2  S   UNL     1       2.958   4.264  17.634  0.00  0.00    +0.000 S 
ATOM      3  C   UNL     1       4.145   4.811  18.775  0.00  0.00    +0.000 A 
ATOM      4  N   UNL     1       5.176   5.628  18.425  0.00  0.00    +0.000 N 
ATOM      5  C   UNL     1       5.086   6.602  17.346  0.00  0.00    +0.000 C 
ATOM      6  C   UNL     1       6.301   6.430  16.439  0.00  0.00    +0.000 C 
ATOM      7  C   UNL     1       7.600   6.553  17.237  0.00  0.00    +0.000 C 
ATOM      8  C   UNL     1       7.606   5.628  18.457  0.00  0.00    +0.000 C 
ATOM      9  C   UNL     1       6.334   5.775  19.301  0.00  0.00    +0.000 C 
ATOM     10  N   UNL     1       3.981   4.308  19.981  0.00  0.00    +0.000 NA
ATOM     11  C   UNL     1       2.860   3.505  20.033  0.00  0.00    +0.000 A 
ATOM     12 BR   UNL     1       2.352   2.700  21.677  0.00  0.00    +0.000 Br
ENDROOT
BRANCH   1  14
ATOM     13  N   UNL     1       0.062   1.946  18.431  0.00  0.00    +0.000 NA
ATOM     14  C   UNL     1       1.021   2.572  18.611  0.00  0.00    +0.000 C 
ENDBRANCH   1  14
TORSDOF 1
ENDMDL
MODEL 7
REMARK VINA RESULT:      -5.2      3.908      4.570
REMARK  Name = 
REMARK  1 active torsions:
REMARK  status: ('A' for Active; 'I' for Inactive)
REMARK    1  A    between atoms: C_2  and  C_3
REMARK                            x       y       z     vdW  Elec       q    Type
REMARK                         _______ _______ _______ _____ _____    ______ ____
ROOT
ATOM      1  C   UNL     1       2.301   8.011  18.713  0.00  0.00    +0.000 A 
ATOM      2  S   UNL     1       3.062   6.728  17.891  0.00  0.00    +0.000 S 
ATOM      3  C   UNL     1       2.796   5.677  19.246  0.00  0.00    +0.000 A 
ATOM      4  N   UNL     1       3.170   4.369  19.243  0.00  0.00    +0.000 N 
ATOM      5  C   UNL     1       4.311   3.871  18.486  0.00  0.00    +0.000 C 
ATOM      6  C   UNL     1       3.863   2.653  17.684  0.00  0.00    +0.000 C 
ATOM      7  C   UNL     1       3.254   1.590  18.599  0.00  0.00    +0.000 C 
ATOM      8  C   UNL     1       2.160   2.174  19.496  0.00  0.00    +0.000 C 
ATOM      9  C   UNL     1       2.623   3.440  20.226  0.00  0.00    +0.000 C 
ATOM     10  N   UNL     1       2.147   6.255  20.235  0.00  0.00    +0.000 NA
ATOM     11  C   UNL     1       1.889   7.581  19.951  0.00  0.00    +0.000 A 
ATOM     12 BR   UNL     1       1.017   8.670  21.240  0.00  0.00    +0.000 Br
ENDROOT
BRANCH   1  14
ATOM     13  N   UNL     1       2.021  10.377  17.721  0.00  0.00    +0.000 NA
ATOM     14  C   UNL     1       2.148   9.310  18.158  0.00  0.00    +0.000 C 
ENDBRANCH   1  14
TORSDOF 1
ENDMDL
MODEL 8
REMARK VINA RESULT:      -5.1      2.087      2.518
REMARK  Name = 
REMARK  1 active torsions:
REMARK  status: ('A' for Active; 'I' for Inactive)
REMARK    1  A    between atoms: C_2  and  C_3
REMARK                            x       y       z     vdW  Elec       q    Type
REMARK                         _______ _______ _______ _____ _____    ______ ____
ROOT
ATOM      1  C   UNL     1       6.083   4.315  17.622  0.00  0.00    +0.000 A 
ATOM      2  S   UNL     1       5.209   4.260  19.082  0.00  0.00    +0.000 S 
ATOM      3  C   UNL     1       3.711   4.222  18.207  0.00  0.00    +0.000 A 
ATOM      4  N   UNL     1       2.503   4.139  18.827  0.00  0.00    +0.000 N 
ATOM      5  C   UNL     1       2.251   4.684  20.154  0.00  0.00    +0.000 C 
ATOM      6  C   UNL     1       1.576   3.607  20.998  0.00  0.00    +0.000 C 
ATOM      7  C   UNL     1       0.303   3.099  20.319  0.00  0.00    +0.000 C 
ATOM      8  C   UNL     1       0.564   2.674  18.871  0.00  0.00    +0.000 C 
ATOM      9  C   UNL     1       1.312   3.753  18.077  0.00  0.00    +0.000 C 
ATOM     10  N   UNL     1       3.870   4.219  16.900  0.00  0.00    +0.000 NA
ATOM     11  C   UNL     1       5.207   4.299  16.564  0.00  0.00    +0.000 A 
ATOM     12 BR   UNL     1       5.716   4.376  14.735  0.00  0.00    +0.000 Br
ENDROOT
BRANCH   1  14
ATOM     13  N   UNL     1       8.658   4.436  17.511  0.00  0.00    +0.000 NA
ATOM     14  C   UNL     1       7.502   4.372  17.564  0.00  0.00    +0.000 C 
ENDBRANCH   1  14
TORSDOF 1
ENDMDL
MODEL 9
REMARK VINA RESULT:      -5.0      4.063      5.120
REMARK  Name = 
REMARK  1 active torsions:
REMARK  status: ('A' for Active; 'I' for Inactive)
REMARK    1  A    between atoms: C_2  and  C_3
REMARK                            x       y       z     vdW  Elec       q    Type
REMARK                         _______ _______ _______ _____ _____    ______ ____
ROOT
ATOM      1  C   UNL     1       3.207   4.177  18.549  0.00  0.00    +0.000 A 
ATOM      2  S   UNL     1       2.239   5.109  19.596  0.00  0.00    +0.000 S 
ATOM      3  C   UNL     1       2.686   6.558  18.751  0.00  0.00    +0.000 A 
ATOM      4  N   UNL     1       2.196   7.782  19.087  0.00  0.00    +0.000 N 
ATOM      5  C   UNL     1       1.809   8.138  20.445  0.00  0.00    +0.000 C 
ATOM      6  C   UNL     1       0.416   8.759  20.402  0.00  0.00    +0.000 C 
ATOM      7  C   UNL     1       0.379   9.953  19.447  0.00  0.00    +0.000 C 
ATOM      8  C   UNL     1       0.936   9.592  18.067  0.00  0.00    +0.000 C 
ATOM      9  C   UNL     1       2.302   8.901  18.157  0.00  0.00    +0.000 C 
ATOM     10  N   UNL     1       3.486   6.339  17.729  0.00  0.00    +0.000 NA
ATOM     11  C   UNL     1       3.805   5.000  17.627  0.00  0.00    +0.000 A 
ATOM     12 BR   UNL     1       5.001   4.416  16.271  0.00  0.00    +0.000 Br
ENDROOT
BRANCH   1  14
ATOM     13  N   UNL     1       3.461   1.618  18.767  0.00  0.00    +0.000 NA
ATOM     14  C   UNL     1       3.341   2.767  18.661  0.00  0.00    +0.000 C 
ENDBRANCH   1  14
TORSDOF 1
ENDMDL
