MODEL 1
REMARK VINA RESULT:      -6.8      0.000      0.000
REMARK  Name = 
REMARK  7 active torsions:
REMARK  status: ('A' for Active; 'I' for Inactive)
REMARK    1  A    between atoms: C_2  and  C_3
REMARK    2  A    between atoms: C_3  and  N_4
REMARK    3  A    between atoms: N_4  and  C_5
REMARK    4  A    between atoms: C_12  and  O_13
REMARK    5  A    between atoms: O_13  and  C_14
REMARK    6  A    between atoms: C_16  and  C_17
REMARK    7  A    between atoms: C_17  and  O_18
REMARK                            x       y       z     vdW  Elec       q    Type
REMARK                         _______ _______ _______ _____ _____    ______ ____
ROOT
ATOM      1  C   UNL     1       6.035   5.069  15.903  0.00  0.00    +0.000 C 
ATOM      2  C   UNL     1       5.805   6.586  15.907  0.00  0.00    +0.000 C 
ATOM      3  C   UNL     1       4.421   6.908  16.451  0.00  0.00    +0.000 C 
ATOM      4  C   UNL     1       4.086   6.189  17.731  0.00  0.00    +0.000 A 
ATOM      5  C   UNL     1       3.013   6.688  18.491  0.00  0.00    +0.000 A 
ATOM      6  C   UNL     1       2.592   6.037  19.644  0.00  0.00    +0.000 A 
ATOM      7  C   UNL     1       3.221   4.864  20.041  0.00  0.00    +0.000 A 
ATOM      8  C   UNL     1       4.305   4.359  19.313  0.00  0.00    +0.000 A 
ATOM      9  C   UNL     1       4.756   5.016  18.141  0.00  0.00    +0.000 A 
ATOM     10  C   UNL     1       5.993   4.519  17.369  0.00  0.00    +0.000 C 
ENDROOT
BRANCH   1  11
ATOM     11  N   UNL     1       7.283   4.803  15.156  0.00  0.00    +0.000 NA
ATOM     12  H   UNL     1       7.960   5.541  15.357  0.00  0.00    +0.000 HD
BRANCH  11  13
ATOM     13  C   UNL     1       7.082   4.749  13.712  0.00  0.00    +0.000 C 
BRANCH  13  15
ATOM     14  C   UNL     1       5.805   3.235  12.177  0.00  0.00    +0.000 C 
ATOM     15  C   UNL     1       5.977   3.799  13.381  0.00  0.00    +0.000 C 
ENDBRANCH  13  15
ENDBRANCH  11  13
ENDBRANCH   1  11
BRANCH   8  16
ATOM     16  O   UNL     1       4.965   3.210  19.681  0.00  0.00    +0.000 OA
ATOM     17  C   UNL     1       4.156   2.037  19.806  0.00  0.00    +0.000 C 
ENDBRANCH   8  16
BRANCH  10  18
ATOM     18  C   UNL     1       7.287   4.887  18.146  0.00  0.00    +0.000 C 
BRANCH  18  19
ATOM     19  O   UNL     1       8.396   4.051  17.812  0.00  0.00    +0.000 OA
ATOM     20  H   UNL     1       8.375   3.936  16.846  0.00  0.00    +0.000 HD
ENDBRANCH  18  19
ENDBRANCH  10  18
TORSDOF 6
ENDMDL
MODEL 2
REMARK VINA RESULT:      -6.6      1.650      2.155
REMARK  Name = 
REMARK  7 active torsions:
REMARK  status: ('A' for Active; 'I' for Inactive)
REMARK    1  A    between atoms: C_2  and  C_3
REMARK    2  A    between atoms: C_3  and  N_4
REMARK    3  A    between atoms: N_4  and  C_5
REMARK    4  A    between atoms: C_12  and  O_13
REMARK    5  A    between atoms: O_13  and  C_14
REMARK    6  A    between atoms: C_16  and  C_17
REMARK    7  A    between atoms: C_17  and  O_18
REMARK                            x       y       z     vdW  Elec       q    Type
REMARK                         _______ _______ _______ _____ _____    ______ ____
ROOT
ATOM      1  C   UNL     1       4.535   4.582  16.840  0.00  0.00    +0.000 C 
ATOM      2  C   UNL     1       5.115   5.994  16.986  0.00  0.00    +0.000 C 
ATOM      3  C   UNL     1       4.033   6.964  17.437  0.00  0.00    +0.000 C 
ATOM      4  C   UNL     1       3.213   6.466  18.598  0.00  0.00    +0.000 A 
ATOM      5  C   UNL     1       2.457   7.415  19.310  0.00  0.00    +0.000 A 
ATOM      6  C   UNL     1       1.617   7.026  20.345  0.00  0.00    +0.000 A 
ATOM      7  C   UNL     1       1.499   5.680  20.668  0.00  0.00    +0.000 A 
ATOM      8  C   UNL     1       2.257   4.719  19.989  0.00  0.00    +0.000 A 
ATOM      9  C   UNL     1       3.129   5.098  18.938  0.00  0.00    +0.000 A 
ATOM     10  C   UNL     1       4.027   4.067  18.229  0.00  0.00    +0.000 C 
ENDROOT
BRANCH   1  11
ATOM     11  N   UNL     1       5.557   3.739  16.182  0.00  0.00    +0.000 NA
ATOM     12  H   UNL     1       5.887   3.032  16.841  0.00  0.00    +0.000 HD
BRANCH  11  13
ATOM     13  C   UNL     1       6.711   4.502  15.718  0.00  0.00    +0.000 C 
BRANCH  13  15
ATOM     14  C   UNL     1       6.106   3.749  13.405  0.00  0.00    +0.000 C 
ATOM     15  C   UNL     1       6.673   4.641  14.230  0.00  0.00    +0.000 C 
ENDBRANCH  13  15
ENDBRANCH  11  13
ENDBRANCH   1  11
BRANCH   8  16
ATOM     16  O   UNL     1       2.183   3.379  20.288  0.00  0.00    +0.000 OA
ATOM     17  C   UNL     1       2.068   3.054  21.677  0.00  0.00    +0.000 C 
ENDBRANCH   8  16
BRANCH  10  18
ATOM     18  C   UNL     1       5.213   3.672  19.152  0.00  0.00    +0.000 C 
BRANCH  18  19
ATOM     19  O   UNL     1       5.052   2.384  19.748  0.00  0.00    +0.000 OA
ATOM     20  H   UNL     1       5.484   2.425  20.618  0.00  0.00    +0.000 HD
ENDBRANCH  18  19
ENDBRANCH  10  18
TORSDOF 6
ENDMDL
MODEL 3
REMARK VINA RESULT:      -6.4      1.354      2.045
REMARK  Name = 
REMARK  7 active torsions:
REMARK  status: ('A' for Active; 'I' for Inactive)
REMARK    1  A    between atoms: C_2  and  C_3
REMARK    2  A    between atoms: C_3  and  N_4
REMARK    3  A    between atoms: N_4  and  C_5
REMARK    4  A    between atoms: C_12  and  O_13
REMARK    5  A    between atoms: O_13  and  C_14
REMARK    6  A    between atoms: C_16  and  C_17
REMARK    7  A    between atoms: C_17  and  O_18
REMARK                            x       y       z     vdW  Elec       q    Type
REMARK                         _______ _______ _______ _____ _____    ______ ____
ROOT
ATOM      1  C   UNL     1       4.658   5.477  17.145  0.00  0.00    +0.000 C 
ATOM      2  C   UNL     1       3.800   6.648  17.641  0.00  0.00    +0.000 C 
ATOM      3  C   UNL     1       2.493   6.132  18.225  0.00  0.00    +0.000 C 
ATOM      4  C   UNL     1       2.664   4.987  19.188  0.00  0.00    +0.000 A 
ATOM      5  C   UNL     1       1.586   4.695  20.042  0.00  0.00    +0.000 A 
ATOM      6  C   UNL     1       1.636   3.608  20.906  0.00  0.00    +0.000 A 
ATOM      7  C   UNL     1       2.754   2.783  20.912  0.00  0.00    +0.000 A 
ATOM      8  C   UNL     1       3.848   3.066  20.087  0.00  0.00    +0.000 A 
ATOM      9  C   UNL     1       3.821   4.177  19.208  0.00  0.00    +0.000 A 
ATOM     10  C   UNL     1       5.043   4.550  18.347  0.00  0.00    +0.000 C 
ENDROOT
BRANCH   1  11
ATOM     11  N   UNL     1       5.795   6.041  16.384  0.00  0.00    +0.000 NA
ATOM     12  H   UNL     1       5.448   6.750  15.736  0.00  0.00    +0.000 HD
BRANCH  11  13
ATOM     13  C   UNL     1       6.518   5.036  15.614  0.00  0.00    +0.000 C 
BRANCH  13  15
ATOM     14  C   UNL     1       6.096   3.820  13.463  0.00  0.00    +0.000 C 
ATOM     15  C   UNL     1       5.642   4.485  14.534  0.00  0.00    +0.000 C 
ENDBRANCH  13  15
ENDBRANCH  11  13
ENDBRANCH   1  11
BRANCH   8  16
ATOM     16  O   UNL     1       4.980   2.285  20.073  0.00  0.00    +0.000 OA
ATOM     17  C   UNL     1       5.045   1.262  21.071  0.00  0.00    +0.000 C 
ENDBRANCH   8  16
BRANCH  10  18
ATOM     18  C   UNL     1       6.138   5.203  19.235  0.00  0.00    +0.000 C 
BRANCH  18  19
ATOM     19  O   UNL     1       7.462   4.812  18.867  0.00  0.00    +0.000 OA
ATOM     20  H   UNL     1       8.062   5.478  19.241  0.00  0.00    +0.000 HD
ENDBRANCH  18  19
ENDBRANCH  10  18
TORSDOF 6
ENDMDL
MODEL 4
REMARK VINA RESULT:      -6.3      1.185      1.297
REMARK  Name = 
REMARK  7 active torsions:
REMARK  status: ('A' for Active; 'I' for Inactive)
REMARK    1  A    between atoms: C_2  and  C_3
REMARK    2  A    between atoms: C_3  and  N_4
REMARK    3  A    between atoms: N_4  and  C_5
REMARK    4  A    between atoms: C_12  and  O_13
REMARK    5  A    between atoms: O_13  and  C_14
REMARK    6  A    between atoms: C_16  and  C_17
REMARK    7  A    between atoms: C_17  and  O_18
REMARK                            x       y       z     vdW  Elec       q    Type
REMARK                         _______ _______ _______ _____ _____    ______ ____
ROOT
ATOM      1  C   UNL     1       5.185   5.657  16.408  0.00  0.00    +0.000 C 
ATOM      2  C   UNL     1       5.018   7.073  16.974  0.00  0.00    +0.000 C 
ATOM      3  C   UNL     1       3.683   7.198  17.693  0.00  0.00    +0.000 C 
ATOM      4  C   UNL     1       3.395   6.070  18.648  0.00  0.00    +0.000 A 
ATOM      5  C   UNL     1       2.391   6.278  19.610  0.00  0.00    +0.000 A 
ATOM      6  C   UNL     1       2.014   5.261  20.478  0.00  0.00    +0.000 A 
ATOM      7  C   UNL     1       2.617   4.013  20.381  0.00  0.00    +0.000 A 
ATOM      8  C   UNL     1       3.634   3.788  19.446  0.00  0.00    +0.000 A 
ATOM      9  C   UNL     1       4.041   4.817  18.561  0.00  0.00    +0.000 A 
ATOM     10  C   UNL     1       5.208   4.614  17.576  0.00  0.00    +0.000 C 
ENDROOT
BRANCH   1  11
ATOM     11  N   UNL     1       6.375   5.659  15.529  0.00  0.00    +0.000 NA
ATOM     12  H   UNL     1       6.222   6.309  14.757  0.00  0.00    +0.000 HD
BRANCH  11  13
ATOM     13  C   UNL     1       6.669   4.345  14.967  0.00  0.00    +0.000 C 
BRANCH  13  15
ATOM     14  C   UNL     1       6.138   3.511  12.664  0.00  0.00    +0.000 C 
ATOM     15  C   UNL     1       5.748   4.055  13.825  0.00  0.00    +0.000 C 
ENDBRANCH  13  15
ENDBRANCH  11  13
ENDBRANCH   1  11
BRANCH   8  16
ATOM     16  O   UNL     1       4.268   2.574  19.328  0.00  0.00    +0.000 OA
ATOM     17  C   UNL     1       3.586   1.586  18.549  0.00  0.00    +0.000 C 
ENDBRANCH   8  16
BRANCH  10  18
ATOM     18  C   UNL     1       6.561   4.654  18.341  0.00  0.00    +0.000 C 
BRANCH  18  19
ATOM     19  O   UNL     1       6.443   5.202  19.654  0.00  0.00    +0.000 OA
ATOM     20  H   UNL     1       7.046   4.692  20.222  0.00  0.00    +0.000 HD
ENDBRANCH  18  19
ENDBRANCH  10  18
TORSDOF 6
ENDMDL
MODEL 5
REMARK VINA RESULT:      -6.3      2.497      5.372
REMARK  Name = 
REMARK  7 active torsions:
REMARK  status: ('A' for Active; 'I' for Inactive)
REMARK    1  A    between atoms: C_2  and  C_3
REMARK    2  A    between atoms: C_3  and  N_4
REMARK    3  A    between atoms: N_4  and  C_5
REMARK    4  A    between atoms: C_12  and  O_13
REMARK    5  A    between atoms: O_13  and  C_14
REMARK    6  A    between atoms: C_16  and  C_17
REMARK    7  A    between atoms: C_17  and  O_18
REMARK                            x       y       z     vdW  Elec       q    Type
REMARK                         _______ _______ _______ _____ _____    ______ ____
ROOT
ATOM      1  C   UNL     1       3.252   5.660  19.849  0.00  0.00    +0.000 C 
ATOM      2  C   UNL     1       2.308   5.807  18.648  0.00  0.00    +0.000 C 
ATOM      3  C   UNL     1       2.962   6.653  17.566  0.00  0.00    +0.000 C 
ATOM      4  C   UNL     1       4.377   6.248  17.245  0.00  0.00    +0.000 A 
ATOM      5  C   UNL     1       4.923   6.710  16.035  0.00  0.00    +0.000 A 
ATOM      6  C   UNL     1       6.244   6.444  15.701  0.00  0.00    +0.000 A 
ATOM      7  C   UNL     1       7.048   5.733  16.584  0.00  0.00    +0.000 A 
ATOM      8  C   UNL     1       6.522   5.244  17.785  0.00  0.00    +0.000 A 
ATOM      9  C   UNL     1       5.172   5.495  18.136  0.00  0.00    +0.000 A 
ATOM     10  C   UNL     1       4.553   4.902  19.417  0.00  0.00    +0.000 C 
ENDROOT
BRANCH   1  11
ATOM     11  N   UNL     1       2.487   5.037  20.951  0.00  0.00    +0.000 NA
ATOM     12  H   UNL     1       3.027   4.263  21.341  0.00  0.00    +0.000 HD
BRANCH  11  13
ATOM     13  C   UNL     1       1.192   4.518  20.524  0.00  0.00    +0.000 C 
BRANCH  13  15
ATOM     14  C   UNL     1       1.887   2.458  21.771  0.00  0.00    +0.000 C 
ATOM     15  C   UNL     1       1.048   3.088  20.937  0.00  0.00    +0.000 C 
ENDBRANCH  13  15
ENDBRANCH  11  13
ENDBRANCH   1  11
BRANCH   8  16
ATOM     16  O   UNL     1       7.277   4.522  18.679  0.00  0.00    +0.000 OA
ATOM     17  C   UNL     1       8.078   5.289  19.583  0.00  0.00    +0.000 C 
ENDBRANCH   8  16
BRANCH  10  18
ATOM     18  C   UNL     1       4.283   3.384  19.222  0.00  0.00    +0.000 C 
BRANCH  18  19
ATOM     19  O   UNL     1       5.229   2.557  19.900  0.00  0.00    +0.000 OA
ATOM     20  H   UNL     1       5.854   2.241  19.226  0.00  0.00    +0.000 HD
ENDBRANCH  18  19
ENDBRANCH  10  18
TORSDOF 6
ENDMDL
MODEL 6
REMARK VINA RESULT:      -6.3      2.425      3.287
REMARK  Name = 
REMARK  7 active torsions:
REMARK  status: ('A' for Active; 'I' for Inactive)
REMARK    1  A    between atoms: C_2  and  C_3
REMARK    2  A    between atoms: C_3  and  N_4
REMARK    3  A    between atoms: N_4  and  C_5
REMARK    4  A    between atoms: C_12  and  O_13
REMARK    5  A    between atoms: O_13  and  C_14
REMARK    6  A    between atoms: C_16  and  C_17
REMARK    7  A    between atoms: C_17  and  O_18
REMARK                            x       y       z     vdW  Elec       q    Type
REMARK                         _______ _______ _______ _____ _____    ______ ____
ROOT
ATOM      1  C   UNL     1       4.321   5.599  17.244  0.00  0.00    +0.000 C 
ATOM      2  C   UNL     1       3.743   6.797  18.007  0.00  0.00    +0.000 C 
ATOM      3  C   UNL     1       2.386   6.441  18.596  0.00  0.00    +0.000 C 
ATOM      4  C   UNL     1       2.363   5.124  19.326  0.00  0.00    +0.000 A 
ATOM      5  C   UNL     1       1.288   4.888  20.200  0.00  0.00    +0.000 A 
ATOM      6  C   UNL     1       1.154   3.669  20.853  0.00  0.00    +0.000 A 
ATOM      7  C   UNL     1       2.080   2.658  20.622  0.00  0.00    +0.000 A 
ATOM      8  C   UNL     1       3.171   2.877  19.772  0.00  0.00    +0.000 A 
ATOM      9  C   UNL     1       3.330   4.118  19.108  0.00  0.00    +0.000 A 
ATOM     10  C   UNL     1       4.562   4.405  18.229  0.00  0.00    +0.000 C 
ENDROOT
BRANCH   1  11
ATOM     11  N   UNL     1       5.513   6.067  16.504  0.00  0.00    +0.000 NA
ATOM     12  H   UNL     1       6.282   5.411  16.653  0.00  0.00    +0.000 HD
BRANCH  11  13
ATOM     13  C   UNL     1       5.958   7.392  16.920  0.00  0.00    +0.000 C 
BRANCH  13  15
ATOM     14  C   UNL     1       8.069   8.396  17.825  0.00  0.00    +0.000 C 
ATOM     15  C   UNL     1       7.394   7.347  17.335  0.00  0.00    +0.000 C 
ENDBRANCH  13  15
ENDBRANCH  11  13
ENDBRANCH   1  11
BRANCH   8  16
ATOM     16  O   UNL     1       4.118   1.910  19.529  0.00  0.00    +0.000 OA
ATOM     17  C   UNL     1       3.851   1.037  18.427  0.00  0.00    +0.000 C 
ENDBRANCH   8  16
BRANCH  10  18
ATOM     18  C   UNL     1       5.807   4.656  19.125  0.00  0.00    +0.000 C 
BRANCH  18  19
ATOM     19  O   UNL     1       7.019   4.170  18.545  0.00  0.00    +0.000 OA
ATOM     20  H   UNL     1       6.993   3.201  18.621  0.00  0.00    +0.000 HD
ENDBRANCH  18  19
ENDBRANCH  10  18
TORSDOF 6
ENDMDL
MODEL 7
REMARK VINA RESULT:      -6.3      2.362      5.584
REMARK  Name = 
REMARK  7 active torsions:
REMARK  status: ('A' for Active; 'I' for Inactive)
REMARK    1  A    between atoms: C_2  and  C_3
REMARK    2  A    between atoms: C_3  and  N_4
REMARK    3  A    between atoms: N_4  and  C_5
REMARK    4  A    between atoms: C_12  and  O_13
REMARK    5  A    between atoms: O_13  and  C_14
REMARK    6  A    between atoms: C_16  and  C_17
REMARK    7  A    between atoms: C_17  and  O_18
REMARK                            x       y       z     vdW  Elec       q    Type
REMARK                         _______ _______ _______ _____ _____    ______ ____
ROOT
ATOM      1  C   UNL     1       3.702   5.440  18.733  0.00  0.00    +0.000 C 
ATOM      2  C   UNL     1       3.213   4.084  18.208  0.00  0.00    +0.000 C 
ATOM      3  C   UNL     1       3.464   3.979  16.711  0.00  0.00    +0.000 C 
ATOM      4  C   UNL     1       4.854   4.382  16.294  0.00  0.00    +0.000 A 
ATOM      5  C   UNL     1       5.291   3.975  15.021  0.00  0.00    +0.000 A 
ATOM      6  C   UNL     1       6.530   4.371  14.533  0.00  0.00    +0.000 A 
ATOM      7  C   UNL     1       7.340   5.199  15.300  0.00  0.00    +0.000 A 
ATOM      8  C   UNL     1       6.936   5.600  16.578  0.00  0.00    +0.000 A 
ATOM      9  C   UNL     1       5.681   5.196  17.098  0.00  0.00    +0.000 A 
ATOM     10  C   UNL     1       5.251   5.564  18.531  0.00  0.00    +0.000 C 
ENDROOT
BRANCH   1  11
ATOM     11  N   UNL     1       3.227   5.583  20.126  0.00  0.00    +0.000 NA
ATOM     12  H   UNL     1       3.936   5.217  20.764  0.00  0.00    +0.000 HD
BRANCH  11  13
ATOM     13  C   UNL     1       1.978   4.873  20.377  0.00  0.00    +0.000 C 
BRANCH  13  15
ATOM     14  C   UNL     1       1.514   2.707  21.550  0.00  0.00    +0.000 C 
ATOM     15  C   UNL     1       2.164   3.876  21.477  0.00  0.00    +0.000 C 
ENDBRANCH  13  15
ENDBRANCH  11  13
ENDBRANCH   1  11
BRANCH   8  16
ATOM     16  O   UNL     1       7.714   6.406  17.376  0.00  0.00    +0.000 OA
ATOM     17  C   UNL     1       7.474   7.812  17.267  0.00  0.00    +0.000 C 
ENDBRANCH   8  16
BRANCH  10  18
ATOM     18  C   UNL     1       6.024   4.691  19.558  0.00  0.00    +0.000 C 
BRANCH  18  19
ATOM     19  O   UNL     1       7.212   5.320  20.043  0.00  0.00    +0.000 OA
ATOM     20  H   UNL     1       7.728   5.577  19.260  0.00  0.00    +0.000 HD
ENDBRANCH  18  19
ENDBRANCH  10  18
TORSDOF 6
ENDMDL
MODEL 8
REMARK VINA RESULT:      -6.1      2.991      6.256
REMARK  Name = 
REMARK  7 active torsions:
REMARK  status: ('A' for Active; 'I' for Inactive)
REMARK    1  A    between atoms: C_2  and  C_3
REMARK    2  A    between atoms: C_3  and  N_4
REMARK    3  A    between atoms: N_4  and  C_5
REMARK    4  A    between atoms: C_12  and  O_13
REMARK    5  A    between atoms: O_13  and  C_14
REMARK    6  A    between atoms: C_16  and  C_17
REMARK    7  A    between atoms: C_17  and  O_18
REMARK                            x       y       z     vdW  Elec       q    Type
REMARK                         _______ _______ _______ _____ _____    ______ ____
ROOT
ATOM      1  C   UNL     1       2.644   6.727  19.818  0.00  0.00    +0.000 C 
ATOM      2  C   UNL     1       2.333   7.625  18.614  0.00  0.00    +0.000 C 
ATOM      3  C   UNL     1       3.509   7.637  17.649  0.00  0.00    +0.000 C 
ATOM      4  C   UNL     1       4.049   6.268  17.326  0.00  0.00    +0.000 A 
ATOM      5  C   UNL     1       4.867   6.147  16.189  0.00  0.00    +0.000 A 
ATOM      6  C   UNL     1       5.464   4.935  15.867  0.00  0.00    +0.000 A 
ATOM      7  C   UNL     1       5.273   3.832  16.690  0.00  0.00    +0.000 A 
ATOM      8  C   UNL     1       4.446   3.922  17.815  0.00  0.00    +0.000 A 
ATOM      9  C   UNL     1       3.818   5.147  18.153  0.00  0.00    +0.000 A 
ATOM     10  C   UNL     1       2.845   5.248  19.343  0.00  0.00    +0.000 C 
ENDROOT
BRANCH   1  11
ATOM     11  N   UNL     1       1.580   6.936  20.824  0.00  0.00    +0.000 NA
ATOM     12  H   UNL     1       0.723   6.479  20.508  0.00  0.00    +0.000 HD
BRANCH  11  13
ATOM     13  C   UNL     1       1.285   8.345  21.057  0.00  0.00    +0.000 C 
BRANCH  13  15
ATOM     14  C   UNL     1      -0.379   9.340  22.645  0.00  0.00    +0.000 C 
ATOM     15  C   UNL     1      -0.080   8.495  21.649  0.00  0.00    +0.000 C 
ENDBRANCH  13  15
ENDBRANCH  11  13
ENDBRANCH   1  11
BRANCH   8  16
ATOM     16  O   UNL     1       4.218   2.851  18.647  0.00  0.00    +0.000 OA
ATOM     17  C   UNL     1       3.504   1.754  18.070  0.00  0.00    +0.000 C 
ENDBRANCH   8  16
BRANCH  10  18
ATOM     18  C   UNL     1       1.489   4.584  18.978  0.00  0.00    +0.000 C 
BRANCH  18  19
ATOM     19  O   UNL     1       0.806   4.049  20.113  0.00  0.00    +0.000 OA
ATOM     20  H   UNL     1       1.189   3.171  20.279  0.00  0.00    +0.000 HD
ENDBRANCH  18  19
ENDBRANCH  10  18
TORSDOF 6
ENDMDL
MODEL 9
REMARK VINA RESULT:      -6.1      2.813      4.254
REMARK  Name = 
REMARK  7 active torsions:
REMARK  status: ('A' for Active; 'I' for Inactive)
REMARK    1  A    between atoms: C_2  and  C_3
REMARK    2  A    between atoms: C_3  and  N_4
REMARK    3  A    between atoms: N_4  and  C_5
REMARK    4  A    between atoms: C_12  and  O_13
REMARK    5  A    between atoms: O_13  and  C_14
REMARK    6  A    between atoms: C_16  and  C_17
REMARK    7  A    between atoms: C_17  and  O_18
REMARK                            x       y       z     vdW  Elec       q    Type
REMARK                         _______ _______ _______ _____ _____    ______ ____
ROOT
ATOM      1  C   UNL     1       5.365   4.712  17.790  0.00  0.00    +0.000 C 
ATOM      2  C   UNL     1       4.708   3.665  16.881  0.00  0.00    +0.000 C 
ATOM      3  C   UNL     1       3.783   2.771  17.692  0.00  0.00    +0.000 C 
ATOM      4  C   UNL     1       2.853   3.524  18.607  0.00  0.00    +0.000 A 
ATOM      5  C   UNL     1       1.736   2.831  19.106  0.00  0.00    +0.000 A 
ATOM      6  C   UNL     1       0.872   3.430  20.014  0.00  0.00    +0.000 A 
ATOM      7  C   UNL     1       1.127   4.722  20.457  0.00  0.00    +0.000 A 
ATOM      8  C   UNL     1       2.220   5.440  19.960  0.00  0.00    +0.000 A 
ATOM      9  C   UNL     1       3.105   4.849  19.023  0.00  0.00    +0.000 A 
ATOM     10  C   UNL     1       4.269   5.647  18.407  0.00  0.00    +0.000 C 
ENDROOT
BRANCH   1  11
ATOM     11  N   UNL     1       6.419   5.394  17.007  0.00  0.00    +0.000 NA
ATOM     12  H   UNL     1       6.954   4.698  16.485  0.00  0.00    +0.000 HD
BRANCH  11  13
ATOM     13  C   UNL     1       7.347   6.151  17.839  0.00  0.00    +0.000 C 
BRANCH  13  15
ATOM     14  C   UNL     1       8.145   8.523  17.968  0.00  0.00    +0.000 C 
ATOM     15  C   UNL     1       7.432   7.565  17.361  0.00  0.00    +0.000 C 
ENDBRANCH  13  15
ENDBRANCH  11  13
ENDBRANCH   1  11
BRANCH   8  16
ATOM     16  O   UNL     1       2.498   6.726  20.359  0.00  0.00    +0.000 OA
ATOM     17  C   UNL     1       1.381   7.492  20.819  0.00  0.00    +0.000 C 
ENDBRANCH   8  16
BRANCH  10  18
ATOM     18  C   UNL     1       3.726   6.651  17.351  0.00  0.00    +0.000 C 
BRANCH  18  19
ATOM     19  O   UNL     1       3.422   7.932  17.905  0.00  0.00    +0.000 OA
ATOM     20  H   UNL     1       3.834   8.591  17.320  0.00  0.00    +0.000 HD
ENDBRANCH  18  19
ENDBRANCH  10  18
TORSDOF 6
ENDMDL
