MODEL 1
REMARK VINA RESULT:      -7.1      0.000      0.000
REMARK  Name = 
REMARK  6 active torsions:
REMARK  status: ('A' for Active; 'I' for Inactive)
REMARK    1  A    between atoms: C_5  and  C_6
REMARK    2  A    between atoms: N_14  and  C_15
REMARK    3  A    between atoms: C_15  and  C_16
REMARK    4  A    between atoms: C_16  and  C_17
REMARK    5  A    between atoms: C_17  and  C_18
REMARK    6  A    between atoms: C_18  and  O_20
REMARK                            x       y       z     vdW  Elec       q    Type
REMARK                         _______ _______ _______ _____ _____    ______ ____
ROOT
ATOM      1  N   UNL     1       5.144   3.327  16.803  0.00  0.00    +0.000 N 
ATOM      2  C   UNL     1       4.384   4.446  17.225  0.00  0.00    +0.000 A 
ATOM      3  C   UNL     1       4.952   5.708  17.025  0.00  0.00    +0.000 A 
ATOM      4  C   UNL     1       4.278   6.845  17.425  0.00  0.00    +0.000 A 
ATOM      5  C   UNL     1       3.065   6.688  18.069  0.00  0.00    +0.000 A 
ATOM      6  N   UNL     1       2.540   5.468  18.272  0.00  0.00    +0.000 NA
ATOM      7  N   UNL     1       3.165   4.369  17.823  0.00  0.00    +0.000 N 
ATOM      8  H   UNL     1       5.328   3.476  15.796  0.00  0.00    +0.000 HD
ATOM      9  H   UNL     1       4.663   2.439  16.840  0.00  0.00    +0.000 HD
ENDROOT
BRANCH   5  10
ATOM     10  C   UNL     1       2.283   7.832  18.594  0.00  0.00    +0.000 A 
ATOM     11  C   UNL     1       1.969   8.951  17.797  0.00  0.00    +0.000 A 
ATOM     12  C   UNL     1       1.267  10.045  18.317  0.00  0.00    +0.000 A 
ATOM     13  C   UNL     1       0.849  10.035  19.646  0.00  0.00    +0.000 A 
ATOM     14 CL   UNL     1       0.004  11.384  20.289  0.00  0.00    +0.000 Cl
ATOM     15  C   UNL     1       1.124   8.937  20.451  0.00  0.00    +0.000 A 
ATOM     16  C   UNL     1       1.830   7.848  19.928  0.00  0.00    +0.000 A 
ENDBRANCH   5  10
BRANCH   7  17
ATOM     17  C   UNL     1       2.380   3.120  17.878  0.00  0.00    +0.000 C 
BRANCH  17  18
ATOM     18  C   UNL     1       1.184   3.230  18.828  0.00  0.00    +0.000 C 
BRANCH  18  19
ATOM     19  C   UNL     1       1.280   2.432  20.126  0.00  0.00    +0.000 C 
BRANCH  19  20
ATOM     20  C   UNL     1       2.031   3.177  21.198  0.00  0.00    +0.000 C 
ATOM     21  O   UNL     1       2.702   2.619  22.050  0.00  0.00    +0.000 OA
BRANCH  20  22
ATOM     22  O   UNL     1       1.960   4.518  21.097  0.00  0.00    +0.000 OA
ATOM     23  H   UNL     1       1.362   4.862  20.408  0.00  0.00    +0.000 HD
ENDBRANCH  20  22
ENDBRANCH  19  20
ENDBRANCH  18  19
ENDBRANCH  17  18
ENDBRANCH   7  17
TORSDOF 6
ENDMDL
MODEL 2
REMARK VINA RESULT:      -7.1      0.505      1.202
REMARK  Name = 
REMARK  6 active torsions:
REMARK  status: ('A' for Active; 'I' for Inactive)
REMARK    1  A    between atoms: C_5  and  C_6
REMARK    2  A    between atoms: N_14  and  C_15
REMARK    3  A    between atoms: C_15  and  C_16
REMARK    4  A    between atoms: C_16  and  C_17
REMARK    5  A    between atoms: C_17  and  C_18
REMARK    6  A    between atoms: C_18  and  O_20
REMARK                            x       y       z     vdW  Elec       q    Type
REMARK                         _______ _______ _______ _____ _____    ______ ____
ROOT
ATOM      1  N   UNL     1       5.319   3.466  16.753  0.00  0.00    +0.000 N 
ATOM      2  C   UNL     1       4.505   4.537  17.197  0.00  0.00    +0.000 A 
ATOM      3  C   UNL     1       5.037   5.826  17.079  0.00  0.00    +0.000 A 
ATOM      4  C   UNL     1       4.309   6.918  17.506  0.00  0.00    +0.000 A 
ATOM      5  C   UNL     1       3.079   6.692  18.094  0.00  0.00    +0.000 A 
ATOM      6  N   UNL     1       2.588   5.446  18.218  0.00  0.00    +0.000 NA
ATOM      7  N   UNL     1       3.268   4.391  17.742  0.00  0.00    +0.000 N 
ATOM      8  H   UNL     1       5.536   3.670  15.762  0.00  0.00    +0.000 HD
ATOM      9  H   UNL     1       4.868   2.561  16.728  0.00  0.00    +0.000 HD
ENDROOT
BRANCH   5  10
ATOM     10  C   UNL     1       2.239   7.782  18.641  0.00  0.00    +0.000 A 
ATOM     11  C   UNL     1       1.910   7.857  20.009  0.00  0.00    +0.000 A 
ATOM     12  C   UNL     1       1.080   8.868  20.507  0.00  0.00    +0.000 A 
ATOM     13  C   UNL     1       0.572   9.838  19.646  0.00  0.00    +0.000 A 
ATOM     14 CL   UNL     1      -0.462  11.067  20.253  0.00  0.00    +0.000 Cl
ATOM     15  C   UNL     1       0.896   9.805  18.296  0.00  0.00    +0.000 A 
ATOM     16  C   UNL     1       1.723   8.790  17.802  0.00  0.00    +0.000 A 
ENDBRANCH   5  10
BRANCH   7  17
ATOM     17  C   UNL     1       2.525   3.117  17.707  0.00  0.00    +0.000 C 
BRANCH  17  18
ATOM     18  C   UNL     1       2.648   2.339  19.021  0.00  0.00    +0.000 C 
BRANCH  18  19
ATOM     19  C   UNL     1       1.411   2.332  19.916  0.00  0.00    +0.000 C 
BRANCH  19  20
ATOM     20  C   UNL     1       1.503   3.351  21.021  0.00  0.00    +0.000 C 
ATOM     21  O   UNL     1       1.976   3.103  22.117  0.00  0.00    +0.000 OA
BRANCH  20  22
ATOM     22  O   UNL     1       1.083   4.583  20.676  0.00  0.00    +0.000 OA
ATOM     23  H   UNL     1       0.396   4.974  21.247  0.00  0.00    +0.000 HD
ENDBRANCH  20  22
ENDBRANCH  19  20
ENDBRANCH  18  19
ENDBRANCH  17  18
ENDBRANCH   7  17
TORSDOF 6
ENDMDL
MODEL 3
REMARK VINA RESULT:      -7.1      0.944      1.018
REMARK  Name = 
REMARK  6 active torsions:
REMARK  status: ('A' for Active; 'I' for Inactive)
REMARK    1  A    between atoms: C_5  and  C_6
REMARK    2  A    between atoms: N_14  and  C_15
REMARK    3  A    between atoms: C_15  and  C_16
REMARK    4  A    between atoms: C_16  and  C_17
REMARK    5  A    between atoms: C_17  and  C_18
REMARK    6  A    between atoms: C_18  and  O_20
REMARK                            x       y       z     vdW  Elec       q    Type
REMARK                         _______ _______ _______ _____ _____    ______ ____
ROOT
ATOM      1  N   UNL     1       5.982   3.582  15.964  0.00  0.00    +0.000 N 
ATOM      2  C   UNL     1       5.102   4.511  16.572  0.00  0.00    +0.000 A 
ATOM      3  C   UNL     1       5.313   5.863  16.284  0.00  0.00    +0.000 A 
ATOM      4  C   UNL     1       4.506   6.828  16.853  0.00  0.00    +0.000 A 
ATOM      5  C   UNL     1       3.533   6.419  17.745  0.00  0.00    +0.000 A 
ATOM      6  N   UNL     1       3.354   5.117  18.028  0.00  0.00    +0.000 NA
ATOM      7  N   UNL     1       4.095   4.176  17.423  0.00  0.00    +0.000 N 
ATOM      8  H   UNL     1       5.900   3.743  14.945  0.00  0.00    +0.000 HD
ATOM      9  H   UNL     1       5.733   2.609  16.083  0.00  0.00    +0.000 HD
ENDROOT
BRANCH   5  10
ATOM     10  C   UNL     1       2.650   7.370  18.460  0.00  0.00    +0.000 A 
ATOM     11  C   UNL     1       2.121   8.515  17.832  0.00  0.00    +0.000 A 
ATOM     12  C   UNL     1       1.322   9.429  18.530  0.00  0.00    +0.000 A 
ATOM     13  C   UNL     1       1.023   9.208  19.872  0.00  0.00    +0.000 A 
ATOM     14 CL   UNL     1       0.060  10.338  20.734  0.00  0.00    +0.000 Cl
ATOM     15  C   UNL     1       1.512   8.077  20.514  0.00  0.00    +0.000 A 
ATOM     16  C   UNL     1       2.313   7.169  19.813  0.00  0.00    +0.000 A 
ENDBRANCH   5  10
BRANCH   7  17
ATOM     17  C   UNL     1       3.644   2.785  17.618  0.00  0.00    +0.000 C 
BRANCH  17  18
ATOM     18  C   UNL     1       2.187   2.709  18.083  0.00  0.00    +0.000 C 
BRANCH  18  19
ATOM     19  C   UNL     1       1.928   1.912  19.359  0.00  0.00    +0.000 C 
BRANCH  19  20
ATOM     20  C   UNL     1       1.594   2.801  20.528  0.00  0.00    +0.000 C 
ATOM     21  O   UNL     1       2.352   2.978  21.467  0.00  0.00    +0.000 OA
BRANCH  20  22
ATOM     22  O   UNL     1       0.416   3.444  20.418  0.00  0.00    +0.000 OA
ATOM     23  H   UNL     1      -0.380   2.882  20.447  0.00  0.00    +0.000 HD
ENDBRANCH  20  22
ENDBRANCH  19  20
ENDBRANCH  18  19
ENDBRANCH  17  18
ENDBRANCH   7  17
TORSDOF 6
ENDMDL
MODEL 4
REMARK VINA RESULT:      -7.0      3.258      4.519
REMARK  Name = 
REMARK  6 active torsions:
REMARK  status: ('A' for Active; 'I' for Inactive)
REMARK    1  A    between atoms: C_5  and  C_6
REMARK    2  A    between atoms: N_14  and  C_15
REMARK    3  A    between atoms: C_15  and  C_16
REMARK    4  A    between atoms: C_16  and  C_17
REMARK    5  A    between atoms: C_17  and  C_18
REMARK    6  A    between atoms: C_18  and  O_20
REMARK                            x       y       z     vdW  Elec       q    Type
REMARK                         _______ _______ _______ _____ _____    ______ ____
ROOT
ATOM      1  N   UNL     1       4.952   2.279  19.522  0.00  0.00    +0.000 N 
ATOM      2  C   UNL     1       4.329   3.551  19.491  0.00  0.00    +0.000 A 
ATOM      3  C   UNL     1       3.064   3.650  20.080  0.00  0.00    +0.000 A 
ATOM      4  C   UNL     1       2.388   4.853  20.074  0.00  0.00    +0.000 A 
ATOM      5  C   UNL     1       2.973   5.926  19.429  0.00  0.00    +0.000 A 
ATOM      6  N   UNL     1       4.182   5.812  18.850  0.00  0.00    +0.000 NA
ATOM      7  N   UNL     1       4.867   4.660  18.914  0.00  0.00    +0.000 N 
ATOM      8  H   UNL     1       5.006   2.017  20.521  0.00  0.00    +0.000 HD
ATOM      9  H   UNL     1       5.913   2.261  19.207  0.00  0.00    +0.000 HD
ENDROOT
BRANCH   5  10
ATOM     10  C   UNL     1       2.314   7.247  19.309  0.00  0.00    +0.000 A 
ATOM     11  C   UNL     1       1.680   7.868  20.403  0.00  0.00    +0.000 A 
ATOM     12  C   UNL     1       1.023   9.096  20.267  0.00  0.00    +0.000 A 
ATOM     13  C   UNL     1       0.999   9.739  19.032  0.00  0.00    +0.000 A 
ATOM     14 CL   UNL     1       0.177  11.236  18.859  0.00  0.00    +0.000 Cl
ATOM     15  C   UNL     1       1.634   9.163  17.938  0.00  0.00    +0.000 A 
ATOM     16  C   UNL     1       2.285   7.933  18.079  0.00  0.00    +0.000 A 
ENDBRANCH   5  10
BRANCH   7  17
ATOM     17  C   UNL     1       6.272   4.727  18.470  0.00  0.00    +0.000 C 
BRANCH  17  18
ATOM     18  C   UNL     1       6.397   5.180  17.012  0.00  0.00    +0.000 C 
BRANCH  18  19
ATOM     19  C   UNL     1       6.154   4.109  15.952  0.00  0.00    +0.000 C 
BRANCH  19  20
ATOM     20  C   UNL     1       6.770   4.471  14.626  0.00  0.00    +0.000 C 
ATOM     21  O   UNL     1       6.424   3.965  13.571  0.00  0.00    +0.000 OA
BRANCH  20  22
ATOM     22  O   UNL     1       7.688   5.454  14.689  0.00  0.00    +0.000 OA
ATOM     23  H   UNL     1       7.645   6.026  15.478  0.00  0.00    +0.000 HD
ENDBRANCH  20  22
ENDBRANCH  19  20
ENDBRANCH  18  19
ENDBRANCH  17  18
ENDBRANCH   7  17
TORSDOF 6
ENDMDL
MODEL 5
REMARK VINA RESULT:      -6.9      2.605      3.885
REMARK  Name = 
REMARK  6 active torsions:
REMARK  status: ('A' for Active; 'I' for Inactive)
REMARK    1  A    between atoms: C_5  and  C_6
REMARK    2  A    between atoms: N_14  and  C_15
REMARK    3  A    between atoms: C_15  and  C_16
REMARK    4  A    between atoms: C_16  and  C_17
REMARK    5  A    between atoms: C_17  and  C_18
REMARK    6  A    between atoms: C_18  and  O_20
REMARK                            x       y       z     vdW  Elec       q    Type
REMARK                         _______ _______ _______ _____ _____    ______ ____
ROOT
ATOM      1  N   UNL     1       4.512   2.300  18.594  0.00  0.00    +0.000 N 
ATOM      2  C   UNL     1       4.001   3.618  18.696  0.00  0.00    +0.000 A 
ATOM      3  C   UNL     1       3.196   3.899  19.805  0.00  0.00    +0.000 A 
ATOM      4  C   UNL     1       2.650   5.157  19.964  0.00  0.00    +0.000 A 
ATOM      5  C   UNL     1       2.879   6.096  18.977  0.00  0.00    +0.000 A 
ATOM      6  N   UNL     1       3.639   5.806  17.906  0.00  0.00    +0.000 NA
ATOM      7  N   UNL     1       4.224   4.604  17.786  0.00  0.00    +0.000 N 
ATOM      8  H   UNL     1       5.042   2.135  19.467  0.00  0.00    +0.000 HD
ATOM      9  H   UNL     1       5.191   2.155  17.859  0.00  0.00    +0.000 HD
ENDROOT
BRANCH   5  10
ATOM     10  C   UNL     1       2.294   7.457  19.013  0.00  0.00    +0.000 A 
ATOM     11  C   UNL     1       1.667   7.970  20.165  0.00  0.00    +0.000 A 
ATOM     12  C   UNL     1       1.081   9.241  20.174  0.00  0.00    +0.000 A 
ATOM     13  C   UNL     1       1.123  10.034  19.030  0.00  0.00    +0.000 A 
ATOM     14 CL   UNL     1       0.387  11.585  19.034  0.00  0.00    +0.000 Cl
ATOM     15  C   UNL     1       1.753   9.566  17.884  0.00  0.00    +0.000 A 
ATOM     16  C   UNL     1       2.334   8.293  17.880  0.00  0.00    +0.000 A 
ENDBRANCH   5  10
BRANCH   7  17
ATOM     17  C   UNL     1       5.229   4.487  16.712  0.00  0.00    +0.000 C 
BRANCH  17  18
ATOM     18  C   UNL     1       6.460   5.359  16.974  0.00  0.00    +0.000 C 
BRANCH  18  19
ATOM     19  C   UNL     1       7.453   4.828  18.006  0.00  0.00    +0.000 C 
BRANCH  19  20
ATOM     20  C   UNL     1       7.874   5.888  18.989  0.00  0.00    +0.000 C 
ATOM     21  O   UNL     1       8.114   7.039  18.664  0.00  0.00    +0.000 OA
BRANCH  20  22
ATOM     22  O   UNL     1       7.896   5.480  20.272  0.00  0.00    +0.000 OA
ATOM     23  H   UNL     1       8.670   4.948  20.536  0.00  0.00    +0.000 HD
ENDBRANCH  20  22
ENDBRANCH  19  20
ENDBRANCH  18  19
ENDBRANCH  17  18
ENDBRANCH   7  17
TORSDOF 6
ENDMDL
MODEL 6
REMARK VINA RESULT:      -6.9      3.111      4.356
REMARK  Name = 
REMARK  6 active torsions:
REMARK  status: ('A' for Active; 'I' for Inactive)
REMARK    1  A    between atoms: C_5  and  C_6
REMARK    2  A    between atoms: N_14  and  C_15
REMARK    3  A    between atoms: C_15  and  C_16
REMARK    4  A    between atoms: C_16  and  C_17
REMARK    5  A    between atoms: C_17  and  C_18
REMARK    6  A    between atoms: C_18  and  O_20
REMARK                            x       y       z     vdW  Elec       q    Type
REMARK                         _______ _______ _______ _____ _____    ______ ____
ROOT
ATOM      1  N   UNL     1       4.544   2.209  19.394  0.00  0.00    +0.000 N 
ATOM      2  C   UNL     1       3.999   3.516  19.374  0.00  0.00    +0.000 A 
ATOM      3  C   UNL     1       3.014   3.805  20.324  0.00  0.00    +0.000 A 
ATOM      4  C   UNL     1       2.424   5.053  20.356  0.00  0.00    +0.000 A 
ATOM      5  C   UNL     1       2.797   5.973  19.396  0.00  0.00    +0.000 A 
ATOM      6  N   UNL     1       3.731   5.676  18.475  0.00  0.00    +0.000 NA
ATOM      7  N   UNL     1       4.351   4.486  18.487  0.00  0.00    +0.000 N 
ATOM      8  H   UNL     1       4.924   2.078  20.347  0.00  0.00    +0.000 HD
ATOM      9  H   UNL     1       5.339   2.063  18.786  0.00  0.00    +0.000 HD
ENDROOT
BRANCH   5  10
ATOM     10  C   UNL     1       2.189   7.320  19.297  0.00  0.00    +0.000 A 
ATOM     11  C   UNL     1       2.198   8.058  18.097  0.00  0.00    +0.000 A 
ATOM     12  C   UNL     1       1.658   9.348  18.027  0.00  0.00    +0.000 A 
ATOM     13  C   UNL     1       1.082   9.923  19.157  0.00  0.00    +0.000 A 
ATOM     14 CL   UNL     1       0.436  11.511  19.078  0.00  0.00    +0.000 Cl
ATOM     15  C   UNL     1       1.037   9.212  20.350  0.00  0.00    +0.000 A 
ATOM     16  C   UNL     1       1.582   7.925  20.415  0.00  0.00    +0.000 A 
ENDBRANCH   5  10
BRANCH   7  17
ATOM     17  C   UNL     1       5.523   4.367  17.599  0.00  0.00    +0.000 C 
BRANCH  17  18
ATOM     18  C   UNL     1       5.707   5.604  16.715  0.00  0.00    +0.000 C 
BRANCH  18  19
ATOM     19  C   UNL     1       5.476   5.402  15.219  0.00  0.00    +0.000 C 
BRANCH  19  20
ATOM     20  C   UNL     1       6.664   4.775  14.539  0.00  0.00    +0.000 C 
ATOM     21  O   UNL     1       7.759   5.310  14.487  0.00  0.00    +0.000 OA
BRANCH  20  22
ATOM     22  O   UNL     1       6.439   3.540  14.054  0.00  0.00    +0.000 OA
ATOM     23  H   UNL     1       6.903   3.317  13.225  0.00  0.00    +0.000 HD
ENDBRANCH  20  22
ENDBRANCH  19  20
ENDBRANCH  18  19
ENDBRANCH  17  18
ENDBRANCH   7  17
TORSDOF 6
ENDMDL
MODEL 7
REMARK VINA RESULT:      -6.9      1.728      2.266
REMARK  Name = 
REMARK  6 active torsions:
REMARK  status: ('A' for Active; 'I' for Inactive)
REMARK    1  A    between atoms: C_5  and  C_6
REMARK    2  A    between atoms: N_14  and  C_15
REMARK    3  A    between atoms: C_15  and  C_16
REMARK    4  A    between atoms: C_16  and  C_17
REMARK    5  A    between atoms: C_17  and  C_18
REMARK    6  A    between atoms: C_18  and  O_20
REMARK                            x       y       z     vdW  Elec       q    Type
REMARK                         _______ _______ _______ _____ _____    ______ ____
ROOT
ATOM      1  N   UNL     1       5.181   3.070  19.175  0.00  0.00    +0.000 N 
ATOM      2  C   UNL     1       4.382   4.239  19.144  0.00  0.00    +0.000 A 
ATOM      3  C   UNL     1       4.758   5.239  18.241  0.00  0.00    +0.000 A 
ATOM      4  C   UNL     1       4.037   6.414  18.165  0.00  0.00    +0.000 A 
ATOM      5  C   UNL     1       2.980   6.585  19.039  0.00  0.00    +0.000 A 
ATOM      6  N   UNL     1       2.641   5.624  19.915  0.00  0.00    +0.000 NA
ATOM      7  N   UNL     1       3.301   4.456  19.941  0.00  0.00    +0.000 N 
ATOM      8  H   UNL     1       5.170   2.697  18.210  0.00  0.00    +0.000 HD
ATOM      9  H   UNL     1       4.819   2.313  19.739  0.00  0.00    +0.000 HD
ENDROOT
BRANCH   5  10
ATOM     10  C   UNL     1       2.174   7.828  19.088  0.00  0.00    +0.000 A 
ATOM     11  C   UNL     1       1.544   8.263  20.270  0.00  0.00    +0.000 A 
ATOM     12  C   UNL     1       0.750   9.416  20.294  0.00  0.00    +0.000 A 
ATOM     13  C   UNL     1       0.581  10.168  19.134  0.00  0.00    +0.000 A 
ATOM     14 CL   UNL     1      -0.408  11.571  19.157  0.00  0.00    +0.000 Cl
ATOM     15  C   UNL     1       1.208   9.778  17.957  0.00  0.00    +0.000 A 
ATOM     16  C   UNL     1       1.997   8.622  17.938  0.00  0.00    +0.000 A 
ENDBRANCH   5  10
BRANCH   7  17
ATOM     17  C   UNL     1       2.686   3.393  20.759  0.00  0.00    +0.000 C 
BRANCH  17  18
ATOM     18  C   UNL     1       1.184   3.256  20.496  0.00  0.00    +0.000 C 
BRANCH  18  19
ATOM     19  C   UNL     1       0.786   2.392  19.301  0.00  0.00    +0.000 C 
BRANCH  19  20
ATOM     20  C   UNL     1       1.500   2.800  18.040  0.00  0.00    +0.000 C 
ATOM     21  O   UNL     1       2.322   2.093  17.482  0.00  0.00    +0.000 OA
BRANCH  20  22
ATOM     22  O   UNL     1       1.103   3.984  17.535  0.00  0.00    +0.000 OA
ATOM     23  H   UNL     1       0.440   4.469  18.060  0.00  0.00    +0.000 HD
ENDBRANCH  20  22
ENDBRANCH  19  20
ENDBRANCH  18  19
ENDBRANCH  17  18
ENDBRANCH   7  17
TORSDOF 6
ENDMDL
MODEL 8
REMARK VINA RESULT:      -6.9      2.333      3.604
REMARK  Name = 
REMARK  6 active torsions:
REMARK  status: ('A' for Active; 'I' for Inactive)
REMARK    1  A    between atoms: C_5  and  C_6
REMARK    2  A    between atoms: N_14  and  C_15
REMARK    3  A    between atoms: C_15  and  C_16
REMARK    4  A    between atoms: C_16  and  C_17
REMARK    5  A    between atoms: C_17  and  C_18
REMARK    6  A    between atoms: C_18  and  O_20
REMARK                            x       y       z     vdW  Elec       q    Type
REMARK                         _______ _______ _______ _____ _____    ______ ____
ROOT
ATOM      1  N   UNL     1       5.083   3.227  16.633  0.00  0.00    +0.000 N 
ATOM      2  C   UNL     1       4.416   4.356  17.169  0.00  0.00    +0.000 A 
ATOM      3  C   UNL     1       3.343   4.106  18.031  0.00  0.00    +0.000 A 
ATOM      4  C   UNL     1       2.634   5.156  18.580  0.00  0.00    +0.000 A 
ATOM      5  C   UNL     1       2.985   6.441  18.211  0.00  0.00    +0.000 A 
ATOM      6  N   UNL     1       4.007   6.666  17.366  0.00  0.00    +0.000 NA
ATOM      7  N   UNL     1       4.736   5.648  16.886  0.00  0.00    +0.000 N 
ATOM      8  H   UNL     1       5.404   2.677  17.448  0.00  0.00    +0.000 HD
ATOM      9  H   UNL     1       5.929   3.429  16.118  0.00  0.00    +0.000 HD
ENDROOT
BRANCH   5  10
ATOM     10  C   UNL     1       2.258   7.639  18.690  0.00  0.00    +0.000 A 
ATOM     11  C   UNL     1       1.984   8.734  17.847  0.00  0.00    +0.000 A 
ATOM     12  C   UNL     1       1.334   9.880  18.323  0.00  0.00    +0.000 A 
ATOM     13  C   UNL     1       0.929   9.947  19.654  0.00  0.00    +0.000 A 
ATOM     14 CL   UNL     1       0.149  11.358  20.243  0.00  0.00    +0.000 Cl
ATOM     15  C   UNL     1       1.164   8.874  20.505  0.00  0.00    +0.000 A 
ATOM     16  C   UNL     1       1.818   7.734  20.025  0.00  0.00    +0.000 A 
ENDBRANCH   5  10
BRANCH   7  17
ATOM     17  C   UNL     1       5.975   6.026  16.180  0.00  0.00    +0.000 C 
BRANCH  17  18
ATOM     18  C   UNL     1       7.231   5.630  16.962  0.00  0.00    +0.000 C 
BRANCH  18  19
ATOM     19  C   UNL     1       7.532   6.452  18.213  0.00  0.00    +0.000 C 
BRANCH  19  20
ATOM     20  C   UNL     1       7.408   5.637  19.473  0.00  0.00    +0.000 C 
ATOM     21  O   UNL     1       6.353   5.159  19.856  0.00  0.00    +0.000 OA
BRANCH  20  22
ATOM     22  O   UNL     1       8.574   5.416  20.109  0.00  0.00    +0.000 OA
ATOM     23  H   UNL     1       8.970   4.535  19.979  0.00  0.00    +0.000 HD
ENDBRANCH  20  22
ENDBRANCH  19  20
ENDBRANCH  18  19
ENDBRANCH  17  18
ENDBRANCH   7  17
TORSDOF 6
ENDMDL
MODEL 9
REMARK VINA RESULT:      -6.8      2.321      3.715
REMARK  Name = 
REMARK  6 active torsions:
REMARK  status: ('A' for Active; 'I' for Inactive)
REMARK    1  A    between atoms: C_5  and  C_6
REMARK    2  A    between atoms: N_14  and  C_15
REMARK    3  A    between atoms: C_15  and  C_16
REMARK    4  A    between atoms: C_16  and  C_17
REMARK    5  A    between atoms: C_17  and  C_18
REMARK    6  A    between atoms: C_18  and  O_20
REMARK                            x       y       z     vdW  Elec       q    Type
REMARK                         _______ _______ _______ _____ _____    ______ ____
ROOT
ATOM      1  N   UNL     1       5.474   3.420  15.996  0.00  0.00    +0.000 N 
ATOM      2  C   UNL     1       4.751   4.437  16.667  0.00  0.00    +0.000 A 
ATOM      3  C   UNL     1       3.571   4.055  17.312  0.00  0.00    +0.000 A 
ATOM      4  C   UNL     1       2.805   4.994  17.973  0.00  0.00    +0.000 A 
ATOM      5  C   UNL     1       3.212   6.314  17.928  0.00  0.00    +0.000 A 
ATOM      6  N   UNL     1       4.339   6.671  17.287  0.00  0.00    +0.000 NA
ATOM      7  N   UNL     1       5.117   5.747  16.702  0.00  0.00    +0.000 N 
ATOM      8  H   UNL     1       5.679   2.702  16.713  0.00  0.00    +0.000 HD
ATOM      9  H   UNL     1       6.383   3.692  15.648  0.00  0.00    +0.000 HD
ENDROOT
BRANCH   5  10
ATOM     10  C   UNL     1       2.438   7.414  18.549  0.00  0.00    +0.000 A 
ATOM     11  C   UNL     1       2.095   7.407  19.916  0.00  0.00    +0.000 A 
ATOM     12  C   UNL     1       1.327   8.431  20.483  0.00  0.00    +0.000 A 
ATOM     13  C   UNL     1       0.896   9.495  19.694  0.00  0.00    +0.000 A 
ATOM     14 CL   UNL     1      -0.062  10.741  20.383  0.00  0.00    +0.000 Cl
ATOM     15  C   UNL     1       1.237   9.542  18.347  0.00  0.00    +0.000 A 
ATOM     16  C   UNL     1       2.001   8.514  17.785  0.00  0.00    +0.000 A 
ENDBRANCH   5  10
BRANCH   7  17
ATOM     17  C   UNL     1       6.442   6.218  16.255  0.00  0.00    +0.000 C 
BRANCH  17  18
ATOM     18  C   UNL     1       7.377   6.515  17.431  0.00  0.00    +0.000 C 
BRANCH  18  19
ATOM     19  C   UNL     1       7.827   5.311  18.254  0.00  0.00    +0.000 C 
BRANCH  19  20
ATOM     20  C   UNL     1       7.312   5.363  19.668  0.00  0.00    +0.000 C 
ATOM     21  O   UNL     1       8.044   5.364  20.643  0.00  0.00    +0.000 OA
BRANCH  20  22
ATOM     22  O   UNL     1       5.975   5.482  19.768  0.00  0.00    +0.000 OA
ATOM     23  H   UNL     1       5.469   5.306  18.953  0.00  0.00    +0.000 HD
ENDBRANCH  20  22
ENDBRANCH  19  20
ENDBRANCH  18  19
ENDBRANCH  17  18
ENDBRANCH   7  17
TORSDOF 6
ENDMDL
