MODEL 1
REMARK VINA RESULT:      -7.4      0.000      0.000
REMARK  Name = 
REMARK  9 active torsions:
REMARK  status: ('A' for Active; 'I' for Inactive)
REMARK    1  A    between atoms: C_1  and  O_2
REMARK    2  A    between atoms: O_2  and  C_3
REMARK    3  A    between atoms: C_3  and  C_5
REMARK    4  A    between atoms: C_8  and  N_9
REMARK    5  A    between atoms: C_15  and  O_16
REMARK    6  A    between atoms: O_16  and  C_17
REMARK    7  A    between atoms: C_18  and  O_19
REMARK    8  A    between atoms: O_19  and  C_20
REMARK    9  A    between atoms: C_23  and  C_24
REMARK                            x       y       z     vdW  Elec       q    Type
REMARK                         _______ _______ _______ _____ _____    ______ ____
ROOT
ATOM      1  N   UNL     1      -0.354  10.886  19.636  0.00  0.00    +0.000 N 
ATOM      2  C   UNL     1      -1.499  10.981  18.830  0.00  0.00    +0.000 C 
ATOM      3  O   UNL     1      -1.964  10.055  18.160  0.00  0.00    +0.000 OA
ATOM      4  C   UNL     1      -2.197  12.348  18.863  0.00  0.00    +0.000 C 
ATOM      5  C   UNL     1      -2.421  12.765  20.293  0.00  0.00    +0.000 A 
ATOM      6  C   UNL     1      -3.689  13.208  20.649  0.00  0.00    +0.000 A 
ATOM      7  C   UNL     1      -4.168  12.958  21.921  0.00  0.00    +0.000 A 
ATOM      8  C   UNL     1      -3.345  12.255  22.827  0.00  0.00    +0.000 A 
ATOM      9  C   UNL     1      -1.950  12.013  22.505  0.00  0.00    +0.000 A 
ATOM     10  C   UNL     1      -1.415  12.385  21.229  0.00  0.00    +0.000 A 
ATOM     11  C   UNL     1       0.005  12.046  20.497  0.00  0.00    +0.000 C 
ENDROOT
BRANCH  11  12
ATOM     12  C   UNL     1       1.350  12.653  19.768  0.00  0.00    +0.000 A 
ATOM     13  C   UNL     1       1.397  13.031  18.414  0.00  0.00    +0.000 A 
ATOM     14  C   UNL     1       2.412  13.904  17.946  0.00  0.00    +0.000 A 
ATOM     15  C   UNL     1       3.382  14.412  18.807  0.00  0.00    +0.000 A 
ATOM     16  F   UNL     1       4.293  15.288  18.356  0.00  0.00    +0.000 F 
ATOM     17  C   UNL     1       3.408  14.023  20.122  0.00  0.00    +0.000 A 
ATOM     18  C   UNL     1       2.423  13.154  20.582  0.00  0.00    +0.000 A 
ENDBRANCH  11  12
BRANCH   1  22
ATOM     19  C   UNL     1       2.317   7.611  19.105  0.00  0.00    +0.000 A 
ATOM     20  C   UNL     1       1.776   7.886  20.361  0.00  0.00    +0.000 A 
ATOM     21  C   UNL     1       0.948   9.002  20.540  0.00  0.00    +0.000 A 
ATOM     22  C   UNL     1       0.626   9.848  19.468  0.00  0.00    +0.000 A 
ATOM     23  C   UNL     1       1.165   9.551  18.208  0.00  0.00    +0.000 A 
ATOM     24  C   UNL     1       2.011   8.446  18.029  0.00  0.00    +0.000 A 
BRANCH  19  25
ATOM     25  C   UNL     1       3.217   6.427  18.959  0.00  0.00    +0.000 C 
ATOM     26  O   UNL     1       3.327   5.532  19.790  0.00  0.00    +0.000 OA
BRANCH  25  28
ATOM     27  C   UNL     1       4.882   5.474  17.608  0.00  0.00    +0.000 C 
ATOM     28  O   UNL     1       3.950   6.536  17.830  0.00  0.00    +0.000 OA
ENDBRANCH  25  28
ENDBRANCH  19  25
ENDBRANCH   1  22
BRANCH   7  29
ATOM     29  O   UNL     1      -5.469  13.377  22.034  0.00  0.00    +0.000 OA
ATOM     30  C   UNL     1      -6.569  12.591  21.602  0.00  0.00    +0.000 C 
ENDBRANCH   7  29
BRANCH   8  31
ATOM     31  O   UNL     1      -4.052  11.883  23.929  0.00  0.00    +0.000 OA
ATOM     32  C   UNL     1      -4.390  12.608  25.086  0.00  0.00    +0.000 C 
ENDBRANCH   8  31
TORSDOF 6
ENDMDL
MODEL 2
REMARK VINA RESULT:      -6.9      0.634      1.211
REMARK  Name = 
REMARK  9 active torsions:
REMARK  status: ('A' for Active; 'I' for Inactive)
REMARK    1  A    between atoms: C_1  and  O_2
REMARK    2  A    between atoms: O_2  and  C_3
REMARK    3  A    between atoms: C_3  and  C_5
REMARK    4  A    between atoms: C_8  and  N_9
REMARK    5  A    between atoms: C_15  and  O_16
REMARK    6  A    between atoms: O_16  and  C_17
REMARK    7  A    between atoms: C_18  and  O_19
REMARK    8  A    between atoms: O_19  and  C_20
REMARK    9  A    between atoms: C_23  and  C_24
REMARK                            x       y       z     vdW  Elec       q    Type
REMARK                         _______ _______ _______ _____ _____    ______ ____
ROOT
ATOM      1  N   UNL     1      -0.599  10.901  19.615  0.00  0.00    +0.000 N 
ATOM      2  C   UNL     1      -1.749  11.116  18.838  0.00  0.00    +0.000 C 
ATOM      3  O   UNL     1      -2.288  10.261  18.131  0.00  0.00    +0.000 OA
ATOM      4  C   UNL     1      -2.349  12.524  18.955  0.00  0.00    +0.000 C 
ATOM      5  C   UNL     1      -2.520  12.879  20.410  0.00  0.00    +0.000 A 
ATOM      6  C   UNL     1      -3.748  13.389  20.813  0.00  0.00    +0.000 A 
ATOM      7  C   UNL     1      -4.223  13.106  22.080  0.00  0.00    +0.000 A 
ATOM      8  C   UNL     1      -3.436  12.301  22.931  0.00  0.00    +0.000 A 
ATOM      9  C   UNL     1      -2.067  11.982  22.570  0.00  0.00    +0.000 A 
ATOM     10  C   UNL     1      -1.528  12.383  21.304  0.00  0.00    +0.000 A 
ATOM     11  C   UNL     1      -0.147  11.987  20.527  0.00  0.00    +0.000 C 
ENDROOT
BRANCH  11  12
ATOM     12  C   UNL     1       1.225  12.539  19.803  0.00  0.00    +0.000 A 
ATOM     13  C   UNL     1       1.300  12.885  18.443  0.00  0.00    +0.000 A 
ATOM     14  C   UNL     1       2.346  13.718  17.970  0.00  0.00    +0.000 A 
ATOM     15  C   UNL     1       3.320  14.215  18.833  0.00  0.00    +0.000 A 
ATOM     16  F   UNL     1       4.263  15.054  18.376  0.00  0.00    +0.000 F 
ATOM     17  C   UNL     1       3.318  13.854  20.157  0.00  0.00    +0.000 A 
ATOM     18  C   UNL     1       2.302  13.024  20.621  0.00  0.00    +0.000 A 
ENDBRANCH  11  12
BRANCH   1  22
ATOM     19  C   UNL     1       2.308   7.868  18.916  0.00  0.00    +0.000 A 
ATOM     20  C   UNL     1       1.817   8.635  17.859  0.00  0.00    +0.000 A 
ATOM     21  C   UNL     1       0.816   9.587  18.088  0.00  0.00    +0.000 A 
ATOM     22  C   UNL     1       0.303   9.809  19.374  0.00  0.00    +0.000 A 
ATOM     23  C   UNL     1       0.816   9.041  20.430  0.00  0.00    +0.000 A 
ATOM     24  C   UNL     1       1.805   8.073  20.202  0.00  0.00    +0.000 A 
BRANCH  19  25
ATOM     25  C   UNL     1       3.357   6.843  18.628  0.00  0.00    +0.000 C 
ATOM     26  O   UNL     1       3.985   6.769  17.578  0.00  0.00    +0.000 OA
BRANCH  25  28
ATOM     27  C   UNL     1       4.129   4.749  19.350  0.00  0.00    +0.000 C 
ATOM     28  O   UNL     1       3.444   5.966  19.652  0.00  0.00    +0.000 OA
ENDBRANCH  25  28
ENDBRANCH  19  25
ENDBRANCH   1  22
BRANCH   7  29
ATOM     29  O   UNL     1      -5.490  13.606  22.240  0.00  0.00    +0.000 OA
ATOM     30  C   UNL     1      -5.751  14.985  22.446  0.00  0.00    +0.000 C 
ENDBRANCH   7  29
BRANCH   8  31
ATOM     31  O   UNL     1      -4.149  11.921  24.027  0.00  0.00    +0.000 OA
ATOM     32  C   UNL     1      -4.461  12.624  25.204  0.00  0.00    +0.000 C 
ENDBRANCH   8  31
TORSDOF 6
ENDMDL
MODEL 3
REMARK VINA RESULT:      -6.8      3.394      5.646
REMARK  Name = 
REMARK  9 active torsions:
REMARK  status: ('A' for Active; 'I' for Inactive)
REMARK    1  A    between atoms: C_1  and  O_2
REMARK    2  A    between atoms: O_2  and  C_3
REMARK    3  A    between atoms: C_3  and  C_5
REMARK    4  A    between atoms: C_8  and  N_9
REMARK    5  A    between atoms: C_15  and  O_16
REMARK    6  A    between atoms: O_16  and  C_17
REMARK    7  A    between atoms: C_18  and  O_19
REMARK    8  A    between atoms: O_19  and  C_20
REMARK    9  A    between atoms: C_23  and  C_24
REMARK                            x       y       z     vdW  Elec       q    Type
REMARK                         _______ _______ _______ _____ _____    ______ ____
ROOT
ATOM      1  N   UNL     1      -0.457  13.310  21.288  0.00  0.00    +0.000 N 
ATOM      2  C   UNL     1      -0.656  13.703  22.620  0.00  0.00    +0.000 C 
ATOM      3  O   UNL     1      -0.197  14.731  23.125  0.00  0.00    +0.000 OA
ATOM      4  C   UNL     1      -1.553  12.764  23.440  0.00  0.00    +0.000 C 
ATOM      5  C   UNL     1      -2.829  12.499  22.685  0.00  0.00    +0.000 A 
ATOM      6  C   UNL     1      -4.030  12.642  23.369  0.00  0.00    +0.000 A 
ATOM      7  C   UNL     1      -5.151  13.087  22.695  0.00  0.00    +0.000 A 
ATOM      8  C   UNL     1      -5.039  13.383  21.319  0.00  0.00    +0.000 A 
ATOM      9  C   UNL     1      -3.844  13.003  20.588  0.00  0.00    +0.000 A 
ATOM     10  C   UNL     1      -2.721  12.424  21.266  0.00  0.00    +0.000 A 
ATOM     11  C   UNL     1      -1.191  12.118  20.784  0.00  0.00    +0.000 C 
ENDROOT
BRANCH  11  12
ATOM     12  C   UNL     1      -0.006  10.986  20.622  0.00  0.00    +0.000 A 
ATOM     13  C   UNL     1       0.406  10.138  21.666  0.00  0.00    +0.000 A 
ATOM     14  C   UNL     1       1.112   8.942  21.383  0.00  0.00    +0.000 A 
ATOM     15  C   UNL     1       1.414   8.572  20.075  0.00  0.00    +0.000 A 
ATOM     16  F   UNL     1       2.026   7.404  19.827  0.00  0.00    +0.000 F 
ATOM     17  C   UNL     1       1.083   9.400  19.031  0.00  0.00    +0.000 A 
ATOM     18  C   UNL     1       0.404  10.582  19.306  0.00  0.00    +0.000 A 
ENDBRANCH  11  12
BRANCH   1  22
ATOM     19  C   UNL     1       2.686  15.114  19.050  0.00  0.00    +0.000 A 
ATOM     20  C   UNL     1       1.354  15.307  18.682  0.00  0.00    +0.000 A 
ATOM     21  C   UNL     1       0.330  14.659  19.385  0.00  0.00    +0.000 A 
ATOM     22  C   UNL     1       0.612  13.829  20.480  0.00  0.00    +0.000 A 
ATOM     23  C   UNL     1       1.955  13.656  20.848  0.00  0.00    +0.000 A 
ATOM     24  C   UNL     1       2.984  14.287  20.134  0.00  0.00    +0.000 A 
BRANCH  19  25
ATOM     25  C   UNL     1       3.752  15.800  18.259  0.00  0.00    +0.000 C 
ATOM     26  O   UNL     1       3.900  17.016  18.201  0.00  0.00    +0.000 OA
BRANCH  25  28
ATOM     27  C   UNL     1       5.866  14.881  17.825  0.00  0.00    +0.000 C 
ATOM     28  O   UNL     1       4.463  14.894  17.553  0.00  0.00    +0.000 OA
ENDBRANCH  25  28
ENDBRANCH  19  25
ENDBRANCH   1  22
BRANCH   7  29
ATOM     29  O   UNL     1      -6.195  13.264  23.566  0.00  0.00    +0.000 OA
ATOM     30  C   UNL     1      -7.159  12.256  23.825  0.00  0.00    +0.000 C 
ENDBRANCH   7  29
BRANCH   8  31
ATOM     31  O   UNL     1      -6.150  14.033  20.876  0.00  0.00    +0.000 OA
ATOM     32  C   UNL     1      -7.291  13.546  20.214  0.00  0.00    +0.000 C 
ENDBRANCH   8  31
TORSDOF 6
ENDMDL
MODEL 4
REMARK VINA RESULT:      -6.8      3.244      5.349
REMARK  Name = 
REMARK  9 active torsions:
REMARK  status: ('A' for Active; 'I' for Inactive)
REMARK    1  A    between atoms: C_1  and  O_2
REMARK    2  A    between atoms: O_2  and  C_3
REMARK    3  A    between atoms: C_3  and  C_5
REMARK    4  A    between atoms: C_8  and  N_9
REMARK    5  A    between atoms: C_15  and  O_16
REMARK    6  A    between atoms: O_16  and  C_17
REMARK    7  A    between atoms: C_18  and  O_19
REMARK    8  A    between atoms: O_19  and  C_20
REMARK    9  A    between atoms: C_23  and  C_24
REMARK                            x       y       z     vdW  Elec       q    Type
REMARK                         _______ _______ _______ _____ _____    ______ ____
ROOT
ATOM      1  N   UNL     1      -0.748  13.095  21.052  0.00  0.00    +0.000 N 
ATOM      2  C   UNL     1      -0.770  13.212  22.450  0.00  0.00    +0.000 C 
ATOM      3  O   UNL     1      -0.054  13.976  23.102  0.00  0.00    +0.000 OA
ATOM      4  C   UNL     1      -1.811  12.329  23.153  0.00  0.00    +0.000 C 
ATOM      5  C   UNL     1      -3.157  12.523  22.503  0.00  0.00    +0.000 A 
ATOM      6  C   UNL     1      -4.248  12.764  23.329  0.00  0.00    +0.000 A 
ATOM      7  C   UNL     1      -5.272  13.581  22.888  0.00  0.00    +0.000 A 
ATOM      8  C   UNL     1      -5.176  14.147  21.598  0.00  0.00    +0.000 A 
ATOM      9  C   UNL     1      -4.148  13.692  20.679  0.00  0.00    +0.000 A 
ATOM     10  C   UNL     1      -3.154  12.747  21.096  0.00  0.00    +0.000 A 
ATOM     11  C   UNL     1      -1.770  12.234  20.397  0.00  0.00    +0.000 C 
ENDROOT
BRANCH  11  12
ATOM     12  C   UNL     1      -0.895  10.940  19.878  0.00  0.00    +0.000 A 
ATOM     13  C   UNL     1      -0.442  10.788  18.555  0.00  0.00    +0.000 A 
ATOM     14  C   UNL     1       0.621   9.899  18.257  0.00  0.00    +0.000 A 
ATOM     15  C   UNL     1       1.245   9.157  19.257  0.00  0.00    +0.000 A 
ATOM     16  F   UNL     1       2.291   8.371  18.962  0.00  0.00    +0.000 F 
ATOM     17  C   UNL     1       0.795   9.230  20.552  0.00  0.00    +0.000 A 
ATOM     18  C   UNL     1      -0.258  10.091  20.846  0.00  0.00    +0.000 A 
ENDBRANCH  11  12
BRANCH   1  22
ATOM     19  C   UNL     1       2.569  14.654  18.883  0.00  0.00    +0.000 A 
ATOM     20  C   UNL     1       1.275  15.106  18.619  0.00  0.00    +0.000 A 
ATOM     21  C   UNL     1       0.184  14.543  19.292  0.00  0.00    +0.000 A 
ATOM     22  C   UNL     1       0.363  13.539  20.256  0.00  0.00    +0.000 A 
ATOM     23  C   UNL     1       1.670  13.106  20.522  0.00  0.00    +0.000 A 
ATOM     24  C   UNL     1       2.764  13.653  19.835  0.00  0.00    +0.000 A 
BRANCH  19  25
ATOM     25  C   UNL     1       3.705  15.260  18.125  0.00  0.00    +0.000 C 
ATOM     26  O   UNL     1       3.714  16.404  17.684  0.00  0.00    +0.000 OA
BRANCH  25  28
ATOM     27  C   UNL     1       6.007  14.854  17.920  0.00  0.00    +0.000 C 
ATOM     28  O   UNL     1       4.673  14.340  17.922  0.00  0.00    +0.000 OA
ENDBRANCH  25  28
ENDBRANCH  19  25
ENDBRANCH   1  22
BRANCH   7  29
ATOM     29  O   UNL     1      -6.191  13.778  23.885  0.00  0.00    +0.000 OA
ATOM     30  C   UNL     1      -7.373  13.003  24.005  0.00  0.00    +0.000 C 
ENDBRANCH   7  29
BRANCH   8  31
ATOM     31  O   UNL     1      -6.127  15.104  21.422  0.00  0.00    +0.000 OA
ATOM     32  C   UNL     1      -7.348  15.062  20.725  0.00  0.00    +0.000 C 
ENDBRANCH   8  31
TORSDOF 6
ENDMDL
MODEL 5
REMARK VINA RESULT:      -6.5      3.793      6.013
REMARK  Name = 
REMARK  9 active torsions:
REMARK  status: ('A' for Active; 'I' for Inactive)
REMARK    1  A    between atoms: C_1  and  O_2
REMARK    2  A    between atoms: O_2  and  C_3
REMARK    3  A    between atoms: C_3  and  C_5
REMARK    4  A    between atoms: C_8  and  N_9
REMARK    5  A    between atoms: C_15  and  O_16
REMARK    6  A    between atoms: O_16  and  C_17
REMARK    7  A    between atoms: C_18  and  O_19
REMARK    8  A    between atoms: O_19  and  C_20
REMARK    9  A    between atoms: C_23  and  C_24
REMARK                            x       y       z     vdW  Elec       q    Type
REMARK                         _______ _______ _______ _____ _____    ______ ____
ROOT
ATOM      1  N   UNL     1      -1.551  13.785  21.499  0.00  0.00    +0.000 N 
ATOM      2  C   UNL     1      -1.964  14.406  22.688  0.00  0.00    +0.000 C 
ATOM      3  O   UNL     1      -1.625  15.537  23.043  0.00  0.00    +0.000 OA
ATOM      4  C   UNL     1      -2.937  13.579  23.540  0.00  0.00    +0.000 C 
ATOM      5  C   UNL     1      -4.074  13.094  22.679  0.00  0.00    +0.000 A 
ATOM      6  C   UNL     1      -5.369  13.282  23.146  0.00  0.00    +0.000 A 
ATOM      7  C   UNL     1      -6.392  13.519  22.248  0.00  0.00    +0.000 A 
ATOM      8  C   UNL     1      -6.085  13.560  20.871  0.00  0.00    +0.000 A 
ATOM      9  C   UNL     1      -4.780  13.131  20.403  0.00  0.00    +0.000 A 
ATOM     10  C   UNL     1      -3.750  12.763  21.331  0.00  0.00    +0.000 A 
ATOM     11  C   UNL     1      -2.155  12.474  21.137  0.00  0.00    +0.000 C 
ENDROOT
BRANCH  11  12
ATOM     12  C   UNL     1      -0.917  11.413  21.367  0.00  0.00    +0.000 A 
ATOM     13  C   UNL     1      -0.620  10.822  22.608  0.00  0.00    +0.000 A 
ATOM     14  C   UNL     1       0.163   9.642  22.673  0.00  0.00    +0.000 A 
ATOM     15  C   UNL     1       0.655   9.036  21.519  0.00  0.00    +0.000 A 
ATOM     16  F   UNL     1       1.339   7.884  21.600  0.00  0.00    +0.000 F 
ATOM     17  C   UNL     1       0.439   9.613  20.292  0.00  0.00    +0.000 A 
ATOM     18  C   UNL     1      -0.316  10.780  20.226  0.00  0.00    +0.000 A 
ENDBRANCH  11  12
BRANCH   1  22
ATOM     19  C   UNL     1       1.821  15.345  19.416  0.00  0.00    +0.000 A 
ATOM     20  C   UNL     1       0.554  15.369  18.831  0.00  0.00    +0.000 A 
ATOM     21  C   UNL     1      -0.537  14.797  19.496  0.00  0.00    +0.000 A 
ATOM     22  C   UNL     1      -0.393  14.214  20.764  0.00  0.00    +0.000 A 
ATOM     23  C   UNL     1       0.883  14.210  21.347  0.00  0.00    +0.000 A 
ATOM     24  C   UNL     1       1.983  14.764  20.675  0.00  0.00    +0.000 A 
BRANCH  19  25
ATOM     25  C   UNL     1       2.966  15.940  18.663  0.00  0.00    +0.000 C 
ATOM     26  O   UNL     1       3.266  17.129  18.682  0.00  0.00    +0.000 OA
BRANCH  25  28
ATOM     27  C   UNL     1       4.985  14.948  17.995  0.00  0.00    +0.000 C 
ATOM     28  O   UNL     1       3.559  14.999  17.897  0.00  0.00    +0.000 OA
ENDBRANCH  25  28
ENDBRANCH  19  25
ENDBRANCH   1  22
BRANCH   7  29
ATOM     29  O   UNL     1      -7.561  13.786  22.913  0.00  0.00    +0.000 OA
ATOM     30  C   UNL     1      -7.698  13.634  24.317  0.00  0.00    +0.000 C 
ENDBRANCH   7  29
BRANCH   8  31
ATOM     31  O   UNL     1      -7.140  14.041  20.158  0.00  0.00    +0.000 OA
ATOM     32  C   UNL     1      -7.801  13.513  19.035  0.00  0.00    +0.000 C 
ENDBRANCH   8  31
TORSDOF 6
ENDMDL
MODEL 6
REMARK VINA RESULT:      -6.5      3.832      5.935
REMARK  Name = 
REMARK  9 active torsions:
REMARK  status: ('A' for Active; 'I' for Inactive)
REMARK    1  A    between atoms: C_1  and  O_2
REMARK    2  A    between atoms: O_2  and  C_3
REMARK    3  A    between atoms: C_3  and  C_5
REMARK    4  A    between atoms: C_8  and  N_9
REMARK    5  A    between atoms: C_15  and  O_16
REMARK    6  A    between atoms: O_16  and  C_17
REMARK    7  A    between atoms: C_18  and  O_19
REMARK    8  A    between atoms: O_19  and  C_20
REMARK    9  A    between atoms: C_23  and  C_24
REMARK                            x       y       z     vdW  Elec       q    Type
REMARK                         _______ _______ _______ _____ _____    ______ ____
ROOT
ATOM      1  N   UNL     1      -1.647  13.765  21.759  0.00  0.00    +0.000 N 
ATOM      2  C   UNL     1      -2.106  14.397  22.925  0.00  0.00    +0.000 C 
ATOM      3  O   UNL     1      -1.784  15.534  23.280  0.00  0.00    +0.000 OA
ATOM      4  C   UNL     1      -3.109  13.577  23.748  0.00  0.00    +0.000 C 
ATOM      5  C   UNL     1      -4.211  13.079  22.850  0.00  0.00    +0.000 A 
ATOM      6  C   UNL     1      -5.523  13.268  23.265  0.00  0.00    +0.000 A 
ATOM      7  C   UNL     1      -6.512  13.492  22.326  0.00  0.00    +0.000 A 
ATOM      8  C   UNL     1      -6.154  13.518  20.962  0.00  0.00    +0.000 A 
ATOM      9  C   UNL     1      -4.830  13.088  20.549  0.00  0.00    +0.000 A 
ATOM     10  C   UNL     1      -3.836  12.734  21.519  0.00  0.00    +0.000 A 
ATOM     11  C   UNL     1      -2.233  12.448  21.389  0.00  0.00    +0.000 C 
ENDROOT
BRANCH  11  12
ATOM     12  C   UNL     1      -1.002  11.394  21.677  0.00  0.00    +0.000 A 
ATOM     13  C   UNL     1      -0.813  10.737  22.907  0.00  0.00    +0.000 A 
ATOM     14  C   UNL     1      -0.017   9.566  22.981  0.00  0.00    +0.000 A 
ATOM     15  C   UNL     1       0.595   9.035  21.848  0.00  0.00    +0.000 A 
ATOM     16  F   UNL     1       1.290   7.890  21.930  0.00  0.00    +0.000 F 
ATOM     17  C   UNL     1       0.485   9.677  20.640  0.00  0.00    +0.000 A 
ATOM     18  C   UNL     1      -0.283  10.835  20.566  0.00  0.00    +0.000 A 
ENDBRANCH  11  12
BRANCH   1  22
ATOM     19  C   UNL     1       1.936  14.725  19.665  0.00  0.00    +0.000 A 
ATOM     20  C   UNL     1       1.962  14.483  21.039  0.00  0.00    +0.000 A 
ATOM     21  C   UNL     1       0.771  14.230  21.731  0.00  0.00    +0.000 A 
ATOM     22  C   UNL     1      -0.463  14.189  21.064  0.00  0.00    +0.000 A 
ATOM     23  C   UNL     1      -0.473  14.420  19.680  0.00  0.00    +0.000 A 
ATOM     24  C   UNL     1       0.716  14.693  18.988  0.00  0.00    +0.000 A 
BRANCH  19  25
ATOM     25  C   UNL     1       3.224  15.018  18.967  0.00  0.00    +0.000 C 
ATOM     26  O   UNL     1       4.321  15.036  19.514  0.00  0.00    +0.000 OA
BRANCH  25  28
ATOM     27  C   UNL     1       3.211  16.720  17.352  0.00  0.00    +0.000 C 
ATOM     28  O   UNL     1       2.990  15.345  17.678  0.00  0.00    +0.000 OA
ENDBRANCH  25  28
ENDBRANCH  19  25
ENDBRANCH   1  22
BRANCH   7  29
ATOM     29  O   UNL     1      -7.706  13.762  22.943  0.00  0.00    +0.000 OA
ATOM     30  C   UNL     1      -7.858  13.767  24.354  0.00  0.00    +0.000 C 
ENDBRANCH   7  29
BRANCH   8  31
ATOM     31  O   UNL     1      -7.182  13.989  20.204  0.00  0.00    +0.000 OA
ATOM     32  C   UNL     1      -7.767  13.470  19.035  0.00  0.00    +0.000 C 
ENDBRANCH   8  31
TORSDOF 6
ENDMDL
MODEL 7
REMARK VINA RESULT:      -6.1      3.512      6.114
REMARK  Name = 
REMARK  9 active torsions:
REMARK  status: ('A' for Active; 'I' for Inactive)
REMARK    1  A    between atoms: C_1  and  O_2
REMARK    2  A    between atoms: O_2  and  C_3
REMARK    3  A    between atoms: C_3  and  C_5
REMARK    4  A    between atoms: C_8  and  N_9
REMARK    5  A    between atoms: C_15  and  O_16
REMARK    6  A    between atoms: O_16  and  C_17
REMARK    7  A    between atoms: C_18  and  O_19
REMARK    8  A    between atoms: O_19  and  C_20
REMARK    9  A    between atoms: C_23  and  C_24
REMARK                            x       y       z     vdW  Elec       q    Type
REMARK                         _______ _______ _______ _____ _____    ______ ____
ROOT
ATOM      1  N   UNL     1       1.024  11.162  19.755  0.00  0.00    +0.000 N 
ATOM      2  C   UNL     1       1.103  11.912  20.939  0.00  0.00    +0.000 C 
ATOM      3  O   UNL     1       1.635  11.524  21.982  0.00  0.00    +0.000 OA
ATOM      4  C   UNL     1       0.500  13.321  20.849  0.00  0.00    +0.000 C 
ATOM      5  C   UNL     1       1.054  14.030  19.640  0.00  0.00    +0.000 A 
ATOM      6  C   UNL     1       1.546  15.318  19.811  0.00  0.00    +0.000 A 
ATOM      7  C   UNL     1       2.612  15.750  19.046  0.00  0.00    +0.000 A 
ATOM      8  C   UNL     1       3.171  14.860  18.104  0.00  0.00    +0.000 A 
ATOM      9  C   UNL     1       2.493  13.616  17.786  0.00  0.00    +0.000 A 
ATOM     10  C   UNL     1       1.311  13.221  18.494  0.00  0.00    +0.000 A 
ATOM     11  C   UNL     1       0.477  11.818  18.536  0.00  0.00    +0.000 C 
ENDROOT
BRANCH  11  12
ATOM     12  C   UNL     1      -0.984  11.086  18.339  0.00  0.00    +0.000 A 
ATOM     13  C   UNL     1      -2.167  11.534  18.954  0.00  0.00    +0.000 A 
ATOM     14  C   UNL     1      -3.433  11.142  18.449  0.00  0.00    +0.000 A 
ATOM     15  C   UNL     1      -3.541  10.309  17.338  0.00  0.00    +0.000 A 
ATOM     16  F   UNL     1      -4.749  10.004  16.839  0.00  0.00    +0.000 F 
ATOM     17  C   UNL     1      -2.413   9.802  16.744  0.00  0.00    +0.000 A 
ATOM     18  C   UNL     1      -1.170  10.172  17.246  0.00  0.00    +0.000 A 
ENDBRANCH  11  12
BRANCH   1  22
ATOM     19  C   UNL     1       1.795   6.974  19.797  0.00  0.00    +0.000 A 
ATOM     20  C   UNL     1       2.205   7.758  18.719  0.00  0.00    +0.000 A 
ATOM     21  C   UNL     1       1.893   9.123  18.684  0.00  0.00    +0.000 A 
ATOM     22  C   UNL     1       1.188   9.735  19.731  0.00  0.00    +0.000 A 
ATOM     23  C   UNL     1       0.796   8.938  20.816  0.00  0.00    +0.000 A 
ATOM     24  C   UNL     1       1.089   7.566  20.846  0.00  0.00    +0.000 A 
BRANCH  19  25
ATOM     25  C   UNL     1       2.124   5.516  19.786  0.00  0.00    +0.000 C 
ATOM     26  O   UNL     1       2.828   4.970  18.944  0.00  0.00    +0.000 OA
BRANCH  25  28
ATOM     27  C   UNL     1       1.076   3.537  20.487  0.00  0.00    +0.000 C 
ATOM     28  O   UNL     1       1.464   4.882  20.780  0.00  0.00    +0.000 OA
ENDBRANCH  25  28
ENDBRANCH  19  25
ENDBRANCH   1  22
BRANCH   7  29
ATOM     29  O   UNL     1       3.012  17.000  19.443  0.00  0.00    +0.000 OA
ATOM     30  C   UNL     1       2.138  17.921  20.076  0.00  0.00    +0.000 C 
ENDBRANCH   7  29
BRANCH   8  31
ATOM     31  O   UNL     1       4.347  15.347  17.621  0.00  0.00    +0.000 OA
ATOM     32  C   UNL     1       5.668  14.908  17.819  0.00  0.00    +0.000 C 
ENDBRANCH   8  31
TORSDOF 6
ENDMDL
MODEL 8
REMARK VINA RESULT:      -6.1      4.130      8.191
REMARK  Name = 
REMARK  9 active torsions:
REMARK  status: ('A' for Active; 'I' for Inactive)
REMARK    1  A    between atoms: C_1  and  O_2
REMARK    2  A    between atoms: O_2  and  C_3
REMARK    3  A    between atoms: C_3  and  C_5
REMARK    4  A    between atoms: C_8  and  N_9
REMARK    5  A    between atoms: C_15  and  O_16
REMARK    6  A    between atoms: O_16  and  C_17
REMARK    7  A    between atoms: C_18  and  O_19
REMARK    8  A    between atoms: O_19  and  C_20
REMARK    9  A    between atoms: C_23  and  C_24
REMARK                            x       y       z     vdW  Elec       q    Type
REMARK                         _______ _______ _______ _____ _____    ______ ____
ROOT
ATOM      1  N   UNL     1      -0.445  14.683  20.697  0.00  0.00    +0.000 N 
ATOM      2  C   UNL     1      -0.470  15.936  20.066  0.00  0.00    +0.000 C 
ATOM      3  O   UNL     1      -1.132  16.903  20.451  0.00  0.00    +0.000 OA
ATOM      4  C   UNL     1       0.445  16.055  18.839  0.00  0.00    +0.000 C 
ATOM      5  C   UNL     1       1.829  15.578  19.194  0.00  0.00    +0.000 A 
ATOM      6  C   UNL     1       2.904  16.389  18.850  0.00  0.00    +0.000 A 
ATOM      7  C   UNL     1       4.023  16.422  19.659  0.00  0.00    +0.000 A 
ATOM      8  C   UNL     1       4.040  15.620  20.821  0.00  0.00    +0.000 A 
ATOM      9  C   UNL     1       3.011  14.617  21.027  0.00  0.00    +0.000 A 
ATOM     10  C   UNL     1       1.909  14.496  20.118  0.00  0.00    +0.000 A 
ATOM     11  C   UNL     1       0.510  13.657  20.199  0.00  0.00    +0.000 C 
ENDROOT
BRANCH  11  12
ATOM     12  C   UNL     1      -0.470  12.553  19.469  0.00  0.00    +0.000 A 
ATOM     13  C   UNL     1      -1.159  12.801  18.268  0.00  0.00    +0.000 A 
ATOM     14  C   UNL     1      -1.644  11.725  17.483  0.00  0.00    +0.000 A 
ATOM     15  C   UNL     1      -1.452  10.401  17.873  0.00  0.00    +0.000 A 
ATOM     16  F   UNL     1      -1.863   9.398  17.082  0.00  0.00    +0.000 F 
ATOM     17  C   UNL     1      -0.837  10.117  19.066  0.00  0.00    +0.000 A 
ATOM     18  C   UNL     1      -0.373  11.171  19.847  0.00  0.00    +0.000 A 
ENDBRANCH  11  12
BRANCH   1  22
ATOM     19  C   UNL     1      -3.500  13.153  23.240  0.00  0.00    +0.000 A 
ATOM     20  C   UNL     1      -3.829  13.791  22.043  0.00  0.00    +0.000 A 
ATOM     21  C   UNL     1      -2.822  14.346  21.244  0.00  0.00    +0.000 A 
ATOM     22  C   UNL     1      -1.471  14.256  21.609  0.00  0.00    +0.000 A 
ATOM     23  C   UNL     1      -1.153  13.600  22.808  0.00  0.00    +0.000 A 
ATOM     24  C   UNL     1      -2.161  13.060  23.621  0.00  0.00    +0.000 A 
BRANCH  19  25
ATOM     25  C   UNL     1      -4.605  12.597  24.080  0.00  0.00    +0.000 C 
ATOM     26  O   UNL     1      -4.485  12.269  25.255  0.00  0.00    +0.000 OA
BRANCH  25  28
ATOM     27  C   UNL     1      -6.944  12.757  23.990  0.00  0.00    +0.000 C 
ATOM     28  O   UNL     1      -5.717  12.429  23.333  0.00  0.00    +0.000 OA
ENDBRANCH  25  28
ENDBRANCH  19  25
ENDBRANCH   1  22
BRANCH   7  29
ATOM     29  O   UNL     1       4.915  17.359  19.207  0.00  0.00    +0.000 OA
ATOM     30  C   UNL     1       6.184  17.017  18.672  0.00  0.00    +0.000 C 
ENDBRANCH   7  29
BRANCH   8  31
ATOM     31  O   UNL     1       5.090  15.953  21.619  0.00  0.00    +0.000 OA
ATOM     32  C   UNL     1       6.240  15.223  21.969  0.00  0.00    +0.000 C 
ENDBRANCH   8  31
TORSDOF 6
ENDMDL
MODEL 9
REMARK VINA RESULT:      -6.1      4.121      8.079
REMARK  Name = 
REMARK  9 active torsions:
REMARK  status: ('A' for Active; 'I' for Inactive)
REMARK    1  A    between atoms: C_1  and  O_2
REMARK    2  A    between atoms: O_2  and  C_3
REMARK    3  A    between atoms: C_3  and  C_5
REMARK    4  A    between atoms: C_8  and  N_9
REMARK    5  A    between atoms: C_15  and  O_16
REMARK    6  A    between atoms: O_16  and  C_17
REMARK    7  A    between atoms: C_18  and  O_19
REMARK    8  A    between atoms: O_19  and  C_20
REMARK    9  A    between atoms: C_23  and  C_24
REMARK                            x       y       z     vdW  Elec       q    Type
REMARK                         _______ _______ _______ _____ _____    ______ ____
ROOT
ATOM      1  N   UNL     1      -0.292  14.226  20.405  0.00  0.00    +0.000 N 
ATOM      2  C   UNL     1      -0.377  15.488  19.798  0.00  0.00    +0.000 C 
ATOM      3  O   UNL     1      -1.164  16.377  20.134  0.00  0.00    +0.000 OA
ATOM      4  C   UNL     1       0.636  15.729  18.671  0.00  0.00    +0.000 C 
ATOM      5  C   UNL     1       2.019  15.376  19.153  0.00  0.00    +0.000 A 
ATOM      6  C   UNL     1       3.038  16.295  18.933  0.00  0.00    +0.000 A 
ATOM      7  C   UNL     1       4.065  16.410  19.850  0.00  0.00    +0.000 A 
ATOM      8  C   UNL     1       4.047  15.580  20.992  0.00  0.00    +0.000 A 
ATOM      9  C   UNL     1       3.105  14.478  21.075  0.00  0.00    +0.000 A 
ATOM     10  C   UNL     1       2.114  14.280  20.059  0.00  0.00    +0.000 A 
ATOM     11  C   UNL     1       0.802  13.310  19.984  0.00  0.00    +0.000 C 
ENDROOT
BRANCH  11  12
ATOM     12  C   UNL     1       0.010  12.140  19.139  0.00  0.00    +0.000 A 
ATOM     13  C   UNL     1      -0.135  10.816  19.594  0.00  0.00    +0.000 A 
ATOM     14  C   UNL     1      -1.142   9.977  19.053  0.00  0.00    +0.000 A 
ATOM     15  C   UNL     1      -2.012  10.436  18.067  0.00  0.00    +0.000 A 
ATOM     16  F   UNL     1      -2.999   9.645  17.617  0.00  0.00    +0.000 F 
ATOM     17  C   UNL     1      -1.868  11.700  17.554  0.00  0.00    +0.000 A 
ATOM     18  C   UNL     1      -0.871  12.521  18.071  0.00  0.00    +0.000 A 
ENDBRANCH  11  12
BRANCH   1  22
ATOM     19  C   UNL     1      -3.473  12.880  22.898  0.00  0.00    +0.000 A 
ATOM     20  C   UNL     1      -2.161  12.902  23.374  0.00  0.00    +0.000 A 
ATOM     21  C   UNL     1      -1.114  13.287  22.528  0.00  0.00    +0.000 A 
ATOM     22  C   UNL     1      -1.355  13.677  21.202  0.00  0.00    +0.000 A 
ATOM     23  C   UNL     1      -2.680  13.664  20.742  0.00  0.00    +0.000 A 
ATOM     24  C   UNL     1      -3.730  13.260  21.580  0.00  0.00    +0.000 A 
BRANCH  19  25
ATOM     25  C   UNL     1      -4.560  12.438  23.823  0.00  0.00    +0.000 C 
ATOM     26  O   UNL     1      -4.377  12.020  24.960  0.00  0.00    +0.000 OA
BRANCH  25  28
ATOM     27  C   UNL     1      -6.886  12.646  24.049  0.00  0.00    +0.000 C 
ATOM     28  O   UNL     1      -5.754  12.482  23.192  0.00  0.00    +0.000 OA
ENDBRANCH  25  28
ENDBRANCH  19  25
ENDBRANCH   1  22
BRANCH   7  29
ATOM     29  O   UNL     1       4.902  17.440  19.506  0.00  0.00    +0.000 OA
ATOM     30  C   UNL     1       6.191  17.231  18.952  0.00  0.00    +0.000 C 
ENDBRANCH   7  29
BRANCH   8  31
ATOM     31  O   UNL     1       4.978  15.988  21.897  0.00  0.00    +0.000 OA
ATOM     32  C   UNL     1       6.162  15.368  22.333  0.00  0.00    +0.000 C 
ENDBRANCH   8  31
TORSDOF 6
ENDMDL
