MODEL 1
REMARK VINA RESULT:      -7.7      0.000      0.000
REMARK  Name = 
REMARK  8 active torsions:
REMARK  status: ('A' for Active; 'I' for Inactive)
REMARK    1  A    between atoms: C_1  and  O_2
REMARK    2  A    between atoms: O_2  and  C_3
REMARK    3  A    between atoms: C_5  and  O_6
REMARK    4  A    between atoms: O_6  and  C_7
REMARK    5  A    between atoms: C_9  and  C_10
REMARK    6  A    between atoms: N_12  and  C_13
REMARK    7  A    between atoms: C_16  and  N_17
REMARK    8  A    between atoms: C_23  and  C_24
REMARK                            x       y       z     vdW  Elec       q    Type
REMARK                         _______ _______ _______ _____ _____    ______ ____
ROOT
ATOM      1  C   UNL     1       2.341   7.395  19.442  0.00  0.00    +0.000 C 
ATOM      2  O   UNL     1       2.362   8.280  18.590  0.00  0.00    +0.000 OA
ATOM      3  N   UNL     1       1.768   7.499  20.697  0.00  0.00    +0.000 N 
ATOM      4  H   UNL     1       1.972   6.776  21.375  0.00  0.00    +0.000 HD
ENDROOT
BRANCH   3   5
ATOM      5  C   UNL     1       1.089   8.649  21.171  0.00  0.00    +0.000 A 
ATOM      6  C   UNL     1       1.158   9.132  22.467  0.00  0.00    +0.000 A 
ATOM      7  N   UNL     1       0.487  10.223  22.924  0.00  0.00    +0.000 NA
ATOM      8  C   UNL     1      -0.325  10.906  22.089  0.00  0.00    +0.000 A 
ATOM      9  C   UNL     1      -0.423  10.516  20.738  0.00  0.00    +0.000 A 
ATOM     10  C   UNL     1      -1.230  11.243  19.699  0.00  0.00    +0.000 C 
ATOM     11  C   UNL     1       0.288   9.374  20.296  0.00  0.00    +0.000 A 
BRANCH   8  12
ATOM     12  N   UNL     1      -0.987  11.997  22.620  0.00  0.00    +0.000 N 
ATOM     13  C   UNL     1      -2.341  11.807  23.153  0.00  0.00    +0.000 C 
ATOM     14  C   UNL     1      -3.384  12.618  22.385  0.00  0.00    +0.000 C 
ATOM     15  C   UNL     1      -2.964  14.077  22.243  0.00  0.00    +0.000 C 
ATOM     16  C   UNL     1      -1.596  14.162  21.584  0.00  0.00    +0.000 C 
ATOM     17  C   UNL     1      -0.552  13.365  22.359  0.00  0.00    +0.000 C 
ENDBRANCH   8  12
ENDBRANCH   3   5
BRANCH   1  22
ATOM     18  C   UNL     1       4.700   4.831  17.930  0.00  0.00    +0.000 A 
ATOM     19  C   UNL     1       4.374   3.725  18.725  0.00  0.00    +0.000 A 
ATOM     20  C   UNL     1       3.400   3.809  19.721  0.00  0.00    +0.000 A 
ATOM     21  C   UNL     1       2.754   5.021  19.927  0.00  0.00    +0.000 A 
ATOM     22  C   UNL     1       3.061   6.135  19.129  0.00  0.00    +0.000 A 
ATOM     23  C   UNL     1       4.040   6.046  18.133  0.00  0.00    +0.000 A 
BRANCH  18  25
ATOM     24  C   UNL     1       7.025   4.638  17.436  0.00  0.00    +0.000 C 
ATOM     25  O   UNL     1       5.674   4.585  17.001  0.00  0.00    +0.000 OA
ENDBRANCH  18  25
BRANCH  20  26
ATOM     26  O   UNL     1       3.167   2.654  20.414  0.00  0.00    +0.000 OA
ATOM     27  C   UNL     1       2.356   2.758  21.581  0.00  0.00    +0.000 C 
ENDBRANCH  20  26
ENDBRANCH   1  22
TORSDOF 5
ENDMDL
MODEL 2
REMARK VINA RESULT:      -7.7      0.996      2.353
REMARK  Name = 
REMARK  8 active torsions:
REMARK  status: ('A' for Active; 'I' for Inactive)
REMARK    1  A    between atoms: C_1  and  O_2
REMARK    2  A    between atoms: O_2  and  C_3
REMARK    3  A    between atoms: C_5  and  O_6
REMARK    4  A    between atoms: O_6  and  C_7
REMARK    5  A    between atoms: C_9  and  C_10
REMARK    6  A    between atoms: N_12  and  C_13
REMARK    7  A    between atoms: C_16  and  N_17
REMARK    8  A    between atoms: C_23  and  C_24
REMARK                            x       y       z     vdW  Elec       q    Type
REMARK                         _______ _______ _______ _____ _____    ______ ____
ROOT
ATOM      1  C   UNL     1       2.302   7.112  19.627  0.00  0.00    +0.000 C 
ATOM      2  O   UNL     1       2.511   7.979  18.782  0.00  0.00    +0.000 OA
ATOM      3  N   UNL     1       1.609   7.292  20.811  0.00  0.00    +0.000 N 
ATOM      4  H   UNL     1       1.659   6.560  21.508  0.00  0.00    +0.000 HD
ENDROOT
BRANCH   3   5
ATOM      5  C   UNL     1       1.009   8.514  21.206  0.00  0.00    +0.000 A 
ATOM      6  C   UNL     1       1.171   9.112  22.445  0.00  0.00    +0.000 A 
ATOM      7  N   UNL     1       0.576  10.272  22.828  0.00  0.00    +0.000 NA
ATOM      8  C   UNL     1      -0.250  10.914  21.974  0.00  0.00    +0.000 A 
ATOM      9  C   UNL     1      -0.440  10.405  20.673  0.00  0.00    +0.000 A 
ATOM     10  C   UNL     1      -1.270  11.070  19.612  0.00  0.00    +0.000 C 
ATOM     11  C   UNL     1       0.194   9.193  20.308  0.00  0.00    +0.000 A 
BRANCH   8  12
ATOM     12  N   UNL     1      -0.832  12.082  22.431  0.00  0.00    +0.000 N 
ATOM     13  C   UNL     1      -2.211  12.031  22.932  0.00  0.00    +0.000 C 
ATOM     14  C   UNL     1      -3.162  12.884  22.094  0.00  0.00    +0.000 C 
ATOM     15  C   UNL     1      -2.619  14.294  21.894  0.00  0.00    +0.000 C 
ATOM     16  C   UNL     1      -1.232  14.233  21.273  0.00  0.00    +0.000 C 
ATOM     17  C   UNL     1      -0.278  13.394  22.117  0.00  0.00    +0.000 C 
ENDBRANCH   8  12
ENDBRANCH   3   5
BRANCH   1  22
ATOM     18  C   UNL     1       2.807   3.409  18.955  0.00  0.00    +0.000 A 
ATOM     19  C   UNL     1       4.206   3.378  18.890  0.00  0.00    +0.000 A 
ATOM     20  C   UNL     1       4.966   4.533  19.072  0.00  0.00    +0.000 A 
ATOM     21  C   UNL     1       4.313   5.735  19.313  0.00  0.00    +0.000 A 
ATOM     22  C   UNL     1       2.913   5.778  19.396  0.00  0.00    +0.000 A 
ATOM     23  C   UNL     1       2.154   4.617  19.209  0.00  0.00    +0.000 A 
BRANCH  18  25
ATOM     24  C   UNL     1       0.790   2.156  18.731  0.00  0.00    +0.000 C 
ATOM     25  O   UNL     1       2.210   2.194  18.753  0.00  0.00    +0.000 OA
ENDBRANCH  18  25
BRANCH  20  26
ATOM     26  O   UNL     1       6.321   4.363  18.998  0.00  0.00    +0.000 OA
ATOM     27  C   UNL     1       6.949   4.732  17.774  0.00  0.00    +0.000 C 
ENDBRANCH  20  26
ENDBRANCH   1  22
TORSDOF 5
ENDMDL
MODEL 3
REMARK VINA RESULT:      -7.6      1.301      1.304
REMARK  Name = 
REMARK  8 active torsions:
REMARK  status: ('A' for Active; 'I' for Inactive)
REMARK    1  A    between atoms: C_1  and  O_2
REMARK    2  A    between atoms: O_2  and  C_3
REMARK    3  A    between atoms: C_5  and  O_6
REMARK    4  A    between atoms: O_6  and  C_7
REMARK    5  A    between atoms: C_9  and  C_10
REMARK    6  A    between atoms: N_12  and  C_13
REMARK    7  A    between atoms: C_16  and  N_17
REMARK    8  A    between atoms: C_23  and  C_24
REMARK                            x       y       z     vdW  Elec       q    Type
REMARK                         _______ _______ _______ _____ _____    ______ ____
ROOT
ATOM      1  C   UNL     1       2.336   7.885  18.550  0.00  0.00    +0.000 C 
ATOM      2  O   UNL     1       2.334   8.893  17.847  0.00  0.00    +0.000 OA
ATOM      3  N   UNL     1       1.812   7.792  19.827  0.00  0.00    +0.000 N 
ATOM      4  H   UNL     1       2.034   6.972  20.375  0.00  0.00    +0.000 HD
ENDROOT
BRANCH   3   5
ATOM      5  C   UNL     1       1.162   8.856  20.501  0.00  0.00    +0.000 A 
ATOM      6  C   UNL     1       1.370   9.198  21.828  0.00  0.00    +0.000 A 
ATOM      7  N   UNL     1       0.728  10.205  22.477  0.00  0.00    +0.000 NA
ATOM      8  C   UNL     1      -0.195  10.942  21.823  0.00  0.00    +0.000 A 
ATOM      9  C   UNL     1      -0.441  10.697  20.456  0.00  0.00    +0.000 A 
ATOM     10  C   UNL     1      -1.383  11.499  19.605  0.00  0.00    +0.000 C 
ATOM     11  C   UNL     1       0.244   9.640  19.810  0.00  0.00    +0.000 A 
BRANCH   8  12
ATOM     12  N   UNL     1      -0.820  11.941  22.545  0.00  0.00    +0.000 N 
ATOM     13  C   UNL     1      -2.100  11.642  23.197  0.00  0.00    +0.000 C 
ATOM     14  C   UNL     1      -3.242  12.495  22.646  0.00  0.00    +0.000 C 
ATOM     15  C   UNL     1      -2.877  13.975  22.629  0.00  0.00    +0.000 C 
ATOM     16  C   UNL     1      -1.594  14.184  21.839  0.00  0.00    +0.000 C 
ATOM     17  C   UNL     1      -0.450  13.345  22.399  0.00  0.00    +0.000 C 
ENDBRANCH   8  12
ENDBRANCH   3   5
BRANCH   1  22
ATOM     18  C   UNL     1       4.934   5.546  17.068  0.00  0.00    +0.000 A 
ATOM     19  C   UNL     1       4.219   4.342  17.130  0.00  0.00    +0.000 A 
ATOM     20  C   UNL     1       2.918   4.297  17.630  0.00  0.00    +0.000 A 
ATOM     21  C   UNL     1       2.332   5.473  18.084  0.00  0.00    +0.000 A 
ATOM     22  C   UNL     1       3.032   6.688  18.015  0.00  0.00    +0.000 A 
ATOM     23  C   UNL     1       4.338   6.727  17.514  0.00  0.00    +0.000 A 
BRANCH  18  25
ATOM     24  C   UNL     1       7.149   4.697  17.319  0.00  0.00    +0.000 C 
ATOM     25  O   UNL     1       6.196   5.421  16.553  0.00  0.00    +0.000 OA
ENDBRANCH  18  25
BRANCH  20  26
ATOM     26  O   UNL     1       2.327   3.064  17.621  0.00  0.00    +0.000 OA
ATOM     27  C   UNL     1       3.132   1.963  18.031  0.00  0.00    +0.000 C 
ENDBRANCH  20  26
ENDBRANCH   1  22
TORSDOF 5
ENDMDL
MODEL 4
REMARK VINA RESULT:      -7.6      1.268      2.552
REMARK  Name = 
REMARK  8 active torsions:
REMARK  status: ('A' for Active; 'I' for Inactive)
REMARK    1  A    between atoms: C_1  and  O_2
REMARK    2  A    between atoms: O_2  and  C_3
REMARK    3  A    between atoms: C_5  and  O_6
REMARK    4  A    between atoms: O_6  and  C_7
REMARK    5  A    between atoms: C_9  and  C_10
REMARK    6  A    between atoms: N_12  and  C_13
REMARK    7  A    between atoms: C_16  and  N_17
REMARK    8  A    between atoms: C_23  and  C_24
REMARK                            x       y       z     vdW  Elec       q    Type
REMARK                         _______ _______ _______ _____ _____    ______ ____
ROOT
ATOM      1  C   UNL     1       2.339   7.826  18.622  0.00  0.00    +0.000 C 
ATOM      2  O   UNL     1       2.427   8.845  17.942  0.00  0.00    +0.000 OA
ATOM      3  N   UNL     1       1.741   7.738  19.867  0.00  0.00    +0.000 N 
ATOM      4  H   UNL     1       1.890   6.898  20.409  0.00  0.00    +0.000 HD
ENDROOT
BRANCH   3   5
ATOM      5  C   UNL     1       1.112   8.823  20.528  0.00  0.00    +0.000 A 
ATOM      6  C   UNL     1       1.342   9.190  21.844  0.00  0.00    +0.000 A 
ATOM      7  N   UNL     1       0.720  10.218  22.480  0.00  0.00    +0.000 NA
ATOM      8  C   UNL     1      -0.204  10.951  21.823  0.00  0.00    +0.000 A 
ATOM      9  C   UNL     1      -0.471  10.680  20.466  0.00  0.00    +0.000 A 
ATOM     10  C   UNL     1      -1.418  11.474  19.611  0.00  0.00    +0.000 C 
ATOM     11  C   UNL     1       0.193   9.602  19.833  0.00  0.00    +0.000 A 
BRANCH   8  12
ATOM     12  N   UNL     1      -0.808  11.972  22.533  0.00  0.00    +0.000 N 
ATOM     13  C   UNL     1      -2.084  11.702  23.206  0.00  0.00    +0.000 C 
ATOM     14  C   UNL     1      -3.222  12.558  22.651  0.00  0.00    +0.000 C 
ATOM     15  C   UNL     1      -2.839  14.033  22.600  0.00  0.00    +0.000 C 
ATOM     16  C   UNL     1      -1.563  14.210  21.791  0.00  0.00    +0.000 C 
ATOM     17  C   UNL     1      -0.423  13.368  22.354  0.00  0.00    +0.000 C 
ENDBRANCH   8  12
ENDBRANCH   3   5
BRANCH   1  22
ATOM     18  C   UNL     1       3.052   4.256  17.544  0.00  0.00    +0.000 A 
ATOM     19  C   UNL     1       4.336   4.431  17.011  0.00  0.00    +0.000 A 
ATOM     20  C   UNL     1       4.959   5.679  17.015  0.00  0.00    +0.000 A 
ATOM     21  C   UNL     1       4.279   6.766  17.550  0.00  0.00    +0.000 A 
ATOM     22  C   UNL     1       2.998   6.603  18.100  0.00  0.00    +0.000 A 
ATOM     23  C   UNL     1       2.377   5.348  18.092  0.00  0.00    +0.000 A 
BRANCH  18  25
ATOM     24  C   UNL     1       1.616   2.566  18.421  0.00  0.00    +0.000 C 
ATOM     25  O   UNL     1       2.583   2.973  17.464  0.00  0.00    +0.000 OA
ENDBRANCH  18  25
BRANCH  20  26
ATOM     26  O   UNL     1       6.216   5.711  16.478  0.00  0.00    +0.000 OA
ATOM     27  C   UNL     1       7.107   4.669  16.867  0.00  0.00    +0.000 C 
ENDBRANCH  20  26
ENDBRANCH   1  22
TORSDOF 5
ENDMDL
MODEL 5
REMARK VINA RESULT:      -7.5      1.625      3.147
REMARK  Name = 
REMARK  8 active torsions:
REMARK  status: ('A' for Active; 'I' for Inactive)
REMARK    1  A    between atoms: C_1  and  O_2
REMARK    2  A    between atoms: O_2  and  C_3
REMARK    3  A    between atoms: C_5  and  O_6
REMARK    4  A    between atoms: O_6  and  C_7
REMARK    5  A    between atoms: C_9  and  C_10
REMARK    6  A    between atoms: N_12  and  C_13
REMARK    7  A    between atoms: C_16  and  N_17
REMARK    8  A    between atoms: C_23  and  C_24
REMARK                            x       y       z     vdW  Elec       q    Type
REMARK                         _______ _______ _______ _____ _____    ______ ____
ROOT
ATOM      1  C   UNL     1       2.452   8.006  18.190  0.00  0.00    +0.000 C 
ATOM      2  O   UNL     1       2.377   8.866  17.316  0.00  0.00    +0.000 OA
ATOM      3  N   UNL     1       1.877   8.083  19.447  0.00  0.00    +0.000 N 
ATOM      4  H   UNL     1       2.158   7.404  20.142  0.00  0.00    +0.000 HD
ENDROOT
BRANCH   3   5
ATOM      5  C   UNL     1       1.085   9.170  19.896  0.00  0.00    +0.000 A 
ATOM      6  C   UNL     1       0.744  10.272  19.128  0.00  0.00    +0.000 A 
ATOM      7  N   UNL     1       0.004  11.323  19.570  0.00  0.00    +0.000 NA
ATOM      8  C   UNL     1      -0.440  11.340  20.845  0.00  0.00    +0.000 A 
ATOM      9  C   UNL     1      -0.181  10.240  21.687  0.00  0.00    +0.000 A 
ATOM     10  C   UNL     1      -0.688  10.110  23.096  0.00  0.00    +0.000 C 
ATOM     11  C   UNL     1       0.594   9.162  21.197  0.00  0.00    +0.000 A 
BRANCH   8  12
ATOM     12  N   UNL     1      -1.176  12.444  21.233  0.00  0.00    +0.000 N 
ATOM     13  C   UNL     1      -0.520  13.477  22.044  0.00  0.00    +0.000 C 
ATOM     14  C   UNL     1      -1.162  13.622  23.423  0.00  0.00    +0.000 C 
ATOM     15  C   UNL     1      -2.675  13.770  23.323  0.00  0.00    +0.000 C 
ATOM     16  C   UNL     1      -3.262  12.595  22.557  0.00  0.00    +0.000 C 
ATOM     17  C   UNL     1      -2.634  12.459  21.174  0.00  0.00    +0.000 C 
ENDBRANCH   8  12
ENDBRANCH   3   5
BRANCH   1  22
ATOM     18  C   UNL     1       3.803   4.462  18.007  0.00  0.00    +0.000 A 
ATOM     19  C   UNL     1       4.933   4.690  17.210  0.00  0.00    +0.000 A 
ATOM     20  C   UNL     1       5.253   5.969  16.755  0.00  0.00    +0.000 A 
ATOM     21  C   UNL     1       4.423   7.030  17.095  0.00  0.00    +0.000 A 
ATOM     22  C   UNL     1       3.296   6.818  17.904  0.00  0.00    +0.000 A 
ATOM     23  C   UNL     1       2.977   5.533  18.356  0.00  0.00    +0.000 A 
BRANCH  18  25
ATOM     24  C   UNL     1       2.610   2.419  17.707  0.00  0.00    +0.000 C 
ATOM     25  O   UNL     1       3.629   3.154  18.370  0.00  0.00    +0.000 OA
ENDBRANCH  18  25
BRANCH  20  26
ATOM     26  O   UNL     1       6.389   6.057  15.999  0.00  0.00    +0.000 OA
ATOM     27  C   UNL     1       6.825   4.864  15.353  0.00  0.00    +0.000 C 
ENDBRANCH  20  26
ENDBRANCH   1  22
TORSDOF 5
ENDMDL
MODEL 6
REMARK VINA RESULT:      -7.5      0.415      2.418
REMARK  Name = 
REMARK  8 active torsions:
REMARK  status: ('A' for Active; 'I' for Inactive)
REMARK    1  A    between atoms: C_1  and  O_2
REMARK    2  A    between atoms: O_2  and  C_3
REMARK    3  A    between atoms: C_5  and  O_6
REMARK    4  A    between atoms: O_6  and  C_7
REMARK    5  A    between atoms: C_9  and  C_10
REMARK    6  A    between atoms: N_12  and  C_13
REMARK    7  A    between atoms: C_16  and  N_17
REMARK    8  A    between atoms: C_23  and  C_24
REMARK                            x       y       z     vdW  Elec       q    Type
REMARK                         _______ _______ _______ _____ _____    ______ ____
ROOT
ATOM      1  C   UNL     1       2.191   7.542  19.516  0.00  0.00    +0.000 C 
ATOM      2  O   UNL     1       2.170   8.425  18.663  0.00  0.00    +0.000 OA
ATOM      3  N   UNL     1       1.646   7.635  20.785  0.00  0.00    +0.000 N 
ATOM      4  H   UNL     1       1.884   6.919  21.459  0.00  0.00    +0.000 HD
ENDROOT
BRANCH   3   5
ATOM      5  C   UNL     1       0.952   8.770  21.273  0.00  0.00    +0.000 A 
ATOM      6  C   UNL     1       0.971   9.205  22.588  0.00  0.00    +0.000 A 
ATOM      7  N   UNL     1       0.287  10.282  23.058  0.00  0.00    +0.000 NA
ATOM      8  C   UNL     1      -0.490  10.999  22.217  0.00  0.00    +0.000 A 
ATOM      9  C   UNL     1      -0.535  10.659  20.850  0.00  0.00    +0.000 A 
ATOM     10  C   UNL     1      -1.298  11.426  19.808  0.00  0.00    +0.000 C 
ATOM     11  C   UNL     1       0.189   9.531  20.395  0.00  0.00    +0.000 A 
BRANCH   8  12
ATOM     12  N   UNL     1      -1.169  12.073  22.762  0.00  0.00    +0.000 N 
ATOM     13  C   UNL     1      -2.547  11.871  23.226  0.00  0.00    +0.000 C 
ATOM     14  C   UNL     1      -3.549  12.720  22.445  0.00  0.00    +0.000 C 
ATOM     15  C   UNL     1      -3.116  14.180  22.381  0.00  0.00    +0.000 C 
ATOM     16  C   UNL     1      -1.719  14.281  21.788  0.00  0.00    +0.000 C 
ATOM     17  C   UNL     1      -0.715  13.447  22.576  0.00  0.00    +0.000 C 
ENDBRANCH   8  12
ENDBRANCH   3   5
BRANCH   1  22
ATOM     18  C   UNL     1       3.599   4.016  19.598  0.00  0.00    +0.000 A 
ATOM     19  C   UNL     1       4.302   4.024  18.386  0.00  0.00    +0.000 A 
ATOM     20  C   UNL     1       4.327   5.153  17.569  0.00  0.00    +0.000 A 
ATOM     21  C   UNL     1       3.628   6.286  17.968  0.00  0.00    +0.000 A 
ATOM     22  C   UNL     1       2.931   6.298  19.187  0.00  0.00    +0.000 A 
ATOM     23  C   UNL     1       2.907   5.161  20.002  0.00  0.00    +0.000 A 
BRANCH  18  25
ATOM     24  C   UNL     1       2.614   2.524  21.176  0.00  0.00    +0.000 C 
ATOM     25  O   UNL     1       3.672   2.833  20.281  0.00  0.00    +0.000 OA
ENDBRANCH  18  25
BRANCH  20  26
ATOM     26  O   UNL     1       5.062   5.034  16.422  0.00  0.00    +0.000 OA
ATOM     27  C   UNL     1       6.463   4.831  16.575  0.00  0.00    +0.000 C 
ENDBRANCH  20  26
ENDBRANCH   1  22
TORSDOF 5
ENDMDL
MODEL 7
REMARK VINA RESULT:      -7.4      1.135      1.730
REMARK  Name = 
REMARK  8 active torsions:
REMARK  status: ('A' for Active; 'I' for Inactive)
REMARK    1  A    between atoms: C_1  and  O_2
REMARK    2  A    between atoms: O_2  and  C_3
REMARK    3  A    between atoms: C_5  and  O_6
REMARK    4  A    between atoms: O_6  and  C_7
REMARK    5  A    between atoms: C_9  and  C_10
REMARK    6  A    between atoms: N_12  and  C_13
REMARK    7  A    between atoms: C_16  and  N_17
REMARK    8  A    between atoms: C_23  and  C_24
REMARK                            x       y       z     vdW  Elec       q    Type
REMARK                         _______ _______ _______ _____ _____    ______ ____
ROOT
ATOM      1  C   UNL     1       2.574   7.113  19.217  0.00  0.00    +0.000 C 
ATOM      2  O   UNL     1       2.697   7.809  18.212  0.00  0.00    +0.000 OA
ATOM      3  N   UNL     1       1.872   7.461  20.357  0.00  0.00    +0.000 N 
ATOM      4  H   UNL     1       1.995   6.891  21.184  0.00  0.00    +0.000 HD
ENDROOT
BRANCH   3   5
ATOM      5  C   UNL     1       1.162   8.677  20.516  0.00  0.00    +0.000 A 
ATOM      6  C   UNL     1       1.057   9.665  19.550  0.00  0.00    +0.000 A 
ATOM      7  N   UNL     1       0.393  10.839  19.714  0.00  0.00    +0.000 NA
ATOM      8  C   UNL     1      -0.212  11.108  20.891  0.00  0.00    +0.000 A 
ATOM      9  C   UNL     1      -0.197  10.142  21.918  0.00  0.00    +0.000 A 
ATOM     10  C   UNL     1      -0.898  10.294  23.238  0.00  0.00    +0.000 C 
ATOM     11  C   UNL     1       0.505   8.929  21.715  0.00  0.00    +0.000 A 
BRANCH   8  12
ATOM     12  N   UNL     1      -0.857  12.326  20.995  0.00  0.00    +0.000 N 
ATOM     13  C   UNL     1      -0.186  13.420  21.706  0.00  0.00    +0.000 C 
ATOM     14  C   UNL     1      -0.958  13.862  22.948  0.00  0.00    +0.000 C 
ATOM     15  C   UNL     1      -2.424  14.129  22.630  0.00  0.00    +0.000 C 
ATOM     16  C   UNL     1      -3.049  12.896  21.995  0.00  0.00    +0.000 C 
ATOM     17  C   UNL     1      -2.288  12.464  20.746  0.00  0.00    +0.000 C 
ENDBRANCH   8  12
ENDBRANCH   3   5
BRANCH   1  22
ATOM     18  C   UNL     1       5.251   4.442  18.871  0.00  0.00    +0.000 A 
ATOM     19  C   UNL     1       4.566   3.358  19.436  0.00  0.00    +0.000 A 
ATOM     20  C   UNL     1       3.260   3.491  19.905  0.00  0.00    +0.000 A 
ATOM     21  C   UNL     1       2.638   4.731  19.817  0.00  0.00    +0.000 A 
ATOM     22  C   UNL     1       3.307   5.822  19.241  0.00  0.00    +0.000 A 
ATOM     23  C   UNL     1       4.619   5.683  18.773  0.00  0.00    +0.000 A 
BRANCH  18  25
ATOM     24  C   UNL     1       7.303   5.208  17.927  0.00  0.00    +0.000 C 
ATOM     25  O   UNL     1       6.523   4.147  18.459  0.00  0.00    +0.000 OA
ENDBRANCH  18  25
BRANCH  20  26
ATOM     26  O   UNL     1       2.701   2.354  20.419  0.00  0.00    +0.000 OA
ATOM     27  C   UNL     1       1.860   2.510  21.558  0.00  0.00    +0.000 C 
ENDBRANCH  20  26
ENDBRANCH   1  22
TORSDOF 5
ENDMDL
MODEL 8
REMARK VINA RESULT:      -7.4      2.525      2.947
REMARK  Name = 
REMARK  8 active torsions:
REMARK  status: ('A' for Active; 'I' for Inactive)
REMARK    1  A    between atoms: C_1  and  O_2
REMARK    2  A    between atoms: O_2  and  C_3
REMARK    3  A    between atoms: C_5  and  O_6
REMARK    4  A    between atoms: O_6  and  C_7
REMARK    5  A    between atoms: C_9  and  C_10
REMARK    6  A    between atoms: N_12  and  C_13
REMARK    7  A    between atoms: C_16  and  N_17
REMARK    8  A    between atoms: C_23  and  C_24
REMARK                            x       y       z     vdW  Elec       q    Type
REMARK                         _______ _______ _______ _____ _____    ______ ____
ROOT
ATOM      1  C   UNL     1       2.432   7.468  18.571  0.00  0.00    +0.000 C 
ATOM      2  O   UNL     1       2.278   7.485  19.789  0.00  0.00    +0.000 OA
ATOM      3  N   UNL     1       2.048   8.469  17.696  0.00  0.00    +0.000 N 
ATOM      4  H   UNL     1       2.058   8.266  16.705  0.00  0.00    +0.000 HD
ENDROOT
BRANCH   3   5
ATOM      5  C   UNL     1       1.440   9.686  18.094  0.00  0.00    +0.000 A 
ATOM      6  C   UNL     1       2.126  10.833  18.458  0.00  0.00    +0.000 A 
ATOM      7  N   UNL     1       1.540  11.991  18.862  0.00  0.00    +0.000 NA
ATOM      8  C   UNL     1       0.194  12.067  18.939  0.00  0.00    +0.000 A 
ATOM      9  C   UNL     1      -0.590  10.964  18.545  0.00  0.00    +0.000 A 
ATOM     10  C   UNL     1      -2.093  10.957  18.513  0.00  0.00    +0.000 C 
ATOM     11  C   UNL     1       0.053   9.773  18.131  0.00  0.00    +0.000 A 
BRANCH   8  12
ATOM     12  N   UNL     1      -0.337  13.269  19.369  0.00  0.00    +0.000 N 
ATOM     13  C   UNL     1      -0.152  14.460  18.532  0.00  0.00    +0.000 C 
ATOM     14  C   UNL     1       0.666  15.541  19.236  0.00  0.00    +0.000 C 
ATOM     15  C   UNL     1       0.125  15.833  20.631  0.00  0.00    +0.000 C 
ATOM     16  C   UNL     1       0.076  14.550  21.447  0.00  0.00    +0.000 C 
ATOM     17  C   UNL     1      -0.754  13.477  20.752  0.00  0.00    +0.000 C 
ENDBRANCH   8  12
ENDBRANCH   3   5
BRANCH   1  22
ATOM     18  C   UNL     1       4.780   4.966  16.944  0.00  0.00    +0.000 A 
ATOM     19  C   UNL     1       3.963   3.829  16.982  0.00  0.00    +0.000 A 
ATOM     20  C   UNL     1       2.675   3.879  17.512  0.00  0.00    +0.000 A 
ATOM     21  C   UNL     1       2.204   5.084  18.021  0.00  0.00    +0.000 A 
ATOM     22  C   UNL     1       3.007   6.235  17.977  0.00  0.00    +0.000 A 
ATOM     23  C   UNL     1       4.301   6.178  17.446  0.00  0.00    +0.000 A 
BRANCH  18  25
ATOM     24  C   UNL     1       7.150   4.993  17.213  0.00  0.00    +0.000 C 
ATOM     25  O   UNL     1       6.015   4.751  16.394  0.00  0.00    +0.000 OA
ENDBRANCH  18  25
BRANCH  20  26
ATOM     26  O   UNL     1       1.977   2.704  17.475  0.00  0.00    +0.000 OA
ATOM     27  C   UNL     1       1.214   2.373  18.632  0.00  0.00    +0.000 C 
ENDBRANCH  20  26
ENDBRANCH   1  22
TORSDOF 5
ENDMDL
MODEL 9
REMARK VINA RESULT:      -7.4      1.412      2.010
REMARK  Name = 
REMARK  8 active torsions:
REMARK  status: ('A' for Active; 'I' for Inactive)
REMARK    1  A    between atoms: C_1  and  O_2
REMARK    2  A    between atoms: O_2  and  C_3
REMARK    3  A    between atoms: C_5  and  O_6
REMARK    4  A    between atoms: O_6  and  C_7
REMARK    5  A    between atoms: C_9  and  C_10
REMARK    6  A    between atoms: N_12  and  C_13
REMARK    7  A    between atoms: C_16  and  N_17
REMARK    8  A    between atoms: C_23  and  C_24
REMARK                            x       y       z     vdW  Elec       q    Type
REMARK                         _______ _______ _______ _____ _____    ______ ____
ROOT
ATOM      1  C   UNL     1       2.343   7.989  18.189  0.00  0.00    +0.000 C 
ATOM      2  O   UNL     1       2.277   8.850  17.315  0.00  0.00    +0.000 OA
ATOM      3  N   UNL     1       1.779   8.077  19.450  0.00  0.00    +0.000 N 
ATOM      4  H   UNL     1       2.053   7.393  20.143  0.00  0.00    +0.000 HD
ENDROOT
BRANCH   3   5
ATOM      5  C   UNL     1       1.010   9.177  19.905  0.00  0.00    +0.000 A 
ATOM      6  C   UNL     1       0.686  10.287  19.141  0.00  0.00    +0.000 A 
ATOM      7  N   UNL     1      -0.033  11.350  19.588  0.00  0.00    +0.000 NA
ATOM      8  C   UNL     1      -0.470  11.373  20.865  0.00  0.00    +0.000 A 
ATOM      9  C   UNL     1      -0.227  10.267  21.705  0.00  0.00    +0.000 A 
ATOM     10  C   UNL     1      -0.730  10.144  23.115  0.00  0.00    +0.000 C 
ATOM     11  C   UNL     1       0.526   9.176  21.208  0.00  0.00    +0.000 A 
BRANCH   8  12
ATOM     12  N   UNL     1      -1.183  12.491  21.258  0.00  0.00    +0.000 N 
ATOM     13  C   UNL     1      -0.508  13.504  22.078  0.00  0.00    +0.000 C 
ATOM     14  C   UNL     1      -1.150  13.654  23.456  0.00  0.00    +0.000 C 
ATOM     15  C   UNL     1      -2.660  13.834  23.354  0.00  0.00    +0.000 C 
ATOM     16  C   UNL     1      -3.269  12.676  22.579  0.00  0.00    +0.000 C 
ATOM     17  C   UNL     1      -2.640  12.537  21.197  0.00  0.00    +0.000 C 
ENDBRANCH   8  12
ENDBRANCH   3   5
BRANCH   1  22
ATOM     18  C   UNL     1       5.183   5.682  17.176  0.00  0.00    +0.000 A 
ATOM     19  C   UNL     1       4.596   4.448  17.486  0.00  0.00    +0.000 A 
ATOM     20  C   UNL     1       3.302   4.370  18.000  0.00  0.00    +0.000 A 
ATOM     21  C   UNL     1       2.593   5.545  18.216  0.00  0.00    +0.000 A 
ATOM     22  C   UNL     1       3.164   6.787  17.897  0.00  0.00    +0.000 A 
ATOM     23  C   UNL     1       4.464   6.861  17.383  0.00  0.00    +0.000 A 
BRANCH  18  25
ATOM     24  C   UNL     1       7.367   4.743  17.371  0.00  0.00    +0.000 C 
ATOM     25  O   UNL     1       6.456   5.588  16.682  0.00  0.00    +0.000 OA
ENDBRANCH  18  25
BRANCH  20  26
ATOM     26  O   UNL     1       2.842   3.105  18.245  0.00  0.00    +0.000 OA
ATOM     27  C   UNL     1       2.955   2.629  19.583  0.00  0.00    +0.000 C 
ENDBRANCH  20  26
ENDBRANCH   1  22
TORSDOF 5
ENDMDL
