MODEL 1
REMARK VINA RESULT:      -8.4      0.000      0.000
REMARK  Name = 
REMARK  6 active torsions:
REMARK  status: ('A' for Active; 'I' for Inactive)
REMARK    1  A    between atoms: C_1  and  C_2
REMARK    2  A    between atoms: C_5  and  N_6
REMARK    3  A    between atoms: N_6  and  C_7
REMARK    4  A    between atoms: C_7  and  C_8
REMARK    5  A    between atoms: N_10  and  C_11
REMARK    6  A    between atoms: C_14  and  C_15
REMARK                            x       y       z     vdW  Elec       q    Type
REMARK                         _______ _______ _______ _____ _____    ______ ____
ROOT
ATOM      1  C   UNL     1       2.618   6.289  19.251  0.00  0.00    +0.000 A 
ATOM      2  C   UNL     1       2.556   7.436  18.461  0.00  0.00    +0.000 A 
ATOM      3  C   UNL     1       1.831   8.561  18.876  0.00  0.00    +0.000 A 
ATOM      4  C   UNL     1       1.150   8.565  20.098  0.00  0.00    +0.000 A 
ATOM      5  C   UNL     1       1.216   7.406  20.889  0.00  0.00    +0.000 A 
ATOM      6  C   UNL     1       1.931   6.278  20.468  0.00  0.00    +0.000 A 
ENDROOT
BRANCH   4   7
ATOM      7  C   UNL     1       0.310   9.688  20.550  0.00  0.00    +0.000 A 
ATOM      8  N   UNL     1       0.011   9.897  21.816  0.00  0.00    +0.000 NA
ATOM      9  C   UNL     1      -0.857  10.963  21.939  0.00  0.00    +0.000 A 
ATOM     10  C   UNL     1      -1.427  11.418  23.146  0.00  0.00    +0.000 A 
ATOM     11  C   UNL     1      -2.311  12.498  23.131  0.00  0.00    +0.000 A 
ATOM     12  C   UNL     1      -2.621  13.136  21.933  0.00  0.00    +0.000 A 
ATOM     13  C   UNL     1      -2.059  12.709  20.723  0.00  0.00    +0.000 A 
ATOM     14  C   UNL     1      -1.182  11.613  20.752  0.00  0.00    +0.000 A 
ATOM     15  S   UNL     1      -0.356  10.838  19.453  0.00  0.00    +0.000 S 
ENDBRANCH   4   7
BRANCH   1  18
ATOM     16  C   UNL     1       2.871   4.135  18.015  0.00  0.00    +0.000 C 
ATOM     17  O   UNL     1       1.797   4.133  17.411  0.00  0.00    +0.000 OA
ATOM     18  N   UNL     1       3.317   5.121  18.878  0.00  0.00    +0.000 N 
ATOM     19  H   UNL     1       4.246   5.008  19.269  0.00  0.00    +0.000 HD
BRANCH  16  20
ATOM     20  C   UNL     1       3.834   2.956  17.861  0.00  0.00    +0.000 C 
BRANCH  20  21
ATOM     21  N   UNL     1       4.926   3.324  16.957  0.00  0.00    +0.000 N 
ATOM     22  H   UNL     1       4.644   3.274  15.976  0.00  0.00    +0.000 HD
BRANCH  21  27
ATOM     23  C   UNL     1       7.923   8.164  17.643  0.00  0.00    +0.000 C 
ATOM     24  C   UNL     1       7.138   6.897  17.492  0.00  0.00    +0.000 A 
ATOM     25  C   UNL     1       7.364   5.807  18.335  0.00  0.00    +0.000 A 
ATOM     26  C   UNL     1       6.636   4.622  18.178  0.00  0.00    +0.000 A 
ATOM     27  C   UNL     1       5.641   4.504  17.203  0.00  0.00    +0.000 A 
ATOM     28  C   UNL     1       5.444   5.593  16.343  0.00  0.00    +0.000 A 
ATOM     29  C   UNL     1       6.175   6.778  16.487  0.00  0.00    +0.000 A 
ENDBRANCH  21  27
ENDBRANCH  20  21
ENDBRANCH  16  20
ENDBRANCH   1  18
TORSDOF 5
ENDMDL
MODEL 2
REMARK VINA RESULT:      -8.4      0.462      1.379
REMARK  Name = 
REMARK  6 active torsions:
REMARK  status: ('A' for Active; 'I' for Inactive)
REMARK    1  A    between atoms: C_1  and  C_2
REMARK    2  A    between atoms: C_5  and  N_6
REMARK    3  A    between atoms: N_6  and  C_7
REMARK    4  A    between atoms: C_7  and  C_8
REMARK    5  A    between atoms: N_10  and  C_11
REMARK    6  A    between atoms: C_14  and  C_15
REMARK                            x       y       z     vdW  Elec       q    Type
REMARK                         _______ _______ _______ _____ _____    ______ ____
ROOT
ATOM      1  C   UNL     1       2.612   6.078  19.451  0.00  0.00    +0.000 A 
ATOM      2  C   UNL     1       1.890   6.067  20.644  0.00  0.00    +0.000 A 
ATOM      3  C   UNL     1       1.192   7.203  21.076  0.00  0.00    +0.000 A 
ATOM      4  C   UNL     1       1.199   8.380  20.321  0.00  0.00    +0.000 A 
ATOM      5  C   UNL     1       1.928   8.384  19.120  0.00  0.00    +0.000 A 
ATOM      6  C   UNL     1       2.635   7.252  18.694  0.00  0.00    +0.000 A 
ENDROOT
BRANCH   4   7
ATOM      7  C   UNL     1       0.549   9.626  20.763  0.00  0.00    +0.000 A 
ATOM      8  N   UNL     1      -0.118   9.725  21.895  0.00  0.00    +0.000 NA
ATOM      9  C   UNL     1      -0.692  10.975  22.010  0.00  0.00    +0.000 A 
ATOM     10  C   UNL     1      -1.525  11.397  23.067  0.00  0.00    +0.000 A 
ATOM     11  C   UNL     1      -2.061  12.687  23.054  0.00  0.00    +0.000 A 
ATOM     12  C   UNL     1      -1.765  13.560  22.012  0.00  0.00    +0.000 A 
ATOM     13  C   UNL     1      -0.932  13.168  20.957  0.00  0.00    +0.000 A 
ATOM     14  C   UNL     1      -0.411  11.864  20.976  0.00  0.00    +0.000 A 
ATOM     15  S   UNL     1       0.609  11.075  19.833  0.00  0.00    +0.000 S 
ENDBRANCH   4   7
BRANCH   1  18
ATOM     16  C   UNL     1       2.930   4.059  18.017  0.00  0.00    +0.000 C 
ATOM     17  O   UNL     1       1.859   4.084  17.411  0.00  0.00    +0.000 OA
ATOM     18  N   UNL     1       3.346   4.971  18.973  0.00  0.00    +0.000 N 
ATOM     19  H   UNL     1       4.276   4.848  19.356  0.00  0.00    +0.000 HD
BRANCH  16  20
ATOM     20  C   UNL     1       3.928   2.927  17.758  0.00  0.00    +0.000 C 
BRANCH  20  21
ATOM     21  N   UNL     1       4.867   3.328  16.708  0.00  0.00    +0.000 N 
ATOM     22  H   UNL     1       4.438   3.302  15.781  0.00  0.00    +0.000 HD
BRANCH  21  27
ATOM     23  C   UNL     1       7.879   8.101  17.713  0.00  0.00    +0.000 C 
ATOM     24  C   UNL     1       7.090   6.861  17.422  0.00  0.00    +0.000 A 
ATOM     25  C   UNL     1       6.011   6.886  16.538  0.00  0.00    +0.000 A 
ATOM     26  C   UNL     1       5.270   5.727  16.283  0.00  0.00    +0.000 A 
ATOM     27  C   UNL     1       5.608   4.505  16.873  0.00  0.00    +0.000 A 
ATOM     28  C   UNL     1       6.674   4.497  17.783  0.00  0.00    +0.000 A 
ATOM     29  C   UNL     1       7.413   5.655  18.051  0.00  0.00    +0.000 A 
ENDBRANCH  21  27
ENDBRANCH  20  21
ENDBRANCH  16  20
ENDBRANCH   1  18
TORSDOF 5
ENDMDL
MODEL 3
REMARK VINA RESULT:      -8.4      0.795      1.524
REMARK  Name = 
REMARK  6 active torsions:
REMARK  status: ('A' for Active; 'I' for Inactive)
REMARK    1  A    between atoms: C_1  and  C_2
REMARK    2  A    between atoms: C_5  and  N_6
REMARK    3  A    between atoms: N_6  and  C_7
REMARK    4  A    between atoms: C_7  and  C_8
REMARK    5  A    between atoms: N_10  and  C_11
REMARK    6  A    between atoms: C_14  and  C_15
REMARK                            x       y       z     vdW  Elec       q    Type
REMARK                         _______ _______ _______ _____ _____    ______ ____
ROOT
ATOM      1  C   UNL     1       2.609   6.341  19.471  0.00  0.00    +0.000 A 
ATOM      2  C   UNL     1       2.528   7.512  18.716  0.00  0.00    +0.000 A 
ATOM      3  C   UNL     1       1.768   8.604  19.157  0.00  0.00    +0.000 A 
ATOM      4  C   UNL     1       1.071   8.551  20.369  0.00  0.00    +0.000 A 
ATOM      5  C   UNL     1       1.157   7.369  21.123  0.00  0.00    +0.000 A 
ATOM      6  C   UNL     1       1.907   6.274  20.677  0.00  0.00    +0.000 A 
ENDROOT
BRANCH   4   7
ATOM      7  C   UNL     1       0.196   9.637  20.844  0.00  0.00    +0.000 A 
ATOM      8  N   UNL     1      -0.401  10.486  20.032  0.00  0.00    +0.000 NA
ATOM      9  C   UNL     1      -1.084  11.445  20.751  0.00  0.00    +0.000 A 
ATOM     10  C   UNL     1      -1.780  12.540  20.198  0.00  0.00    +0.000 A 
ATOM     11  C   UNL     1      -2.414  13.455  21.041  0.00  0.00    +0.000 A 
ATOM     12  C   UNL     1      -2.374  13.284  22.421  0.00  0.00    +0.000 A 
ATOM     13  C   UNL     1      -1.699  12.199  22.994  0.00  0.00    +0.000 A 
ATOM     14  C   UNL     1      -1.054  11.294  22.135  0.00  0.00    +0.000 A 
ATOM     15  S   UNL     1      -0.129   9.891  22.517  0.00  0.00    +0.000 S 
ENDBRANCH   4   7
BRANCH   1  18
ATOM     16  C   UNL     1       2.926   4.224  18.187  0.00  0.00    +0.000 C 
ATOM     17  O   UNL     1       1.851   4.201  17.587  0.00  0.00    +0.000 OA
ATOM     18  N   UNL     1       3.344   5.205  19.071  0.00  0.00    +0.000 N 
ATOM     19  H   UNL     1       4.277   5.113  19.456  0.00  0.00    +0.000 HD
BRANCH  16  20
ATOM     20  C   UNL     1       3.926   3.080  18.006  0.00  0.00    +0.000 C 
BRANCH  20  21
ATOM     21  N   UNL     1       4.873   3.415  16.940  0.00  0.00    +0.000 N 
ATOM     22  H   UNL     1       4.444   3.354  16.014  0.00  0.00    +0.000 HD
BRANCH  21  27
ATOM     23  C   UNL     1       7.950   8.188  17.730  0.00  0.00    +0.000 C 
ATOM     24  C   UNL     1       7.146   6.945  17.496  0.00  0.00    +0.000 A 
ATOM     25  C   UNL     1       6.111   6.925  16.558  0.00  0.00    +0.000 A 
ATOM     26  C   UNL     1       5.355   5.766  16.356  0.00  0.00    +0.000 A 
ATOM     27  C   UNL     1       5.633   4.586  17.053  0.00  0.00    +0.000 A 
ATOM     28  C   UNL     1       6.654   4.626  18.013  0.00  0.00    +0.000 A 
ATOM     29  C   UNL     1       7.408   5.785  18.229  0.00  0.00    +0.000 A 
ENDBRANCH  21  27
ENDBRANCH  20  21
ENDBRANCH  16  20
ENDBRANCH   1  18
TORSDOF 5
ENDMDL
MODEL 4
REMARK VINA RESULT:      -8.4      2.905     10.525
REMARK  Name = 
REMARK  6 active torsions:
REMARK  status: ('A' for Active; 'I' for Inactive)
REMARK    1  A    between atoms: C_1  and  C_2
REMARK    2  A    between atoms: C_5  and  N_6
REMARK    3  A    between atoms: N_6  and  C_7
REMARK    4  A    between atoms: C_7  and  C_8
REMARK    5  A    between atoms: N_10  and  C_11
REMARK    6  A    between atoms: C_14  and  C_15
REMARK                            x       y       z     vdW  Elec       q    Type
REMARK                         _______ _______ _______ _____ _____    ______ ____
ROOT
ATOM      1  C   UNL     1       0.575   9.738  20.020  0.00  0.00    +0.000 A 
ATOM      2  C   UNL     1       0.887   9.896  18.670  0.00  0.00    +0.000 A 
ATOM      3  C   UNL     1       1.693   8.964  18.002  0.00  0.00    +0.000 A 
ATOM      4  C   UNL     1       2.205   7.847  18.670  0.00  0.00    +0.000 A 
ATOM      5  C   UNL     1       1.886   7.694  20.029  0.00  0.00    +0.000 A 
ATOM      6  C   UNL     1       1.090   8.631  20.700  0.00  0.00    +0.000 A 
ENDROOT
BRANCH   4   7
ATOM      7  C   UNL     1       3.118   6.878  18.040  0.00  0.00    +0.000 A 
ATOM      8  N   UNL     1       4.176   7.238  17.341  0.00  0.00    +0.000 NA
ATOM      9  C   UNL     1       4.795   6.132  16.797  0.00  0.00    +0.000 A 
ATOM     10  C   UNL     1       5.918   6.160  15.943  0.00  0.00    +0.000 A 
ATOM     11  C   UNL     1       6.438   4.965  15.442  0.00  0.00    +0.000 A 
ATOM     12  C   UNL     1       5.863   3.748  15.792  0.00  0.00    +0.000 A 
ATOM     13  C   UNL     1       4.755   3.692  16.646  0.00  0.00    +0.000 A 
ATOM     14  C   UNL     1       4.234   4.902  17.132  0.00  0.00    +0.000 A 
ATOM     15  S   UNL     1       2.883   5.176  18.165  0.00  0.00    +0.000 S 
ENDBRANCH   4   7
BRANCH   1  18
ATOM     16  C   UNL     1       0.213  11.833  21.328  0.00  0.00    +0.000 C 
ATOM     17  O   UNL     1       1.354  12.292  21.274  0.00  0.00    +0.000 OA
ATOM     18  N   UNL     1      -0.217  10.650  20.750  0.00  0.00    +0.000 N 
ATOM     19  H   UNL     1      -1.201  10.422  20.840  0.00  0.00    +0.000 HD
BRANCH  16  20
ATOM     20  C   UNL     1      -0.872  12.575  22.112  0.00  0.00    +0.000 C 
BRANCH  20  21
ATOM     21  N   UNL     1      -2.153  12.465  21.410  0.00  0.00    +0.000 N 
ATOM     22  H   UNL     1      -2.184  11.648  20.796  0.00  0.00    +0.000 HD
BRANCH  21  27
ATOM     23  C   UNL     1      -7.076  13.185  24.258  0.00  0.00    +0.000 C 
ATOM     24  C   UNL     1      -5.783  12.975  23.531  0.00  0.00    +0.000 A 
ATOM     25  C   UNL     1      -4.608  12.680  24.225  0.00  0.00    +0.000 A 
ATOM     26  C   UNL     1      -3.402  12.500  23.540  0.00  0.00    +0.000 A 
ATOM     27  C   UNL     1      -3.340  12.572  22.145  0.00  0.00    +0.000 A 
ATOM     28  C   UNL     1      -4.519  12.899  21.461  0.00  0.00    +0.000 A 
ATOM     29  C   UNL     1      -5.728  13.091  22.140  0.00  0.00    +0.000 A 
ENDBRANCH  21  27
ENDBRANCH  20  21
ENDBRANCH  16  20
ENDBRANCH   1  18
TORSDOF 5
ENDMDL
MODEL 5
REMARK VINA RESULT:      -8.3      1.874      3.564
REMARK  Name = 
REMARK  6 active torsions:
REMARK  status: ('A' for Active; 'I' for Inactive)
REMARK    1  A    between atoms: C_1  and  C_2
REMARK    2  A    between atoms: C_5  and  N_6
REMARK    3  A    between atoms: N_6  and  C_7
REMARK    4  A    between atoms: C_7  and  C_8
REMARK    5  A    between atoms: N_10  and  C_11
REMARK    6  A    between atoms: C_14  and  C_15
REMARK                            x       y       z     vdW  Elec       q    Type
REMARK                         _______ _______ _______ _____ _____    ______ ____
ROOT
ATOM      1  C   UNL     1       2.859   6.925  18.086  0.00  0.00    +0.000 A 
ATOM      2  C   UNL     1       2.572   8.177  17.542  0.00  0.00    +0.000 A 
ATOM      3  C   UNL     1       1.924   9.162  18.299  0.00  0.00    +0.000 A 
ATOM      4  C   UNL     1       1.549   8.918  19.624  0.00  0.00    +0.000 A 
ATOM      5  C   UNL     1       1.841   7.655  20.166  0.00  0.00    +0.000 A 
ATOM      6  C   UNL     1       2.478   6.667  19.406  0.00  0.00    +0.000 A 
ENDROOT
BRANCH   4   7
ATOM      7  C   UNL     1       0.799   9.887  20.442  0.00  0.00    +0.000 A 
ATOM      8  N   UNL     1       0.929  11.192  20.308  0.00  0.00    +0.000 NA
ATOM      9  C   UNL     1       0.176  11.852  21.257  0.00  0.00    +0.000 A 
ATOM     10  C   UNL     1       0.133  13.250  21.439  0.00  0.00    +0.000 A 
ATOM     11  C   UNL     1      -0.656  13.794  22.455  0.00  0.00    +0.000 A 
ATOM     12  C   UNL     1      -1.411  12.964  23.278  0.00  0.00    +0.000 A 
ATOM     13  C   UNL     1      -1.394  11.574  23.110  0.00  0.00    +0.000 A 
ATOM     14  C   UNL     1      -0.585  11.040  22.094  0.00  0.00    +0.000 A 
ATOM     15  S   UNL     1      -0.326   9.395  21.651  0.00  0.00    +0.000 S 
ENDBRANCH   4   7
BRANCH   1  18
ATOM     16  C   UNL     1       4.837   5.560  17.414  0.00  0.00    +0.000 C 
ATOM     17  O   UNL     1       5.693   6.106  18.111  0.00  0.00    +0.000 OA
ATOM     18  N   UNL     1       3.493   5.889  17.368  0.00  0.00    +0.000 N 
ATOM     19  H   UNL     1       2.897   5.319  16.778  0.00  0.00    +0.000 HD
BRANCH  16  20
ATOM     20  C   UNL     1       5.236   4.426  16.467  0.00  0.00    +0.000 C 
BRANCH  20  21
ATOM     21  N   UNL     1       4.995   3.134  17.115  0.00  0.00    +0.000 N 
ATOM     22  H   UNL     1       5.865   2.686  17.410  0.00  0.00    +0.000 HD
BRANCH  21  27
ATOM     23  C   UNL     1       1.250   2.587  21.422  0.00  0.00    +0.000 C 
ATOM     24  C   UNL     1       2.210   2.745  20.282  0.00  0.00    +0.000 A 
ATOM     25  C   UNL     1       1.772   2.667  18.958  0.00  0.00    +0.000 A 
ATOM     26  C   UNL     1       2.677   2.802  17.900  0.00  0.00    +0.000 A 
ATOM     27  C   UNL     1       4.033   3.054  18.130  0.00  0.00    +0.000 A 
ATOM     28  C   UNL     1       4.466   3.100  19.462  0.00  0.00    +0.000 A 
ATOM     29  C   UNL     1       3.569   2.956  20.527  0.00  0.00    +0.000 A 
ENDBRANCH  21  27
ENDBRANCH  20  21
ENDBRANCH  16  20
ENDBRANCH   1  18
TORSDOF 5
ENDMDL
MODEL 6
REMARK VINA RESULT:      -8.3      1.450      1.947
REMARK  Name = 
REMARK  6 active torsions:
REMARK  status: ('A' for Active; 'I' for Inactive)
REMARK    1  A    between atoms: C_1  and  C_2
REMARK    2  A    between atoms: C_5  and  N_6
REMARK    3  A    between atoms: N_6  and  C_7
REMARK    4  A    between atoms: C_7  and  C_8
REMARK    5  A    between atoms: N_10  and  C_11
REMARK    6  A    between atoms: C_14  and  C_15
REMARK                            x       y       z     vdW  Elec       q    Type
REMARK                         _______ _______ _______ _____ _____    ______ ____
ROOT
ATOM      1  C   UNL     1       2.606   6.682  18.724  0.00  0.00    +0.000 A 
ATOM      2  C   UNL     1       2.423   7.799  17.908  0.00  0.00    +0.000 A 
ATOM      3  C   UNL     1       1.765   8.941  18.383  0.00  0.00    +0.000 A 
ATOM      4  C   UNL     1       1.275   8.994  19.692  0.00  0.00    +0.000 A 
ATOM      5  C   UNL     1       1.462   7.867  20.508  0.00  0.00    +0.000 A 
ATOM      6  C   UNL     1       2.110   6.721  20.029  0.00  0.00    +0.000 A 
ENDROOT
BRANCH   4   7
ATOM      7  C   UNL     1       0.509  10.136  20.221  0.00  0.00    +0.000 A 
ATOM      8  N   UNL     1       0.206  10.268  21.497  0.00  0.00    +0.000 NA
ATOM      9  C   UNL     1      -0.587  11.380  21.693  0.00  0.00    +0.000 A 
ATOM     10  C   UNL     1      -1.143  11.781  22.926  0.00  0.00    +0.000 A 
ATOM     11  C   UNL     1      -1.949  12.920  22.985  0.00  0.00    +0.000 A 
ATOM     12  C   UNL     1      -2.195  13.667  21.837  0.00  0.00    +0.000 A 
ATOM     13  C   UNL     1      -1.646  13.296  20.604  0.00  0.00    +0.000 A 
ATOM     14  C   UNL     1      -0.848  12.141  20.556  0.00  0.00    +0.000 A 
ATOM     15  S   UNL     1      -0.059  11.410  19.210  0.00  0.00    +0.000 S 
ENDBRANCH   4   7
BRANCH   1  18
ATOM     16  C   UNL     1       2.635   4.392  17.733  0.00  0.00    +0.000 C 
ATOM     17  O   UNL     1       1.433   4.272  17.491  0.00  0.00    +0.000 OA
ATOM     18  N   UNL     1       3.246   5.500  18.296  0.00  0.00    +0.000 N 
ATOM     19  H   UNL     1       4.254   5.472  18.394  0.00  0.00    +0.000 HD
BRANCH  16  20
ATOM     20  C   UNL     1       3.591   3.235  17.433  0.00  0.00    +0.000 C 
BRANCH  20  21
ATOM     21  N   UNL     1       4.976   3.704  17.525  0.00  0.00    +0.000 N 
ATOM     22  H   UNL     1       5.544   3.105  18.128  0.00  0.00    +0.000 HD
BRANCH  21  27
ATOM     23  C   UNL     1       7.832   5.265  12.804  0.00  0.00    +0.000 C 
ATOM     24  C   UNL     1       7.080   4.832  14.026  0.00  0.00    +0.000 A 
ATOM     25  C   UNL     1       5.894   4.103  13.919  0.00  0.00    +0.000 A 
ATOM     26  C   UNL     1       5.191   3.715  15.064  0.00  0.00    +0.000 A 
ATOM     27  C   UNL     1       5.668   4.009  16.345  0.00  0.00    +0.000 A 
ATOM     28  C   UNL     1       6.843   4.767  16.440  0.00  0.00    +0.000 A 
ATOM     29  C   UNL     1       7.547   5.168  15.300  0.00  0.00    +0.000 A 
ENDBRANCH  21  27
ENDBRANCH  20  21
ENDBRANCH  16  20
ENDBRANCH   1  18
TORSDOF 5
ENDMDL
MODEL 7
REMARK VINA RESULT:      -8.2      1.637      3.298
REMARK  Name = 
REMARK  6 active torsions:
REMARK  status: ('A' for Active; 'I' for Inactive)
REMARK    1  A    between atoms: C_1  and  C_2
REMARK    2  A    between atoms: C_5  and  N_6
REMARK    3  A    between atoms: N_6  and  C_7
REMARK    4  A    between atoms: C_7  and  C_8
REMARK    5  A    between atoms: N_10  and  C_11
REMARK    6  A    between atoms: C_14  and  C_15
REMARK                            x       y       z     vdW  Elec       q    Type
REMARK                         _______ _______ _______ _____ _____    ______ ____
ROOT
ATOM      1  C   UNL     1       3.002   6.945  18.163  0.00  0.00    +0.000 A 
ATOM      2  C   UNL     1       2.701   8.147  17.522  0.00  0.00    +0.000 A 
ATOM      3  C   UNL     1       1.937   9.134  18.160  0.00  0.00    +0.000 A 
ATOM      4  C   UNL     1       1.458   8.943  19.460  0.00  0.00    +0.000 A 
ATOM      5  C   UNL     1       1.765   7.731  20.099  0.00  0.00    +0.000 A 
ATOM      6  C   UNL     1       2.518   6.739  19.458  0.00  0.00    +0.000 A 
ENDROOT
BRANCH   4   7
ATOM      7  C   UNL     1       0.588   9.912  20.150  0.00  0.00    +0.000 A 
ATOM      8  N   UNL     1       0.275   9.813  21.426  0.00  0.00    +0.000 NA
ATOM      9  C   UNL     1      -0.620  10.802  21.782  0.00  0.00    +0.000 A 
ATOM     10  C   UNL     1      -1.210  10.951  23.054  0.00  0.00    +0.000 A 
ATOM     11  C   UNL     1      -2.120  11.986  23.279  0.00  0.00    +0.000 A 
ATOM     12  C   UNL     1      -2.435  12.878  22.259  0.00  0.00    +0.000 A 
ATOM     13  C   UNL     1      -1.854  12.758  20.990  0.00  0.00    +0.000 A 
ATOM     14  C   UNL     1      -0.951  11.704  20.774  0.00  0.00    +0.000 A 
ATOM     15  S   UNL     1      -0.097  11.270  19.342  0.00  0.00    +0.000 S 
ENDBRANCH   4   7
BRANCH   1  18
ATOM     16  C   UNL     1       4.989   5.446  17.980  0.00  0.00    +0.000 C 
ATOM     17  O   UNL     1       5.624   5.850  18.954  0.00  0.00    +0.000 OA
ATOM     18  N   UNL     1       3.751   5.909  17.567  0.00  0.00    +0.000 N 
ATOM     19  H   UNL     1       3.327   5.448  16.770  0.00  0.00    +0.000 HD
BRANCH  16  20
ATOM     20  C   UNL     1       5.577   4.352  17.085  0.00  0.00    +0.000 C 
BRANCH  20  21
ATOM     21  N   UNL     1       4.725   3.162  17.135  0.00  0.00    +0.000 N 
ATOM     22  H   UNL     1       5.241   2.312  16.899  0.00  0.00    +0.000 HD
BRANCH  21  27
ATOM     23  C   UNL     1       1.267   2.571  21.670  0.00  0.00    +0.000 C 
ATOM     24  C   UNL     1       2.187   2.704  20.495  0.00  0.00    +0.000 A 
ATOM     25  C   UNL     1       3.571   2.617  20.653  0.00  0.00    +0.000 A 
ATOM     26  C   UNL     1       4.424   2.757  19.553  0.00  0.00    +0.000 A 
ATOM     27  C   UNL     1       3.921   2.951  18.263  0.00  0.00    +0.000 A 
ATOM     28  C   UNL     1       2.532   3.068  18.120  0.00  0.00    +0.000 A 
ATOM     29  C   UNL     1       1.672   2.939  19.217  0.00  0.00    +0.000 A 
ENDBRANCH  21  27
ENDBRANCH  20  21
ENDBRANCH  16  20
ENDBRANCH   1  18
TORSDOF 5
ENDMDL
MODEL 8
REMARK VINA RESULT:      -8.2      2.669      3.642
REMARK  Name = 
REMARK  6 active torsions:
REMARK  status: ('A' for Active; 'I' for Inactive)
REMARK    1  A    between atoms: C_1  and  C_2
REMARK    2  A    between atoms: C_5  and  N_6
REMARK    3  A    between atoms: N_6  and  C_7
REMARK    4  A    between atoms: C_7  and  C_8
REMARK    5  A    between atoms: N_10  and  C_11
REMARK    6  A    between atoms: C_14  and  C_15
REMARK                            x       y       z     vdW  Elec       q    Type
REMARK                         _______ _______ _______ _____ _____    ______ ____
ROOT
ATOM      1  C   UNL     1       3.866   6.557  18.188  0.00  0.00    +0.000 A 
ATOM      2  C   UNL     1       3.219   6.311  19.399  0.00  0.00    +0.000 A 
ATOM      3  C   UNL     1       2.250   7.196  19.893  0.00  0.00    +0.000 A 
ATOM      4  C   UNL     1       1.903   8.349  19.183  0.00  0.00    +0.000 A 
ATOM      5  C   UNL     1       2.558   8.591  17.964  0.00  0.00    +0.000 A 
ATOM      6  C   UNL     1       3.535   7.713  17.476  0.00  0.00    +0.000 A 
ENDROOT
BRANCH   4   7
ATOM      7  C   UNL     1       0.950   9.352  19.689  0.00  0.00    +0.000 A 
ATOM      8  N   UNL     1       0.791   9.608  20.972  0.00  0.00    +0.000 NA
ATOM      9  C   UNL     1      -0.224  10.523  21.161  0.00  0.00    +0.000 A 
ATOM     10  C   UNL     1      -0.698  10.973  22.411  0.00  0.00    +0.000 A 
ATOM     11  C   UNL     1      -1.750  11.889  22.465  0.00  0.00    +0.000 A 
ATOM     12  C   UNL     1      -2.323  12.371  21.292  0.00  0.00    +0.000 A 
ATOM     13  C   UNL     1      -1.863  11.949  20.038  0.00  0.00    +0.000 A 
ATOM     14  C   UNL     1      -0.813  11.017  19.999  0.00  0.00    +0.000 A 
ATOM     15  S   UNL     1      -0.046  10.287  18.640  0.00  0.00    +0.000 S 
ENDBRANCH   4   7
BRANCH   1  18
ATOM     16  C   UNL     1       6.190   6.038  17.439  0.00  0.00    +0.000 C 
ATOM     17  O   UNL     1       6.724   7.112  17.715  0.00  0.00    +0.000 OA
ATOM     18  N   UNL     1       4.860   5.713  17.649  0.00  0.00    +0.000 N 
ATOM     19  H   UNL     1       4.571   4.771  17.413  0.00  0.00    +0.000 HD
BRANCH  16  20
ATOM     20  C   UNL     1       7.007   4.927  16.776  0.00  0.00    +0.000 C 
BRANCH  20  21
ATOM     21  N   UNL     1       7.428   5.354  15.439  0.00  0.00    +0.000 N 
ATOM     22  H   UNL     1       8.445   5.347  15.338  0.00  0.00    +0.000 HD
BRANCH  21  27
ATOM     23  C   UNL     1       4.847   2.725  11.046  0.00  0.00    +0.000 C 
ATOM     24  C   UNL     1       5.532   3.432  12.176  0.00  0.00    +0.000 A 
ATOM     25  C   UNL     1       6.822   3.944  12.027  0.00  0.00    +0.000 A 
ATOM     26  C   UNL     1       7.460   4.589  13.091  0.00  0.00    +0.000 A 
ATOM     27  C   UNL     1       6.818   4.774  14.319  0.00  0.00    +0.000 A 
ATOM     28  C   UNL     1       5.536   4.229  14.468  0.00  0.00    +0.000 A 
ATOM     29  C   UNL     1       4.894   3.573  13.412  0.00  0.00    +0.000 A 
ENDBRANCH  21  27
ENDBRANCH  20  21
ENDBRANCH  16  20
ENDBRANCH   1  18
TORSDOF 5
ENDMDL
MODEL 9
REMARK VINA RESULT:      -8.2      1.194      1.814
REMARK  Name = 
REMARK  6 active torsions:
REMARK  status: ('A' for Active; 'I' for Inactive)
REMARK    1  A    between atoms: C_1  and  C_2
REMARK    2  A    between atoms: C_5  and  N_6
REMARK    3  A    between atoms: N_6  and  C_7
REMARK    4  A    between atoms: C_7  and  C_8
REMARK    5  A    between atoms: N_10  and  C_11
REMARK    6  A    between atoms: C_14  and  C_15
REMARK                            x       y       z     vdW  Elec       q    Type
REMARK                         _______ _______ _______ _____ _____    ______ ____
ROOT
ATOM      1  C   UNL     1       2.464   6.885  18.824  0.00  0.00    +0.000 A 
ATOM      2  C   UNL     1       2.047   6.735  20.147  0.00  0.00    +0.000 A 
ATOM      3  C   UNL     1       1.406   7.781  20.825  0.00  0.00    +0.000 A 
ATOM      4  C   UNL     1       1.164   9.005  20.193  0.00  0.00    +0.000 A 
ATOM      5  C   UNL     1       1.587   9.149  18.862  0.00  0.00    +0.000 A 
ATOM      6  C   UNL     1       2.238   8.108  18.187  0.00  0.00    +0.000 A 
ENDROOT
BRANCH   4   7
ATOM      7  C   UNL     1       0.565  10.163  20.879  0.00  0.00    +0.000 A 
ATOM      8  N   UNL     1      -0.377  10.047  21.794  0.00  0.00    +0.000 NA
ATOM      9  C   UNL     1      -0.811  11.291  22.201  0.00  0.00    +0.000 A 
ATOM     10  C   UNL     1      -1.852  11.533  23.122  0.00  0.00    +0.000 A 
ATOM     11  C   UNL     1      -2.210  12.846  23.435  0.00  0.00    +0.000 A 
ATOM     12  C   UNL     1      -1.535  13.915  22.853  0.00  0.00    +0.000 A 
ATOM     13  C   UNL     1      -0.492  13.701  21.945  0.00  0.00    +0.000 A 
ATOM     14  C   UNL     1      -0.151  12.376  21.630  0.00  0.00    +0.000 A 
ATOM     15  S   UNL     1       1.050  11.782  20.546  0.00  0.00    +0.000 S 
ENDBRANCH   4   7
BRANCH   1  18
ATOM     16  C   UNL     1       3.759   4.761  18.623  0.00  0.00    +0.000 C 
ATOM     17  O   UNL     1       3.819   4.459  19.816  0.00  0.00    +0.000 OA
ATOM     18  N   UNL     1       3.128   5.875  18.096  0.00  0.00    +0.000 N 
ATOM     19  H   UNL     1       3.122   5.970  17.087  0.00  0.00    +0.000 HD
BRANCH  16  20
ATOM     20  C   UNL     1       4.448   3.880  17.578  0.00  0.00    +0.000 C 
BRANCH  20  21
ATOM     21  N   UNL     1       5.899   3.918  17.779  0.00  0.00    +0.000 N 
ATOM     22  H   UNL     1       6.386   3.251  17.178  0.00  0.00    +0.000 HD
BRANCH  21  27
ATOM     23  C   UNL     1       8.497   9.022  18.055  0.00  0.00    +0.000 C 
ATOM     24  C   UNL     1       7.821   7.688  17.955  0.00  0.00    +0.000 A 
ATOM     25  C   UNL     1       6.914   7.418  16.928  0.00  0.00    +0.000 A 
ATOM     26  C   UNL     1       6.276   6.175  16.850  0.00  0.00    +0.000 A 
ATOM     27  C   UNL     1       6.552   5.158  17.768  0.00  0.00    +0.000 A 
ATOM     28  C   UNL     1       7.441   5.450  18.812  0.00  0.00    +0.000 A 
ATOM     29  C   UNL     1       8.075   6.694  18.903  0.00  0.00    +0.000 A 
ENDBRANCH  21  27
ENDBRANCH  20  21
ENDBRANCH  16  20
ENDBRANCH   1  18
TORSDOF 5
ENDMDL
