MODEL 1
REMARK VINA RESULT:      -7.8      0.000      0.000
REMARK  Name = 
REMARK  7 active torsions:
REMARK  status: ('A' for Active; 'I' for Inactive)
REMARK    1  A    between atoms: C_1  and  N_2
REMARK    2  A    between atoms: N_2  and  C_3
REMARK    3  A    between atoms: N_2  and  C_4
REMARK    4  A    between atoms: C_4  and  C_5
REMARK    5  A    between atoms: C_5  and  N_6
REMARK    6  A    between atoms: C_7  and  C_9
REMARK    7  A    between atoms: N_19  and  C_20
REMARK                            x       y       z     vdW  Elec       q    Type
REMARK                         _______ _______ _______ _____ _____    ______ ____
ROOT
ATOM      1  C   UNL     1       1.862   8.286  18.675  0.00  0.00    +0.000 A 
ATOM      2  N   UNL     1       1.354   7.825  19.798  0.00  0.00    +0.000 NA
ATOM      3  C   UNL     1       1.911   6.577  20.083  0.00  0.00    +0.000 A 
ATOM      4  C   UNL     1       1.563   5.735  21.154  0.00  0.00    +0.000 A 
ATOM      5  C   UNL     1       2.154   4.466  21.264  0.00  0.00    +0.000 A 
ATOM      6  C   UNL     1       3.109   4.004  20.370  0.00  0.00    +0.000 A 
ATOM      7  N   UNL     1       3.579   2.765  20.521  0.00  0.00    +0.000 NA
ATOM      8  C   UNL     1       4.496   2.352  19.637  0.00  0.00    +0.000 A 
ATOM      9  N   UNL     1       5.010   3.074  18.641  0.00  0.00    +0.000 NA
ATOM     10  C   UNL     1       4.542   4.325  18.489  0.00  0.00    +0.000 A 
ATOM     11  N   UNL     1       5.181   5.151  17.531  0.00  0.00    +0.000 N 
ATOM     12  C   UNL     1       3.539   4.851  19.337  0.00  0.00    +0.000 A 
ATOM     13  C   UNL     1       2.896   6.128  19.197  0.00  0.00    +0.000 A 
ATOM     14  S   UNL     1       3.091   7.328  17.976  0.00  0.00    +0.000 S 
ATOM     15  H   UNL     1       4.555   5.923  17.302  0.00  0.00    +0.000 HD
ENDROOT
BRANCH  11  16
ATOM     16  C   UNL     1       5.711   4.727  16.284  0.00  0.00    +0.000 A 
ATOM     17  C   UNL     1       4.934   3.986  15.365  0.00  0.00    +0.000 A 
ATOM     18  C   UNL     1       5.342   3.824  14.038  0.00  0.00    +0.000 A 
ATOM     19  C   UNL     1       6.507   4.449  13.657  0.00  0.00    +0.000 A 
ATOM     20  C   UNL     1       7.286   5.148  14.552  0.00  0.00    +0.000 A 
ATOM     21  C   UNL     1       6.924   5.295  15.871  0.00  0.00    +0.000 A 
ATOM     22  O   UNL     1       8.359   5.732  13.953  0.00  0.00    +0.000 OA
ATOM     23  C   UNL     1       7.990   5.553  12.571  0.00  0.00    +0.000 C 
ATOM     24  O   UNL     1       6.992   4.528  12.388  0.00  0.00    +0.000 OA
ENDBRANCH  11  16
BRANCH   1  26
ATOM     25  N   UNL     1       0.132   9.935  17.887  0.00  0.00    +0.000 N 
ATOM     26  C   UNL     1       1.448   9.531  18.005  0.00  0.00    +0.000 C 
ATOM     27  N   UNL     1       2.394  10.267  17.493  0.00  0.00    +0.000 NA
ATOM     28  H   UNL     1      -0.523   9.366  18.430  0.00  0.00    +0.000 HD
ATOM     29  H   UNL     1       1.989  11.064  17.010  0.00  0.00    +0.000 HD
BRANCH  25  30
ATOM     30  C   UNL     1      -0.245  11.345  17.873  0.00  0.00    +0.000 C 
BRANCH  30  31
ATOM     31  C   UNL     1      -1.735  11.535  17.545  0.00  0.00    +0.000 C 
BRANCH  31  33
ATOM     32  C   UNL     1      -3.653  10.035  17.658  0.00  0.00    +0.000 C 
ATOM     33  N   UNL     1      -2.398  10.349  16.966  0.00  0.00    +0.000 NA
ATOM     34  C   UNL     1      -2.674  10.597  15.547  0.00  0.00    +0.000 C 
ENDBRANCH  31  33
ENDBRANCH  30  31
ENDBRANCH  25  30
ENDBRANCH   1  26
TORSDOF 5
ENDMDL
MODEL 2
REMARK VINA RESULT:      -7.6      4.894      9.239
REMARK  Name = 
REMARK  7 active torsions:
REMARK  status: ('A' for Active; 'I' for Inactive)
REMARK    1  A    between atoms: C_1  and  N_2
REMARK    2  A    between atoms: N_2  and  C_3
REMARK    3  A    between atoms: N_2  and  C_4
REMARK    4  A    between atoms: C_4  and  C_5
REMARK    5  A    between atoms: C_5  and  N_6
REMARK    6  A    between atoms: C_7  and  C_9
REMARK    7  A    between atoms: N_19  and  C_20
REMARK                            x       y       z     vdW  Elec       q    Type
REMARK                         _______ _______ _______ _____ _____    ______ ____
ROOT
ATOM      1  C   UNL     1       1.590   8.293  19.734  0.00  0.00    +0.000 A 
ATOM      2  N   UNL     1       0.984   7.877  20.825  0.00  0.00    +0.000 NA
ATOM      3  C   UNL     1       0.370   8.959  21.457  0.00  0.00    +0.000 A 
ATOM      4  C   UNL     1      -0.307   8.930  22.689  0.00  0.00    +0.000 A 
ATOM      5  C   UNL     1      -0.804  10.122  23.241  0.00  0.00    +0.000 A 
ATOM      6  C   UNL     1      -0.688  11.348  22.603  0.00  0.00    +0.000 A 
ATOM      7  N   UNL     1      -1.144  12.437  23.224  0.00  0.00    +0.000 NA
ATOM      8  C   UNL     1      -1.011  13.603  22.580  0.00  0.00    +0.000 A 
ATOM      9  N   UNL     1      -0.499  13.776  21.361  0.00  0.00    +0.000 NA
ATOM     10  C   UNL     1      -0.044  12.679  20.731  0.00  0.00    +0.000 A 
ATOM     11  N   UNL     1       0.367  12.824  19.382  0.00  0.00    +0.000 N 
ATOM     12  C   UNL     1      -0.091  11.401  21.334  0.00  0.00    +0.000 A 
ATOM     13  C   UNL     1       0.462  10.189  20.796  0.00  0.00    +0.000 A 
ATOM     14  S   UNL     1       1.365   9.941  19.350  0.00  0.00    +0.000 S 
ATOM     15  H   UNL     1       0.959  12.029  19.138  0.00  0.00    +0.000 HD
ENDROOT
BRANCH  11  16
ATOM     16  C   UNL     1       1.022  13.953  18.825  0.00  0.00    +0.000 A 
ATOM     17  C   UNL     1       0.390  15.215  18.757  0.00  0.00    +0.000 A 
ATOM     18  C   UNL     1       1.119  16.376  18.488  0.00  0.00    +0.000 A 
ATOM     19  C   UNL     1       2.479  16.244  18.334  0.00  0.00    +0.000 A 
ATOM     20  C   UNL     1       3.101  15.016  18.368  0.00  0.00    +0.000 A 
ATOM     21  C   UNL     1       2.402  13.853  18.597  0.00  0.00    +0.000 A 
ATOM     22  O   UNL     1       4.453  15.120  18.251  0.00  0.00    +0.000 OA
ATOM     23  C   UNL     1       4.601  16.543  18.431  0.00  0.00    +0.000 C 
ATOM     24  O   UNL     1       3.371  17.264  18.209  0.00  0.00    +0.000 OA
ENDBRANCH  11  16
BRANCH   1  26
ATOM     25  N   UNL     1       2.747   6.139  19.134  0.00  0.00    +0.000 N 
ATOM     26  C   UNL     1       2.426   7.454  18.856  0.00  0.00    +0.000 C 
ATOM     27  N   UNL     1       2.883   8.012  17.770  0.00  0.00    +0.000 NA
ATOM     28  H   UNL     1       2.238   5.752  19.933  0.00  0.00    +0.000 HD
ATOM     29  H   UNL     1       3.488   7.361  17.277  0.00  0.00    +0.000 HD
BRANCH  25  30
ATOM     30  C   UNL     1       2.946   5.153  18.077  0.00  0.00    +0.000 C 
BRANCH  30  31
ATOM     31  C   UNL     1       1.632   4.448  17.698  0.00  0.00    +0.000 C 
BRANCH  31  33
ATOM     32  C   UNL     1       3.050   2.471  17.850  0.00  0.00    +0.000 C 
ATOM     33  N   UNL     1       1.674   2.974  17.784  0.00  0.00    +0.000 NA
ATOM     34  C   UNL     1       0.941   2.541  18.979  0.00  0.00    +0.000 C 
ENDBRANCH  31  33
ENDBRANCH  30  31
ENDBRANCH  25  30
ENDBRANCH   1  26
TORSDOF 5
ENDMDL
MODEL 3
REMARK VINA RESULT:      -7.5      5.425      9.788
REMARK  Name = 
REMARK  7 active torsions:
REMARK  status: ('A' for Active; 'I' for Inactive)
REMARK    1  A    between atoms: C_1  and  N_2
REMARK    2  A    between atoms: N_2  and  C_3
REMARK    3  A    between atoms: N_2  and  C_4
REMARK    4  A    between atoms: C_4  and  C_5
REMARK    5  A    between atoms: C_5  and  N_6
REMARK    6  A    between atoms: C_7  and  C_9
REMARK    7  A    between atoms: N_19  and  C_20
REMARK                            x       y       z     vdW  Elec       q    Type
REMARK                         _______ _______ _______ _____ _____    ______ ____
ROOT
ATOM      1  C   UNL     1       1.366   8.930  19.591  0.00  0.00    +0.000 A 
ATOM      2  N   UNL     1       0.743   8.418  20.632  0.00  0.00    +0.000 NA
ATOM      3  C   UNL     1       0.150   9.444  21.369  0.00  0.00    +0.000 A 
ATOM      4  C   UNL     1      -0.535   9.303  22.589  0.00  0.00    +0.000 A 
ATOM      5  C   UNL     1      -1.007  10.443  23.260  0.00  0.00    +0.000 A 
ATOM      6  C   UNL     1      -0.860  11.726  22.752  0.00  0.00    +0.000 A 
ATOM      7  N   UNL     1      -1.294  12.755  23.480  0.00  0.00    +0.000 NA
ATOM      8  C   UNL     1      -1.130  13.978  22.961  0.00  0.00    +0.000 A 
ATOM      9  N   UNL     1      -0.606  14.264  21.768  0.00  0.00    +0.000 NA
ATOM     10  C   UNL     1      -0.173  13.227  21.030  0.00  0.00    +0.000 A 
ATOM     11  N   UNL     1       0.250  13.500  19.704  0.00  0.00    +0.000 N 
ATOM     12  C   UNL     1      -0.253  11.895  21.498  0.00  0.00    +0.000 A 
ATOM     13  C   UNL     1       0.275  10.732  20.839  0.00  0.00    +0.000 A 
ATOM     14  S   UNL     1       1.181  10.614  19.379  0.00  0.00    +0.000 S 
ATOM     15  H   UNL     1       0.825  12.722  19.382  0.00  0.00    +0.000 HD
ENDROOT
BRANCH  11  16
ATOM     16  C   UNL     1       0.934  14.666  19.269  0.00  0.00    +0.000 A 
ATOM     17  C   UNL     1       2.297  14.627  18.898  0.00  0.00    +0.000 A 
ATOM     18  C   UNL     1       2.888  15.684  18.201  0.00  0.00    +0.000 A 
ATOM     19  C   UNL     1       2.078  16.741  17.857  0.00  0.00    +0.000 A 
ATOM     20  C   UNL     1       0.757  16.802  18.239  0.00  0.00    +0.000 A 
ATOM     21  C   UNL     1       0.159  15.791  18.955  0.00  0.00    +0.000 A 
ATOM     22  O   UNL     1       0.129  17.904  17.744  0.00  0.00    +0.000 OA
ATOM     23  C   UNL     1       1.123  18.342  16.797  0.00  0.00    +0.000 C 
ATOM     24  O   UNL     1       2.428  17.789  17.061  0.00  0.00    +0.000 OA
ENDBRANCH  11  16
BRANCH   1  26
ATOM     25  N   UNL     1       2.769   6.948  18.928  0.00  0.00    +0.000 N 
ATOM     26  C   UNL     1       2.187   8.166  18.634  0.00  0.00    +0.000 C 
ATOM     27  N   UNL     1       2.367   8.699  17.459  0.00  0.00    +0.000 NA
ATOM     28  H   UNL     1       2.464   6.552  19.821  0.00  0.00    +0.000 HD
ATOM     29  H   UNL     1       2.992   8.116  16.908  0.00  0.00    +0.000 HD
BRANCH  25  30
ATOM     30  C   UNL     1       2.969   5.923  17.909  0.00  0.00    +0.000 C 
BRANCH  30  31
ATOM     31  C   UNL     1       1.943   4.784  18.036  0.00  0.00    +0.000 C 
BRANCH  31  33
ATOM     32  C   UNL     1       1.047   3.926  20.134  0.00  0.00    +0.000 C 
ATOM     33  N   UNL     1       2.162   3.879  19.183  0.00  0.00    +0.000 NA
ATOM     34  C   UNL     1       2.321   2.506  18.689  0.00  0.00    +0.000 C 
ENDBRANCH  31  33
ENDBRANCH  30  31
ENDBRANCH  25  30
ENDBRANCH   1  26
TORSDOF 5
ENDMDL
MODEL 4
REMARK VINA RESULT:      -7.5      1.119      1.868
REMARK  Name = 
REMARK  7 active torsions:
REMARK  status: ('A' for Active; 'I' for Inactive)
REMARK    1  A    between atoms: C_1  and  N_2
REMARK    2  A    between atoms: N_2  and  C_3
REMARK    3  A    between atoms: N_2  and  C_4
REMARK    4  A    between atoms: C_4  and  C_5
REMARK    5  A    between atoms: C_5  and  N_6
REMARK    6  A    between atoms: C_7  and  C_9
REMARK    7  A    between atoms: N_19  and  C_20
REMARK                            x       y       z     vdW  Elec       q    Type
REMARK                         _______ _______ _______ _____ _____    ______ ____
ROOT
ATOM      1  C   UNL     1       1.915   8.302  18.701  0.00  0.00    +0.000 A 
ATOM      2  N   UNL     1       1.392   7.843  19.818  0.00  0.00    +0.000 NA
ATOM      3  C   UNL     1       1.927   6.586  20.101  0.00  0.00    +0.000 A 
ATOM      4  C   UNL     1       1.558   5.744  21.165  0.00  0.00    +0.000 A 
ATOM      5  C   UNL     1       2.128   4.465  21.273  0.00  0.00    +0.000 A 
ATOM      6  C   UNL     1       3.084   3.994  20.384  0.00  0.00    +0.000 A 
ATOM      7  N   UNL     1       3.534   2.747  20.533  0.00  0.00    +0.000 NA
ATOM      8  C   UNL     1       4.452   2.325  19.654  0.00  0.00    +0.000 A 
ATOM      9  N   UNL     1       4.985   3.044  18.665  0.00  0.00    +0.000 NA
ATOM     10  C   UNL     1       4.536   4.302  18.517  0.00  0.00    +0.000 A 
ATOM     11  N   UNL     1       5.195   5.124  17.568  0.00  0.00    +0.000 N 
ATOM     12  C   UNL     1       3.535   4.839  19.359  0.00  0.00    +0.000 A 
ATOM     13  C   UNL     1       2.912   6.127  19.220  0.00  0.00    +0.000 A 
ATOM     14  S   UNL     1       3.135   7.330  18.008  0.00  0.00    +0.000 S 
ATOM     15  H   UNL     1       4.583   5.906  17.338  0.00  0.00    +0.000 HD
ENDROOT
BRANCH  11  16
ATOM     16  C   UNL     1       5.729   4.699  16.323  0.00  0.00    +0.000 A 
ATOM     17  C   UNL     1       4.964   3.933  15.414  0.00  0.00    +0.000 A 
ATOM     18  C   UNL     1       5.370   3.766  14.088  0.00  0.00    +0.000 A 
ATOM     19  C   UNL     1       6.520   4.410  13.696  0.00  0.00    +0.000 A 
ATOM     20  C   UNL     1       7.288   5.134  14.580  0.00  0.00    +0.000 A 
ATOM     21  C   UNL     1       6.929   5.287  15.899  0.00  0.00    +0.000 A 
ATOM     22  O   UNL     1       8.347   5.734  13.970  0.00  0.00    +0.000 OA
ATOM     23  C   UNL     1       7.976   5.534  12.592  0.00  0.00    +0.000 C 
ATOM     24  O   UNL     1       6.998   4.486  12.423  0.00  0.00    +0.000 OA
ENDBRANCH  11  16
BRANCH   1  26
ATOM     25  N   UNL     1       0.223  10.014  17.965  0.00  0.00    +0.000 N 
ATOM     26  C   UNL     1       1.525   9.558  18.035  0.00  0.00    +0.000 C 
ATOM     27  N   UNL     1       2.479  10.249  17.477  0.00  0.00    +0.000 NA
ATOM     28  H   UNL     1      -0.432   9.477  18.541  0.00  0.00    +0.000 HD
ATOM     29  H   UNL     1       2.087  11.057  17.003  0.00  0.00    +0.000 HD
BRANCH  25  30
ATOM     30  C   UNL     1      -0.097  11.438  17.950  0.00  0.00    +0.000 C 
BRANCH  30  31
ATOM     31  C   UNL     1      -0.585  11.928  19.324  0.00  0.00    +0.000 C 
BRANCH  31  33
ATOM     32  C   UNL     1       1.401  12.365  20.669  0.00  0.00    +0.000 C 
ATOM     33  N   UNL     1       0.242  11.489  20.467  0.00  0.00    +0.000 NA
ATOM     34  C   UNL     1      -0.582  11.486  21.682  0.00  0.00    +0.000 C 
ENDBRANCH  31  33
ENDBRANCH  30  31
ENDBRANCH  25  30
ENDBRANCH   1  26
TORSDOF 5
ENDMDL
MODEL 5
REMARK VINA RESULT:      -7.5      1.378      2.032
REMARK  Name = 
REMARK  7 active torsions:
REMARK  status: ('A' for Active; 'I' for Inactive)
REMARK    1  A    between atoms: C_1  and  N_2
REMARK    2  A    between atoms: N_2  and  C_3
REMARK    3  A    between atoms: N_2  and  C_4
REMARK    4  A    between atoms: C_4  and  C_5
REMARK    5  A    between atoms: C_5  and  N_6
REMARK    6  A    between atoms: C_7  and  C_9
REMARK    7  A    between atoms: N_19  and  C_20
REMARK                            x       y       z     vdW  Elec       q    Type
REMARK                         _______ _______ _______ _____ _____    ______ ____
ROOT
ATOM      1  C   UNL     1       1.772   7.256  20.109  0.00  0.00    +0.000 A 
ATOM      2  N   UNL     1       1.136   6.366  20.842  0.00  0.00    +0.000 NA
ATOM      3  C   UNL     1       1.563   5.084  20.491  0.00  0.00    +0.000 A 
ATOM      4  C   UNL     1       1.059   3.872  20.995  0.00  0.00    +0.000 A 
ATOM      5  C   UNL     1       1.533   2.653  20.482  0.00  0.00    +0.000 A 
ATOM      6  C   UNL     1       2.519   2.582  19.509  0.00  0.00    +0.000 A 
ATOM      7  N   UNL     1       2.873   1.383  19.044  0.00  0.00    +0.000 NA
ATOM      8  C   UNL     1       3.824   1.354  18.102  0.00  0.00    +0.000 A 
ATOM      9  N   UNL     1       4.477   2.407  17.610  0.00  0.00    +0.000 NA
ATOM     10  C   UNL     1       4.126   3.617  18.080  0.00  0.00    +0.000 A 
ATOM     11  N   UNL     1       4.908   4.728  17.677  0.00  0.00    +0.000 N 
ATOM     12  C   UNL     1       3.102   3.771  19.044  0.00  0.00    +0.000 A 
ATOM     13  C   UNL     1       2.579   5.017  19.532  0.00  0.00    +0.000 A 
ATOM     14  S   UNL     1       2.973   6.629  19.070  0.00  0.00    +0.000 S 
ATOM     15  H   UNL     1       4.369   5.578  17.839  0.00  0.00    +0.000 HD
ENDROOT
BRANCH  11  16
ATOM     16  C   UNL     1       5.505   4.910  16.401  0.00  0.00    +0.000 A 
ATOM     17  C   UNL     1       6.841   5.348  16.267  0.00  0.00    +0.000 A 
ATOM     18  C   UNL     1       7.516   5.248  15.048  0.00  0.00    +0.000 A 
ATOM     19  C   UNL     1       6.840   4.668  14.000  0.00  0.00    +0.000 A 
ATOM     20  C   UNL     1       5.528   4.264  14.112  0.00  0.00    +0.000 A 
ATOM     21  C   UNL     1       4.829   4.383  15.291  0.00  0.00    +0.000 A 
ATOM     22  O   UNL     1       5.075   3.667  12.976  0.00  0.00    +0.000 OA
ATOM     23  C   UNL     1       6.325   3.495  12.279  0.00  0.00    +0.000 C 
ATOM     24  O   UNL     1       7.368   4.353  12.785  0.00  0.00    +0.000 OA
ENDBRANCH  11  16
BRANCH   1  26
ATOM     25  N   UNL     1       1.422   9.483  18.990  0.00  0.00    +0.000 N 
ATOM     26  C   UNL     1       1.517   8.707  20.129  0.00  0.00    +0.000 C 
ATOM     27  N   UNL     1       1.392   9.266  21.300  0.00  0.00    +0.000 NA
ATOM     28  H   UNL     1       1.402   8.938  18.123  0.00  0.00    +0.000 HD
ATOM     29  H   UNL     1       1.278  10.270  21.192  0.00  0.00    +0.000 HD
BRANCH  25  30
ATOM     30  C   UNL     1       0.556  10.656  18.924  0.00  0.00    +0.000 C 
BRANCH  30  31
ATOM     31  C   UNL     1      -0.931  10.267  18.894  0.00  0.00    +0.000 C 
BRANCH  31  33
ATOM     32  C   UNL     1      -2.179   9.922  16.828  0.00  0.00    +0.000 C 
ATOM     33  N   UNL     1      -1.715  10.903  17.815  0.00  0.00    +0.000 NA
ATOM     34  C   UNL     1      -2.873  11.588  18.401  0.00  0.00    +0.000 C 
ENDBRANCH  31  33
ENDBRANCH  30  31
ENDBRANCH  25  30
ENDBRANCH   1  26
TORSDOF 5
ENDMDL
MODEL 6
REMARK VINA RESULT:      -7.5      1.240      1.982
REMARK  Name = 
REMARK  7 active torsions:
REMARK  status: ('A' for Active; 'I' for Inactive)
REMARK    1  A    between atoms: C_1  and  N_2
REMARK    2  A    between atoms: N_2  and  C_3
REMARK    3  A    between atoms: N_2  and  C_4
REMARK    4  A    between atoms: C_4  and  C_5
REMARK    5  A    between atoms: C_5  and  N_6
REMARK    6  A    between atoms: C_7  and  C_9
REMARK    7  A    between atoms: N_19  and  C_20
REMARK                            x       y       z     vdW  Elec       q    Type
REMARK                         _______ _______ _______ _____ _____    ______ ____
ROOT
ATOM      1  C   UNL     1       1.978   8.254  18.750  0.00  0.00    +0.000 A 
ATOM      2  N   UNL     1       1.440   7.783  19.855  0.00  0.00    +0.000 NA
ATOM      3  C   UNL     1       1.955   6.514  20.119  0.00  0.00    +0.000 A 
ATOM      4  C   UNL     1       1.566   5.659  21.165  0.00  0.00    +0.000 A 
ATOM      5  C   UNL     1       2.117   4.370  21.254  0.00  0.00    +0.000 A 
ATOM      6  C   UNL     1       3.072   3.900  20.364  0.00  0.00    +0.000 A 
ATOM      7  N   UNL     1       3.504   2.645  20.494  0.00  0.00    +0.000 NA
ATOM      8  C   UNL     1       4.421   2.225  19.614  0.00  0.00    +0.000 A 
ATOM      9  N   UNL     1       4.971   2.953  18.642  0.00  0.00    +0.000 NA
ATOM     10  C   UNL     1       4.542   4.220  18.512  0.00  0.00    +0.000 A 
ATOM     11  N   UNL     1       5.220   5.049  17.583  0.00  0.00    +0.000 N 
ATOM     12  C   UNL     1       3.543   4.757  19.357  0.00  0.00    +0.000 A 
ATOM     13  C   UNL     1       2.939   6.056  19.237  0.00  0.00    +0.000 A 
ATOM     14  S   UNL     1       3.188   7.276  18.047  0.00  0.00    +0.000 S 
ATOM     15  H   UNL     1       4.620   5.844  17.363  0.00  0.00    +0.000 HD
ENDROOT
BRANCH  11  16
ATOM     16  C   UNL     1       5.756   4.638  16.334  0.00  0.00    +0.000 A 
ATOM     17  C   UNL     1       5.003   3.858  15.428  0.00  0.00    +0.000 A 
ATOM     18  C   UNL     1       5.406   3.703  14.099  0.00  0.00    +0.000 A 
ATOM     19  C   UNL     1       6.540   4.372  13.703  0.00  0.00    +0.000 A 
ATOM     20  C   UNL     1       7.297   5.110  14.585  0.00  0.00    +0.000 A 
ATOM     21  C   UNL     1       6.941   5.252  15.906  0.00  0.00    +0.000 A 
ATOM     22  O   UNL     1       8.340   5.733  13.972  0.00  0.00    +0.000 OA
ATOM     23  C   UNL     1       7.967   5.528  12.594  0.00  0.00    +0.000 C 
ATOM     24  O   UNL     1       7.010   4.461  12.428  0.00  0.00    +0.000 OA
ENDBRANCH  11  16
BRANCH   1  26
ATOM     25  N   UNL     1       0.364  10.110  18.217  0.00  0.00    +0.000 N 
ATOM     26  C   UNL     1       1.610   9.527  18.103  0.00  0.00    +0.000 C 
ATOM     27  N   UNL     1       2.527  10.105  17.379  0.00  0.00    +0.000 NA
ATOM     28  H   UNL     1      -0.241   9.656  18.906  0.00  0.00    +0.000 HD
ATOM     29  H   UNL     1       2.145  10.937  16.939  0.00  0.00    +0.000 HD
BRANCH  25  30
ATOM     30  C   UNL     1       0.184  11.559  18.196  0.00  0.00    +0.000 C 
BRANCH  30  31
ATOM     31  C   UNL     1       0.779  12.226  19.447  0.00  0.00    +0.000 C 
BRANCH  31  33
ATOM     32  C   UNL     1       2.269  13.802  18.336  0.00  0.00    +0.000 C 
ATOM     33  N   UNL     1       1.153  13.644  19.274  0.00  0.00    +0.000 NA
ATOM     34  C   UNL     1      -0.009  14.390  18.775  0.00  0.00    +0.000 C 
ENDBRANCH  31  33
ENDBRANCH  30  31
ENDBRANCH  25  30
ENDBRANCH   1  26
TORSDOF 5
ENDMDL
MODEL 7
REMARK VINA RESULT:      -7.4      4.881      9.400
REMARK  Name = 
REMARK  7 active torsions:
REMARK  status: ('A' for Active; 'I' for Inactive)
REMARK    1  A    between atoms: C_1  and  N_2
REMARK    2  A    between atoms: N_2  and  C_3
REMARK    3  A    between atoms: N_2  and  C_4
REMARK    4  A    between atoms: C_4  and  C_5
REMARK    5  A    between atoms: C_5  and  N_6
REMARK    6  A    between atoms: C_7  and  C_9
REMARK    7  A    between atoms: N_19  and  C_20
REMARK                            x       y       z     vdW  Elec       q    Type
REMARK                         _______ _______ _______ _____ _____    ______ ____
ROOT
ATOM      1  C   UNL     1       1.551   8.431  19.667  0.00  0.00    +0.000 A 
ATOM      2  N   UNL     1       0.992   7.984  20.771  0.00  0.00    +0.000 NA
ATOM      3  C   UNL     1       0.362   9.039  21.433  0.00  0.00    +0.000 A 
ATOM      4  C   UNL     1      -0.276   8.975  22.684  0.00  0.00    +0.000 A 
ATOM      5  C   UNL     1      -0.793  10.144  23.265  0.00  0.00    +0.000 A 
ATOM      6  C   UNL     1      -0.737  11.381  22.638  0.00  0.00    +0.000 A 
ATOM      7  N   UNL     1      -1.208  12.447  23.284  0.00  0.00    +0.000 NA
ATOM      8  C   UNL     1      -1.132  13.624  22.650  0.00  0.00    +0.000 A 
ATOM      9  N   UNL     1      -0.662  13.826  21.419  0.00  0.00    +0.000 NA
ATOM     10  C   UNL     1      -0.192  12.751  20.762  0.00  0.00    +0.000 A 
ATOM     11  N   UNL     1       0.174  12.923  19.403  0.00  0.00    +0.000 N 
ATOM     12  C   UNL     1      -0.180  11.466  21.352  0.00  0.00    +0.000 A 
ATOM     13  C   UNL     1       0.395  10.278  20.783  0.00  0.00    +0.000 A 
ATOM     14  S   UNL     1       1.262  10.075  19.309  0.00  0.00    +0.000 S 
ATOM     15  H   UNL     1       0.783  12.151  19.133  0.00  0.00    +0.000 HD
ENDROOT
BRANCH  11  16
ATOM     16  C   UNL     1       0.775  14.079  18.840  0.00  0.00    +0.000 A 
ATOM     17  C   UNL     1       0.107  15.324  18.821  0.00  0.00    +0.000 A 
ATOM     18  C   UNL     1       0.794  16.509  18.543  0.00  0.00    +0.000 A 
ATOM     19  C   UNL     1       2.149  16.416  18.331  0.00  0.00    +0.000 A 
ATOM     20  C   UNL     1       2.804  15.205  18.318  0.00  0.00    +0.000 A 
ATOM     21  C   UNL     1       2.146  14.020  18.555  0.00  0.00    +0.000 A 
ATOM     22  O   UNL     1       4.147  15.348  18.146  0.00  0.00    +0.000 OA
ATOM     23  C   UNL     1       4.264  16.771  18.346  0.00  0.00    +0.000 C 
ATOM     24  O   UNL     1       3.008  17.463  18.188  0.00  0.00    +0.000 OA
ENDBRANCH  11  16
BRANCH   1  26
ATOM     25  N   UNL     1       2.768   6.327  19.014  0.00  0.00    +0.000 N 
ATOM     26  C   UNL     1       2.386   7.629  18.754  0.00  0.00    +0.000 C 
ATOM     27  N   UNL     1       2.782   8.208  17.656  0.00  0.00    +0.000 NA
ATOM     28  H   UNL     1       2.303   5.917  19.828  0.00  0.00    +0.000 HD
ATOM     29  H   UNL     1       3.394   7.584  17.138  0.00  0.00    +0.000 HD
BRANCH  25  30
ATOM     30  C   UNL     1       2.967   5.353  17.945  0.00  0.00    +0.000 C 
BRANCH  30  31
ATOM     31  C   UNL     1       4.457   5.155  17.621  0.00  0.00    +0.000 C 
BRANCH  31  33
ATOM     32  C   UNL     1       6.146   6.865  17.214  0.00  0.00    +0.000 C 
ATOM     33  N   UNL     1       5.013   6.121  16.652  0.00  0.00    +0.000 NA
ATOM     34  C   UNL     1       5.453   5.400  15.452  0.00  0.00    +0.000 C 
ENDBRANCH  31  33
ENDBRANCH  30  31
ENDBRANCH  25  30
ENDBRANCH   1  26
TORSDOF 5
ENDMDL
MODEL 8
REMARK VINA RESULT:      -7.4      5.409      9.942
REMARK  Name = 
REMARK  7 active torsions:
REMARK  status: ('A' for Active; 'I' for Inactive)
REMARK    1  A    between atoms: C_1  and  N_2
REMARK    2  A    between atoms: N_2  and  C_3
REMARK    3  A    between atoms: N_2  and  C_4
REMARK    4  A    between atoms: C_4  and  C_5
REMARK    5  A    between atoms: C_5  and  N_6
REMARK    6  A    between atoms: C_7  and  C_9
REMARK    7  A    between atoms: N_19  and  C_20
REMARK                            x       y       z     vdW  Elec       q    Type
REMARK                         _______ _______ _______ _____ _____    ______ ____
ROOT
ATOM      1  C   UNL     1       1.363   8.984  19.546  0.00  0.00    +0.000 A 
ATOM      2  N   UNL     1       0.752   8.469  20.593  0.00  0.00    +0.000 NA
ATOM      3  C   UNL     1       0.162   9.492  21.336  0.00  0.00    +0.000 A 
ATOM      4  C   UNL     1      -0.510   9.348  22.563  0.00  0.00    +0.000 A 
ATOM      5  C   UNL     1      -0.980  10.486  23.238  0.00  0.00    +0.000 A 
ATOM      6  C   UNL     1      -0.843  11.770  22.730  0.00  0.00    +0.000 A 
ATOM      7  N   UNL     1      -1.274  12.797  23.463  0.00  0.00    +0.000 NA
ATOM      8  C   UNL     1      -1.121  14.021  22.942  0.00  0.00    +0.000 A 
ATOM      9  N   UNL     1      -0.610  14.309  21.744  0.00  0.00    +0.000 NA
ATOM     10  C   UNL     1      -0.179  13.274  21.001  0.00  0.00    +0.000 A 
ATOM     11  N   UNL     1       0.229  13.550  19.672  0.00  0.00    +0.000 N 
ATOM     12  C   UNL     1      -0.250  11.942  21.469  0.00  0.00    +0.000 A 
ATOM     13  C   UNL     1       0.276  10.781  20.805  0.00  0.00    +0.000 A 
ATOM     14  S   UNL     1       1.169  10.667  19.336  0.00  0.00    +0.000 S 
ATOM     15  H   UNL     1       0.804  12.773  19.344  0.00  0.00    +0.000 HD
ENDROOT
BRANCH  11  16
ATOM     16  C   UNL     1       0.904  14.718  19.231  0.00  0.00    +0.000 A 
ATOM     17  C   UNL     1       2.265  14.686  18.852  0.00  0.00    +0.000 A 
ATOM     18  C   UNL     1       2.846  15.745  18.149  0.00  0.00    +0.000 A 
ATOM     19  C   UNL     1       2.029  16.796  17.807  0.00  0.00    +0.000 A 
ATOM     20  C   UNL     1       0.709  16.851  18.196  0.00  0.00    +0.000 A 
ATOM     21  C   UNL     1       0.121  15.838  18.918  0.00  0.00    +0.000 A 
ATOM     22  O   UNL     1       0.072  17.948  17.703  0.00  0.00    +0.000 OA
ATOM     23  C   UNL     1       1.058  18.390  16.749  0.00  0.00    +0.000 C 
ATOM     24  O   UNL     1       2.369  17.844  17.008  0.00  0.00    +0.000 OA
ENDBRANCH  11  16
BRANCH   1  26
ATOM     25  N   UNL     1       2.748   6.997  18.860  0.00  0.00    +0.000 N 
ATOM     26  C   UNL     1       2.177   8.224  18.581  0.00  0.00    +0.000 C 
ATOM     27  N   UNL     1       2.365   8.769  17.412  0.00  0.00    +0.000 NA
ATOM     28  H   UNL     1       2.438   6.593  19.748  0.00  0.00    +0.000 HD
ATOM     29  H   UNL     1       2.984   8.186  16.855  0.00  0.00    +0.000 HD
BRANCH  25  30
ATOM     30  C   UNL     1       2.938   5.982  17.829  0.00  0.00    +0.000 C 
BRANCH  30  31
ATOM     31  C   UNL     1       4.424   5.796  17.478  0.00  0.00    +0.000 C 
BRANCH  31  33
ATOM     32  C   UNL     1       3.751   3.456  17.378  0.00  0.00    +0.000 C 
ATOM     33  N   UNL     1       4.879   4.391  17.434  0.00  0.00    +0.000 NA
ATOM     34  C   UNL     1       5.730   4.198  16.254  0.00  0.00    +0.000 C 
ENDBRANCH  31  33
ENDBRANCH  30  31
ENDBRANCH  25  30
ENDBRANCH   1  26
TORSDOF 5
ENDMDL
MODEL 9
REMARK VINA RESULT:      -7.4      1.933      2.870
REMARK  Name = 
REMARK  7 active torsions:
REMARK  status: ('A' for Active; 'I' for Inactive)
REMARK    1  A    between atoms: C_1  and  N_2
REMARK    2  A    between atoms: N_2  and  C_3
REMARK    3  A    between atoms: N_2  and  C_4
REMARK    4  A    between atoms: C_4  and  C_5
REMARK    5  A    between atoms: C_5  and  N_6
REMARK    6  A    between atoms: C_7  and  C_9
REMARK    7  A    between atoms: N_19  and  C_20
REMARK                            x       y       z     vdW  Elec       q    Type
REMARK                         _______ _______ _______ _____ _____    ______ ____
ROOT
ATOM      1  C   UNL     1       1.766   7.280  20.106  0.00  0.00    +0.000 A 
ATOM      2  N   UNL     1       1.137   6.390  20.845  0.00  0.00    +0.000 NA
ATOM      3  C   UNL     1       1.573   5.109  20.500  0.00  0.00    +0.000 A 
ATOM      4  C   UNL     1       1.078   3.896  21.011  0.00  0.00    +0.000 A 
ATOM      5  C   UNL     1       1.560   2.678  20.504  0.00  0.00    +0.000 A 
ATOM      6  C   UNL     1       2.544   2.609  19.529  0.00  0.00    +0.000 A 
ATOM      7  N   UNL     1       2.905   1.410  19.070  0.00  0.00    +0.000 NA
ATOM      8  C   UNL     1       3.854   1.382  18.126  0.00  0.00    +0.000 A 
ATOM      9  N   UNL     1       4.499   2.437  17.627  0.00  0.00    +0.000 NA
ATOM     10  C   UNL     1       4.141   3.646  18.092  0.00  0.00    +0.000 A 
ATOM     11  N   UNL     1       4.914   4.761  17.680  0.00  0.00    +0.000 N 
ATOM     12  C   UNL     1       3.118   3.799  19.056  0.00  0.00    +0.000 A 
ATOM     13  C   UNL     1       2.587   5.044  19.539  0.00  0.00    +0.000 A 
ATOM     14  S   UNL     1       2.969   6.657  19.068  0.00  0.00    +0.000 S 
ATOM     15  H   UNL     1       4.369   5.608  17.839  0.00  0.00    +0.000 HD
ENDROOT
BRANCH  11  16
ATOM     16  C   UNL     1       5.507   4.940  16.403  0.00  0.00    +0.000 A 
ATOM     17  C   UNL     1       6.851   5.352  16.263  0.00  0.00    +0.000 A 
ATOM     18  C   UNL     1       7.517   5.247  15.039  0.00  0.00    +0.000 A 
ATOM     19  C   UNL     1       6.823   4.688  13.992  0.00  0.00    +0.000 A 
ATOM     20  C   UNL     1       5.504   4.311  14.109  0.00  0.00    +0.000 A 
ATOM     21  C   UNL     1       4.814   4.435  15.293  0.00  0.00    +0.000 A 
ATOM     22  O   UNL     1       5.032   3.731  12.972  0.00  0.00    +0.000 OA
ATOM     23  C   UNL     1       6.274   3.539  12.266  0.00  0.00    +0.000 C 
ATOM     24  O   UNL     1       7.338   4.372  12.772  0.00  0.00    +0.000 OA
ENDBRANCH  11  16
BRANCH   1  26
ATOM     25  N   UNL     1       1.459   9.510  18.979  0.00  0.00    +0.000 N 
ATOM     26  C   UNL     1       1.502   8.730  20.119  0.00  0.00    +0.000 C 
ATOM     27  N   UNL     1       1.314   9.284  21.284  0.00  0.00    +0.000 NA
ATOM     28  H   UNL     1       1.486   8.969  18.111  0.00  0.00    +0.000 HD
ATOM     29  H   UNL     1       1.200  10.287  21.174  0.00  0.00    +0.000 HD
BRANCH  25  30
ATOM     30  C   UNL     1       0.590  10.678  18.875  0.00  0.00    +0.000 C 
BRANCH  30  31
ATOM     31  C   UNL     1       1.375  11.990  19.041  0.00  0.00    +0.000 C 
BRANCH  31  33
ATOM     32  C   UNL     1       2.572  13.477  20.556  0.00  0.00    +0.000 C 
ATOM     33  N   UNL     1       1.544  12.437  20.438  0.00  0.00    +0.000 NA
ATOM     34  C   UNL     1       0.265  12.959  20.935  0.00  0.00    +0.000 C 
ENDBRANCH  31  33
ENDBRANCH  30  31
ENDBRANCH  25  30
ENDBRANCH   1  26
TORSDOF 5
ENDMDL
