MODEL 1
REMARK VINA RESULT:      -7.1      0.000      0.000
REMARK  Name = 
REMARK  4 active torsions:
REMARK  status: ('A' for Active; 'I' for Inactive)
REMARK    1  A    between atoms: C_1  and  C_2
REMARK    2  A    between atoms: C_4  and  C_5
REMARK    3  A    between atoms: C_7  and  N_8
REMARK    4  A    between atoms: N_11  and  C_12
REMARK                            x       y       z     vdW  Elec       q    Type
REMARK                         _______ _______ _______ _____ _____    ______ ____
ROOT
ATOM      1  N   UNL     1       4.898   4.489  15.570  0.00  0.00    +0.000 NA
ATOM      2  C   UNL     1       5.401   4.326  16.748  0.00  0.00    +0.000 C 
ATOM      3  N   UNL     1       6.703   4.084  17.071  0.00  0.00    +0.000 N 
ATOM      4  N   UNL     1       4.670   4.394  17.911  0.00  0.00    +0.000 N 
ATOM      5  H   UNL     1       7.236   3.889  16.220  0.00  0.00    +0.000 HD
ATOM      6  H   UNL     1       6.801   3.301  17.701  0.00  0.00    +0.000 HD
ATOM      7  H   UNL     1       5.249   4.537  18.728  0.00  0.00    +0.000 HD
ENDROOT
BRANCH   1  14
ATOM      8  C   UNL     1       5.572   2.276  11.427  0.00  0.00    +0.000 C 
ATOM      9  C   UNL     1       6.017   3.314  12.411  0.00  0.00    +0.000 A 
ATOM     10  C   UNL     1       7.143   4.078  12.172  0.00  0.00    +0.000 A 
ATOM     11  C   UNL     1       7.476   5.010  13.133  0.00  0.00    +0.000 A 
ATOM     12  C   UNL     1       8.684   5.882  12.970  0.00  0.00    +0.000 C 
ATOM     13  N   UNL     1       6.746   5.187  14.254  0.00  0.00    +0.000 NA
ATOM     14  C   UNL     1       5.663   4.395  14.405  0.00  0.00    +0.000 A 
ATOM     15  N   UNL     1       5.272   3.457  13.529  0.00  0.00    +0.000 NA
ENDBRANCH   1  14
BRANCH   4  16
ATOM     16  C   UNL     1       3.407   5.137  17.961  0.00  0.00    +0.000 C 
ATOM     17  C   UNL     1       2.217   4.225  17.610  0.00  0.00    +0.000 C 
ATOM     18  C   UNL     1       1.599   3.450  18.775  0.00  0.00    +0.000 C 
ATOM     19  C   UNL     1       1.384   4.328  19.999  0.00  0.00    +0.000 C 
ATOM     20  C   UNL     1       2.701   4.953  20.429  0.00  0.00    +0.000 C 
ATOM     21  C   UNL     1       3.268   5.838  19.323  0.00  0.00    +0.000 C 
ENDBRANCH   4  16
TORSDOF 2
ENDMDL
MODEL 2
REMARK VINA RESULT:      -7.0      0.926      1.613
REMARK  Name = 
REMARK  4 active torsions:
REMARK  status: ('A' for Active; 'I' for Inactive)
REMARK    1  A    between atoms: C_1  and  C_2
REMARK    2  A    between atoms: C_4  and  C_5
REMARK    3  A    between atoms: C_7  and  N_8
REMARK    4  A    between atoms: N_11  and  C_12
REMARK                            x       y       z     vdW  Elec       q    Type
REMARK                         _______ _______ _______ _____ _____    ______ ____
ROOT
ATOM      1  N   UNL     1       5.709   4.427  15.797  0.00  0.00    +0.000 NA
ATOM      2  C   UNL     1       5.215   5.493  16.334  0.00  0.00    +0.000 C 
ATOM      3  N   UNL     1       5.089   6.727  15.770  0.00  0.00    +0.000 N 
ATOM      4  N   UNL     1       4.699   5.542  17.608  0.00  0.00    +0.000 N 
ATOM      5  H   UNL     1       5.592   6.750  14.880  0.00  0.00    +0.000 HD
ATOM      6  H   UNL     1       5.451   7.458  16.366  0.00  0.00    +0.000 HD
ATOM      7  H   UNL     1       4.102   6.346  17.757  0.00  0.00    +0.000 HD
ENDROOT
BRANCH   1  14
ATOM      8  C   UNL     1       5.664   2.413  11.501  0.00  0.00    +0.000 C 
ATOM      9  C   UNL     1       6.252   3.428  12.433  0.00  0.00    +0.000 A 
ATOM     10  C   UNL     1       7.287   4.247  12.025  0.00  0.00    +0.000 A 
ATOM     11  C   UNL     1       7.763   5.153  12.950  0.00  0.00    +0.000 A 
ATOM     12  C   UNL     1       8.889   6.080  12.607  0.00  0.00    +0.000 C 
ATOM     13  N   UNL     1       7.252   5.253  14.194  0.00  0.00    +0.000 NA
ATOM     14  C   UNL     1       6.244   4.412  14.507  0.00  0.00    +0.000 A 
ATOM     15  N   UNL     1       5.726   3.495  13.676  0.00  0.00    +0.000 NA
ENDBRANCH   1  14
BRANCH   4  16
ATOM     16  C   UNL     1       4.206   4.327  18.266  0.00  0.00    +0.000 C 
ATOM     17  C   UNL     1       3.920   4.587  19.756  0.00  0.00    +0.000 C 
ATOM     18  C   UNL     1       2.524   5.116  20.089  0.00  0.00    +0.000 C 
ATOM     19  C   UNL     1       1.430   4.352  19.358  0.00  0.00    +0.000 C 
ATOM     20  C   UNL     1       1.667   4.413  17.857  0.00  0.00    +0.000 C 
ATOM     21  C   UNL     1       3.001   3.768  17.492  0.00  0.00    +0.000 C 
ENDBRANCH   4  16
TORSDOF 2
ENDMDL
MODEL 3
REMARK VINA RESULT:      -6.9      0.915      2.583
REMARK  Name = 
REMARK  4 active torsions:
REMARK  status: ('A' for Active; 'I' for Inactive)
REMARK    1  A    between atoms: C_1  and  C_2
REMARK    2  A    between atoms: C_4  and  C_5
REMARK    3  A    between atoms: C_7  and  N_8
REMARK    4  A    between atoms: N_11  and  C_12
REMARK                            x       y       z     vdW  Elec       q    Type
REMARK                         _______ _______ _______ _____ _____    ______ ____
ROOT
ATOM      1  N   UNL     1       5.705   4.407  15.795  0.00  0.00    +0.000 NA
ATOM      2  C   UNL     1       5.218   5.509  16.257  0.00  0.00    +0.000 C 
ATOM      3  N   UNL     1       5.077   6.697  15.603  0.00  0.00    +0.000 N 
ATOM      4  N   UNL     1       4.724   5.654  17.533  0.00  0.00    +0.000 N 
ATOM      5  H   UNL     1       5.565   6.652  14.705  0.00  0.00    +0.000 HD
ATOM      6  H   UNL     1       5.448   7.471  16.136  0.00  0.00    +0.000 HD
ATOM      7  H   UNL     1       4.127   6.467  17.631  0.00  0.00    +0.000 HD
ENDROOT
BRANCH   1  14
ATOM      8  C   UNL     1       8.773   6.067  12.578  0.00  0.00    +0.000 C 
ATOM      9  C   UNL     1       7.676   5.107  12.925  0.00  0.00    +0.000 A 
ATOM     10  C   UNL     1       7.194   4.215  11.988  0.00  0.00    +0.000 A 
ATOM     11  C   UNL     1       6.186   3.368  12.397  0.00  0.00    +0.000 A 
ATOM     12  C   UNL     1       5.591   2.369  11.452  0.00  0.00    +0.000 C 
ATOM     13  N   UNL     1       5.687   3.389  13.650  0.00  0.00    +0.000 NA
ATOM     14  C   UNL     1       6.217   4.294  14.500  0.00  0.00    +0.000 A 
ATOM     15  N   UNL     1       7.189   5.163  14.185  0.00  0.00    +0.000 NA
ENDBRANCH   1  14
BRANCH   4  16
ATOM     16  C   UNL     1       4.246   4.493  18.290  0.00  0.00    +0.000 C 
ATOM     17  C   UNL     1       3.911   4.882  19.742  0.00  0.00    +0.000 C 
ATOM     18  C   UNL     1       2.493   5.399  19.988  0.00  0.00    +0.000 C 
ATOM     19  C   UNL     1       1.441   4.537  19.305  0.00  0.00    +0.000 C 
ATOM     20  C   UNL     1       1.718   4.464  17.812  0.00  0.00    +0.000 C 
ATOM     21  C   UNL     1       3.078   3.828  17.543  0.00  0.00    +0.000 C 
ENDBRANCH   4  16
TORSDOF 2
ENDMDL
MODEL 4
REMARK VINA RESULT:      -6.8      0.147      2.012
REMARK  Name = 
REMARK  4 active torsions:
REMARK  status: ('A' for Active; 'I' for Inactive)
REMARK    1  A    between atoms: C_1  and  C_2
REMARK    2  A    between atoms: C_4  and  C_5
REMARK    3  A    between atoms: C_7  and  N_8
REMARK    4  A    between atoms: N_11  and  C_12
REMARK                            x       y       z     vdW  Elec       q    Type
REMARK                         _______ _______ _______ _____ _____    ______ ____
ROOT
ATOM      1  N   UNL     1       5.006   4.456  15.588  0.00  0.00    +0.000 NA
ATOM      2  C   UNL     1       5.537   4.382  16.763  0.00  0.00    +0.000 C 
ATOM      3  N   UNL     1       6.847   4.174  17.073  0.00  0.00    +0.000 N 
ATOM      4  N   UNL     1       4.831   4.531  17.934  0.00  0.00    +0.000 N 
ATOM      5  H   UNL     1       7.363   3.920  16.227  0.00  0.00    +0.000 HD
ATOM      6  H   UNL     1       6.965   3.439  17.757  0.00  0.00    +0.000 HD
ATOM      7  H   UNL     1       5.427   4.738  18.726  0.00  0.00    +0.000 HD
ENDROOT
BRANCH   1  14
ATOM      8  C   UNL     1       8.623   5.962  12.911  0.00  0.00    +0.000 C 
ATOM      9  C   UNL     1       7.475   5.018  13.098  0.00  0.00    +0.000 A 
ATOM     10  C   UNL     1       7.166   4.080  12.132  0.00  0.00    +0.000 A 
ATOM     11  C   UNL     1       6.094   3.253  12.390  0.00  0.00    +0.000 A 
ATOM     12  C   UNL     1       5.674   2.208  11.402  0.00  0.00    +0.000 C 
ATOM     13  N   UNL     1       5.374   3.335  13.529  0.00  0.00    +0.000 NA
ATOM     14  C   UNL     1       5.746   4.282  14.416  0.00  0.00    +0.000 A 
ATOM     15  N   UNL     1       6.766   5.135  14.243  0.00  0.00    +0.000 NA
ENDBRANCH   1  14
BRANCH   4  16
ATOM     16  C   UNL     1       3.564   5.269  17.959  0.00  0.00    +0.000 C 
ATOM     17  C   UNL     1       2.392   4.362  17.540  0.00  0.00    +0.000 C 
ATOM     18  C   UNL     1       1.735   3.554  18.660  0.00  0.00    +0.000 C 
ATOM     19  C   UNL     1       1.472   4.397  19.900  0.00  0.00    +0.000 C 
ATOM     20  C   UNL     1       2.770   5.015  20.394  0.00  0.00    +0.000 C 
ATOM     21  C   UNL     1       3.373   5.931  19.333  0.00  0.00    +0.000 C 
ENDBRANCH   4  16
TORSDOF 2
ENDMDL
MODEL 5
REMARK VINA RESULT:      -6.6      0.914      1.000
REMARK  Name = 
REMARK  4 active torsions:
REMARK  status: ('A' for Active; 'I' for Inactive)
REMARK    1  A    between atoms: C_1  and  C_2
REMARK    2  A    between atoms: C_4  and  C_5
REMARK    3  A    between atoms: C_7  and  N_8
REMARK    4  A    between atoms: N_11  and  C_12
REMARK                            x       y       z     vdW  Elec       q    Type
REMARK                         _______ _______ _______ _____ _____    ______ ____
ROOT
ATOM      1  N   UNL     1       5.409   4.173  15.640  0.00  0.00    +0.000 NA
ATOM      2  C   UNL     1       6.074   4.194  16.747  0.00  0.00    +0.000 C 
ATOM      3  N   UNL     1       7.424   4.294  16.906  0.00  0.00    +0.000 N 
ATOM      4  N   UNL     1       5.493   4.136  17.992  0.00  0.00    +0.000 N 
ATOM      5  H   UNL     1       7.884   4.196  15.998  0.00  0.00    +0.000 HD
ATOM      6  H   UNL     1       7.788   3.589  17.532  0.00  0.00    +0.000 HD
ATOM      7  H   UNL     1       6.111   4.455  18.727  0.00  0.00    +0.000 HD
ENDROOT
BRANCH   1  14
ATOM      8  C   UNL     1       5.765   2.249  11.317  0.00  0.00    +0.000 C 
ATOM      9  C   UNL     1       6.232   3.275  12.304  0.00  0.00    +0.000 A 
ATOM     10  C   UNL     1       7.244   4.157  11.982  0.00  0.00    +0.000 A 
ATOM     11  C   UNL     1       7.606   5.068  12.951  0.00  0.00    +0.000 A 
ATOM     12  C   UNL     1       8.699   6.062  12.701  0.00  0.00    +0.000 C 
ATOM     13  N   UNL     1       7.008   5.115  14.160  0.00  0.00    +0.000 NA
ATOM     14  C   UNL     1       6.029   4.214  14.389  0.00  0.00    +0.000 A 
ATOM     15  N   UNL     1       5.620   3.287  13.510  0.00  0.00    +0.000 NA
ENDBRANCH   1  14
BRANCH   4  16
ATOM     16  C   UNL     1       4.099   4.549  18.191  0.00  0.00    +0.000 C 
ATOM     17  C   UNL     1       3.148   3.715  17.313  0.00  0.00    +0.000 C 
ATOM     18  C   UNL     1       2.655   2.400  17.919  0.00  0.00    +0.000 C 
ATOM     19  C   UNL     1       2.202   2.567  19.363  0.00  0.00    +0.000 C 
ATOM     20  C   UNL     1       3.336   3.135  20.201  0.00  0.00    +0.000 C 
ATOM     21  C   UNL     1       3.753   4.511  19.688  0.00  0.00    +0.000 C 
ENDBRANCH   4  16
TORSDOF 2
ENDMDL
MODEL 6
REMARK VINA RESULT:      -6.4      1.033      1.233
REMARK  Name = 
REMARK  4 active torsions:
REMARK  status: ('A' for Active; 'I' for Inactive)
REMARK    1  A    between atoms: C_1  and  C_2
REMARK    2  A    between atoms: C_4  and  C_5
REMARK    3  A    between atoms: C_7  and  N_8
REMARK    4  A    between atoms: N_11  and  C_12
REMARK                            x       y       z     vdW  Elec       q    Type
REMARK                         _______ _______ _______ _____ _____    ______ ____
ROOT
ATOM      1  N   UNL     1       5.066   4.736  15.591  0.00  0.00    +0.000 NA
ATOM      2  C   UNL     1       5.375   5.618  16.482  0.00  0.00    +0.000 C 
ATOM      3  N   UNL     1       6.383   6.534  16.432  0.00  0.00    +0.000 N 
ATOM      4  N   UNL     1       4.689   5.790  17.661  0.00  0.00    +0.000 N 
ATOM      5  H   UNL     1       6.990   6.332  15.634  0.00  0.00    +0.000 HD
ATOM      6  H   UNL     1       6.942   6.532  17.273  0.00  0.00    +0.000 HD
ATOM      7  H   UNL     1       4.870   6.689  18.091  0.00  0.00    +0.000 HD
ENDROOT
BRANCH   1  14
ATOM      8  C   UNL     1       5.545   2.348  11.518  0.00  0.00    +0.000 C 
ATOM      9  C   UNL     1       6.054   3.405  12.450  0.00  0.00    +0.000 A 
ATOM     10  C   UNL     1       7.198   4.119  12.152  0.00  0.00    +0.000 A 
ATOM     11  C   UNL     1       7.590   5.073  13.067  0.00  0.00    +0.000 A 
ATOM     12  C   UNL     1       8.822   5.896  12.838  0.00  0.00    +0.000 C 
ATOM     13  N   UNL     1       6.899   5.318  14.200  0.00  0.00    +0.000 NA
ATOM     14  C   UNL     1       5.794   4.571  14.410  0.00  0.00    +0.000 A 
ATOM     15  N   UNL     1       5.346   3.616  13.582  0.00  0.00    +0.000 NA
ENDBRANCH   1  14
BRANCH   4  16
ATOM     16  C   UNL     1       3.293   5.360  17.788  0.00  0.00    +0.000 C 
ATOM     17  C   UNL     1       3.169   4.172  18.758  0.00  0.00    +0.000 C 
ATOM     18  C   UNL     1       3.004   4.526  20.237  0.00  0.00    +0.000 C 
ATOM     19  C   UNL     1       1.978   5.629  20.453  0.00  0.00    +0.000 C 
ATOM     20  C   UNL     1       2.370   6.866  19.660  0.00  0.00    +0.000 C 
ATOM     21  C   UNL     1       2.410   6.562  18.165  0.00  0.00    +0.000 C 
ENDBRANCH   4  16
TORSDOF 2
ENDMDL
MODEL 7
REMARK VINA RESULT:      -6.3      1.797      3.504
REMARK  Name = 
REMARK  4 active torsions:
REMARK  status: ('A' for Active; 'I' for Inactive)
REMARK    1  A    between atoms: C_1  and  C_2
REMARK    2  A    between atoms: C_4  and  C_5
REMARK    3  A    between atoms: C_7  and  N_8
REMARK    4  A    between atoms: N_11  and  C_12
REMARK                            x       y       z     vdW  Elec       q    Type
REMARK                         _______ _______ _______ _____ _____    ______ ____
ROOT
ATOM      1  N   UNL     1       3.524   3.513  17.186  0.00  0.00    +0.000 NA
ATOM      2  C   UNL     1       3.287   2.376  17.750  0.00  0.00    +0.000 C 
ATOM      3  N   UNL     1       4.177   1.380  18.023  0.00  0.00    +0.000 N 
ATOM      4  N   UNL     1       2.047   1.987  18.202  0.00  0.00    +0.000 N 
ATOM      5  H   UNL     1       5.070   1.586  17.571  0.00  0.00    +0.000 HD
ATOM      6  H   UNL     1       3.851   0.479  17.702  0.00  0.00    +0.000 HD
ATOM      7  H   UNL     1       2.095   1.223  18.864  0.00  0.00    +0.000 HD
ENDROOT
BRANCH   1  14
ATOM      8  C   UNL     1       7.824   5.203  18.268  0.00  0.00    +0.000 C 
ATOM      9  C   UNL     1       6.865   4.715  17.225  0.00  0.00    +0.000 A 
ATOM     10  C   UNL     1       7.227   4.682  15.893  0.00  0.00    +0.000 A 
ATOM     11  C   UNL     1       6.281   4.216  15.004  0.00  0.00    +0.000 A 
ATOM     12  C   UNL     1       6.574   4.148  13.536  0.00  0.00    +0.000 C 
ATOM     13  N   UNL     1       5.058   3.803  15.399  0.00  0.00    +0.000 NA
ATOM     14  C   UNL     1       4.791   3.872  16.720  0.00  0.00    +0.000 A 
ATOM     15  N   UNL     1       5.645   4.321  17.652  0.00  0.00    +0.000 NA
ENDBRANCH   1  14
BRANCH   4  16
ATOM     16  C   UNL     1       1.026   2.983  18.543  0.00  0.00    +0.000 C 
ATOM     17  C   UNL     1       0.484   2.751  19.965  0.00  0.00    +0.000 C 
ATOM     18  C   UNL     1       1.260   3.425  21.097  0.00  0.00    +0.000 C 
ATOM     19  C   UNL     1       1.600   4.873  20.778  0.00  0.00    +0.000 C 
ATOM     20  C   UNL     1       2.395   4.948  19.484  0.00  0.00    +0.000 C 
ATOM     21  C   UNL     1       1.582   4.398  18.316  0.00  0.00    +0.000 C 
ENDBRANCH   4  16
TORSDOF 2
ENDMDL
MODEL 8
REMARK VINA RESULT:      -6.3      1.774      2.831
REMARK  Name = 
REMARK  4 active torsions:
REMARK  status: ('A' for Active; 'I' for Inactive)
REMARK    1  A    between atoms: C_1  and  C_2
REMARK    2  A    between atoms: C_4  and  C_5
REMARK    3  A    between atoms: C_7  and  N_8
REMARK    4  A    between atoms: N_11  and  C_12
REMARK                            x       y       z     vdW  Elec       q    Type
REMARK                         _______ _______ _______ _____ _____    ______ ____
ROOT
ATOM      1  N   UNL     1       3.555   4.189  17.146  0.00  0.00    +0.000 NA
ATOM      2  C   UNL     1       3.379   2.961  17.504  0.00  0.00    +0.000 C 
ATOM      3  N   UNL     1       4.270   1.933  17.424  0.00  0.00    +0.000 N 
ATOM      4  N   UNL     1       2.217   2.485  18.066  0.00  0.00    +0.000 N 
ATOM      5  H   UNL     1       5.085   2.229  16.881  0.00  0.00    +0.000 HD
ATOM      6  H   UNL     1       3.870   1.114  16.988  0.00  0.00    +0.000 HD
ATOM      7  H   UNL     1       2.348   1.604  18.547  0.00  0.00    +0.000 HD
ENDROOT
BRANCH   1  14
ATOM      8  C   UNL     1       6.499   3.927  13.433  0.00  0.00    +0.000 C 
ATOM      9  C   UNL     1       6.188   4.500  14.782  0.00  0.00    +0.000 A 
ATOM     10  C   UNL     1       7.060   5.376  15.397  0.00  0.00    +0.000 A 
ATOM     11  C   UNL     1       6.690   5.854  16.636  0.00  0.00    +0.000 A 
ATOM     12  C   UNL     1       7.572   6.803  17.389  0.00  0.00    +0.000 C 
ATOM     13  N   UNL     1       5.532   5.500  17.232  0.00  0.00    +0.000 NA
ATOM     14  C   UNL     1       4.741   4.638  16.559  0.00  0.00    +0.000 A 
ATOM     15  N   UNL     1       5.026   4.116  15.357  0.00  0.00    +0.000 NA
ENDBRANCH   1  14
BRANCH   4  16
ATOM     16  C   UNL     1       1.294   3.389  18.761  0.00  0.00    +0.000 C 
ATOM     17  C   UNL     1       0.626   2.683  19.955  0.00  0.00    +0.000 C 
ATOM     18  C   UNL     1       1.389   2.738  21.279  0.00  0.00    +0.000 C 
ATOM     19  C   UNL     1       1.915   4.133  21.582  0.00  0.00    +0.000 C 
ATOM     20  C   UNL     1       2.806   4.611  20.447  0.00  0.00    +0.000 C 
ATOM     21  C   UNL     1       2.023   4.689  19.139  0.00  0.00    +0.000 C 
ENDBRANCH   4  16
TORSDOF 2
ENDMDL
MODEL 9
REMARK VINA RESULT:      -6.2      4.824      7.932
REMARK  Name = 
REMARK  4 active torsions:
REMARK  status: ('A' for Active; 'I' for Inactive)
REMARK    1  A    between atoms: C_1  and  C_2
REMARK    2  A    between atoms: C_4  and  C_5
REMARK    3  A    between atoms: C_7  and  N_8
REMARK    4  A    between atoms: N_11  and  C_12
REMARK                            x       y       z     vdW  Elec       q    Type
REMARK                         _______ _______ _______ _____ _____    ______ ____
ROOT
ATOM      1  N   UNL     1       2.055   8.393  18.196  0.00  0.00    +0.000 NA
ATOM      2  C   UNL     1       2.232   7.588  19.190  0.00  0.00    +0.000 C 
ATOM      3  N   UNL     1       1.897   7.791  20.495  0.00  0.00    +0.000 N 
ATOM      4  N   UNL     1       2.791   6.337  19.074  0.00  0.00    +0.000 N 
ATOM      5  H   UNL     1       1.612   8.764  20.628  0.00  0.00    +0.000 HD
ATOM      6  H   UNL     1       2.665   7.590  21.121  0.00  0.00    +0.000 HD
ATOM      7  H   UNL     1       2.588   5.743  19.868  0.00  0.00    +0.000 HD
ENDROOT
BRANCH   1  14
ATOM      8  C   UNL     1       2.810  13.078  18.220  0.00  0.00    +0.000 C 
ATOM      9  C   UNL     1       1.858  11.933  18.390  0.00  0.00    +0.000 A 
ATOM     10  C   UNL     1       0.536  12.157  18.723  0.00  0.00    +0.000 A 
ATOM     11  C   UNL     1      -0.267  11.044  18.857  0.00  0.00    +0.000 A 
ATOM     12  C   UNL     1      -1.714  11.180  19.223  0.00  0.00    +0.000 C 
ATOM     13  N   UNL     1       0.195   9.790  18.669  0.00  0.00    +0.000 NA
ATOM     14  C   UNL     1       1.500   9.666  18.348  0.00  0.00    +0.000 A 
ATOM     15  N   UNL     1       2.356  10.690  18.208  0.00  0.00    +0.000 NA
ENDBRANCH   1  14
BRANCH   4  16
ATOM     16  C   UNL     1       2.768   5.619  17.795  0.00  0.00    +0.000 C 
ATOM     17  C   UNL     1       4.127   4.952  17.514  0.00  0.00    +0.000 C 
ATOM     18  C   UNL     1       4.318   3.549  18.091  0.00  0.00    +0.000 C 
ATOM     19  C   UNL     1       3.111   2.656  17.843  0.00  0.00    +0.000 C 
ATOM     20  C   UNL     1       1.862   3.296  18.428  0.00  0.00    +0.000 C 
ATOM     21  C   UNL     1       1.582   4.642  17.767  0.00  0.00    +0.000 C 
ENDBRANCH   4  16
TORSDOF 2
ENDMDL
