MODEL 1
REMARK VINA RESULT:      -7.2      0.000      0.000
REMARK  Name = 
REMARK  10 active torsions:
REMARK  status: ('A' for Active; 'I' for Inactive)
REMARK    1  A    between atoms: C_1  and  O_2
REMARK    2  A    between atoms: O_2  and  C_3
REMARK    3  A    between atoms: C_5  and  C_6
REMARK    4  A    between atoms: C_6  and  C_7
REMARK    5  A    between atoms: C_13  and  N_14
REMARK    6  A    between atoms: C_16  and  O_17
REMARK    7  A    between atoms: O_17  and  C_18
REMARK    8  A    between atoms: C_19  and  O_20
REMARK    9  A    between atoms: O_20  and  C_21
REMARK   10  A    between atoms: C_21  and  C_22
REMARK                            x       y       z     vdW  Elec       q    Type
REMARK                         _______ _______ _______ _____ _____    ______ ____
ROOT
ATOM      1  C   UNL     1       4.461   6.748  17.400  0.00  0.00    +0.000 A 
ATOM      2  C   UNL     1       3.641   5.627  17.601  0.00  0.00    +0.000 A 
ATOM      3  C   UNL     1       4.024   4.353  17.180  0.00  0.00    +0.000 A 
ATOM      4  C   UNL     1       5.244   4.217  16.515  0.00  0.00    +0.000 A 
ATOM      5  C   UNL     1       6.116   5.307  16.345  0.00  0.00    +0.000 A 
ATOM      6  C   UNL     1       5.742   6.590  16.807  0.00  0.00    +0.000 A 
ENDROOT
BRANCH   1   8
ATOM      7  C   UNL     1       2.691   8.328  17.878  0.00  0.00    +0.000 C 
ATOM      8  O   UNL     1       4.073   8.005  17.784  0.00  0.00    +0.000 OA
ENDBRANCH   1   8
BRANCH   5   9
ATOM      9  O   UNL     1       7.281   4.910  15.738  0.00  0.00    +0.000 OA
ATOM     10  C   UNL     1       7.315   4.688  14.338  0.00  0.00    +0.000 C 
ENDBRANCH   5   9
BRANCH   3  11
ATOM     11  C   UNL     1       3.196   3.144  17.539  0.00  0.00    +0.000 C 
BRANCH  11  12
ATOM     12  C   UNL     1       2.668   3.044  18.937  0.00  0.00    +0.000 A 
ATOM     13  C   UNL     1       1.339   3.300  19.208  0.00  0.00    +0.000 A 
ATOM     14  N   UNL     1       0.754   3.081  20.401  0.00  0.00    +0.000 NA
ATOM     15  C   UNL     1       1.545   2.624  21.370  0.00  0.00    +0.000 A 
ATOM     16  N   UNL     1       0.947   2.282  22.564  0.00  0.00    +0.000 N 
ATOM     17  N   UNL     1       2.851   2.390  21.232  0.00  0.00    +0.000 NA
ATOM     18  C   UNL     1       3.400   2.610  20.029  0.00  0.00    +0.000 A 
ATOM     19  H   UNL     1      -0.032   2.095  22.400  0.00  0.00    +0.000 HD
ATOM     20  H   UNL     1       1.483   1.550  23.012  0.00  0.00    +0.000 HD
BRANCH  18  21
ATOM     21  N   UNL     1       4.770   2.360  19.954  0.00  0.00    +0.000 N 
ATOM     22  H   UNL     1       4.878   1.524  19.381  0.00  0.00    +0.000 HD
ATOM     23  H   UNL     1       5.279   3.141  19.554  0.00  0.00    +0.000 HD
ENDBRANCH  18  21
ENDBRANCH  11  12
ENDBRANCH   3  11
BRANCH   6  24
ATOM     24  O   UNL     1       6.666   7.592  16.625  0.00  0.00    +0.000 OA
BRANCH  24  25
ATOM     25  C   UNL     1       7.725   7.779  17.566  0.00  0.00    +0.000 C 
BRANCH  25  26
ATOM     26  C   UNL     1       7.979   9.273  17.722  0.00  0.00    +0.000 C 
ATOM     27 CL   UNL     1       9.062   9.596  19.095  0.00  0.00    +0.000 Cl
ENDBRANCH  25  26
ENDBRANCH  24  25
ENDBRANCH   6  24
TORSDOF 8
ENDMDL
MODEL 2
REMARK VINA RESULT:      -6.5      3.981      6.344
REMARK  Name = 
REMARK  10 active torsions:
REMARK  status: ('A' for Active; 'I' for Inactive)
REMARK    1  A    between atoms: C_1  and  O_2
REMARK    2  A    between atoms: O_2  and  C_3
REMARK    3  A    between atoms: C_5  and  C_6
REMARK    4  A    between atoms: C_6  and  C_7
REMARK    5  A    between atoms: C_13  and  N_14
REMARK    6  A    between atoms: C_16  and  O_17
REMARK    7  A    between atoms: O_17  and  C_18
REMARK    8  A    between atoms: C_19  and  O_20
REMARK    9  A    between atoms: O_20  and  C_21
REMARK   10  A    between atoms: C_21  and  C_22
REMARK                            x       y       z     vdW  Elec       q    Type
REMARK                         _______ _______ _______ _____ _____    ______ ____
ROOT
ATOM      1  C   UNL     1       2.840   6.861  18.839  0.00  0.00    +0.000 A 
ATOM      2  C   UNL     1       3.372   5.980  17.886  0.00  0.00    +0.000 A 
ATOM      3  C   UNL     1       3.521   4.617  18.147  0.00  0.00    +0.000 A 
ATOM      4  C   UNL     1       3.154   4.144  19.409  0.00  0.00    +0.000 A 
ATOM      5  C   UNL     1       2.566   4.987  20.369  0.00  0.00    +0.000 A 
ATOM      6  C   UNL     1       2.381   6.360  20.086  0.00  0.00    +0.000 A 
ENDROOT
BRANCH   1   8
ATOM      7  C   UNL     1       1.754   8.678  17.667  0.00  0.00    +0.000 C 
ATOM      8  O   UNL     1       2.721   8.204  18.596  0.00  0.00    +0.000 OA
ENDBRANCH   1   8
BRANCH   5   9
ATOM      9  O   UNL     1       2.221   4.278  21.493  0.00  0.00    +0.000 OA
ATOM     10  C   UNL     1       1.485   3.072  21.377  0.00  0.00    +0.000 C 
ENDBRANCH   5   9
BRANCH   3  11
ATOM     11  C   UNL     1       3.955   3.669  17.058  0.00  0.00    +0.000 C 
BRANCH  11  12
ATOM     12  C   UNL     1       5.159   4.035  16.246  0.00  0.00    +0.000 A 
ATOM     13  C   UNL     1       5.064   4.205  14.880  0.00  0.00    +0.000 A 
ATOM     14  N   UNL     1       6.055   4.683  14.105  0.00  0.00    +0.000 NA
ATOM     15  C   UNL     1       7.201   4.966  14.722  0.00  0.00    +0.000 A 
ATOM     16  N   UNL     1       8.190   5.566  13.973  0.00  0.00    +0.000 N 
ATOM     17  N   UNL     1       7.419   4.793  16.027  0.00  0.00    +0.000 NA
ATOM     18  C   UNL     1       6.408   4.323  16.770  0.00  0.00    +0.000 A 
ATOM     19  H   UNL     1       7.768   6.019  13.174  0.00  0.00    +0.000 HD
ATOM     20  H   UNL     1       8.765   6.142  14.574  0.00  0.00    +0.000 HD
BRANCH  18  21
ATOM     21  N   UNL     1       6.704   4.151  18.123  0.00  0.00    +0.000 N 
ATOM     22  H   UNL     1       7.668   4.456  18.246  0.00  0.00    +0.000 HD
ATOM     23  H   UNL     1       6.078   4.681  18.721  0.00  0.00    +0.000 HD
ENDBRANCH  18  21
ENDBRANCH  11  12
ENDBRANCH   3  11
BRANCH   6  24
ATOM     24  O   UNL     1       1.773   7.103  21.071  0.00  0.00    +0.000 OA
BRANCH  24  25
ATOM     25  C   UNL     1       0.427   7.556  20.908  0.00  0.00    +0.000 C 
BRANCH  25  26
ATOM     26  C   UNL     1       0.369   9.039  21.254  0.00  0.00    +0.000 C 
ATOM     27 CL   UNL     1      -0.387   9.293  22.844  0.00  0.00    +0.000 Cl
ENDBRANCH  25  26
ENDBRANCH  24  25
ENDBRANCH   6  24
TORSDOF 8
ENDMDL
MODEL 3
REMARK VINA RESULT:      -6.4      3.934      6.739
REMARK  Name = 
REMARK  10 active torsions:
REMARK  status: ('A' for Active; 'I' for Inactive)
REMARK    1  A    between atoms: C_1  and  O_2
REMARK    2  A    between atoms: O_2  and  C_3
REMARK    3  A    between atoms: C_5  and  C_6
REMARK    4  A    between atoms: C_6  and  C_7
REMARK    5  A    between atoms: C_13  and  N_14
REMARK    6  A    between atoms: C_16  and  O_17
REMARK    7  A    between atoms: O_17  and  C_18
REMARK    8  A    between atoms: C_19  and  O_20
REMARK    9  A    between atoms: O_20  and  C_21
REMARK   10  A    between atoms: C_21  and  C_22
REMARK                            x       y       z     vdW  Elec       q    Type
REMARK                         _______ _______ _______ _____ _____    ______ ____
ROOT
ATOM      1  C   UNL     1       3.064   3.327  17.801  0.00  0.00    +0.000 A 
ATOM      2  C   UNL     1       4.231   3.657  17.096  0.00  0.00    +0.000 A 
ATOM      3  C   UNL     1       4.581   4.983  16.836  0.00  0.00    +0.000 A 
ATOM      4  C   UNL     1       3.718   5.990  17.270  0.00  0.00    +0.000 A 
ATOM      5  C   UNL     1       2.569   5.700  18.028  0.00  0.00    +0.000 A 
ATOM      6  C   UNL     1       2.237   4.357  18.323  0.00  0.00    +0.000 A 
ENDROOT
BRANCH   1   8
ATOM      7  C   UNL     1       3.654   1.098  18.538  0.00  0.00    +0.000 C 
ATOM      8  O   UNL     1       2.701   2.025  18.030  0.00  0.00    +0.000 OA
ENDBRANCH   1   8
BRANCH   5   9
ATOM      9  O   UNL     1       1.929   6.854  18.405  0.00  0.00    +0.000 OA
ATOM     10  C   UNL     1       2.298   7.515  19.603  0.00  0.00    +0.000 C 
ENDBRANCH   5   9
BRANCH   3  11
ATOM     11  C   UNL     1       5.912   5.317  16.208  0.00  0.00    +0.000 C 
BRANCH  11  12
ATOM     12  C   UNL     1       6.850   6.196  16.975  0.00  0.00    +0.000 A 
ATOM     13  C   UNL     1       6.988   7.531  16.652  0.00  0.00    +0.000 A 
ATOM     14  N   UNL     1       7.685   8.419  17.384  0.00  0.00    +0.000 NA
ATOM     15  C   UNL     1       8.301   7.939  18.463  0.00  0.00    +0.000 A 
ATOM     16  N   UNL     1       8.923   8.848  19.292  0.00  0.00    +0.000 N 
ATOM     17  N   UNL     1       8.276   6.659  18.841  0.00  0.00    +0.000 NA
ATOM     18  C   UNL     1       7.565   5.804  18.094  0.00  0.00    +0.000 A 
ATOM     19  H   UNL     1       8.514   9.761  19.145  0.00  0.00    +0.000 HD
ATOM     20  H   UNL     1       8.922   8.495  20.240  0.00  0.00    +0.000 HD
BRANCH  18  21
ATOM     21  N   UNL     1       7.590   4.480  18.533  0.00  0.00    +0.000 N 
ATOM     22  H   UNL     1       8.322   4.015  17.998  0.00  0.00    +0.000 HD
ATOM     23  H   UNL     1       7.770   4.411  19.529  0.00  0.00    +0.000 HD
ENDBRANCH  18  21
ENDBRANCH  11  12
ENDBRANCH   3  11
BRANCH   6  24
ATOM     24  O   UNL     1       1.113   4.166  19.092  0.00  0.00    +0.000 OA
BRANCH  24  25
ATOM     25  C   UNL     1       1.185   4.275  20.516  0.00  0.00    +0.000 C 
BRANCH  25  26
ATOM     26  C   UNL     1       1.223   2.872  21.108  0.00  0.00    +0.000 C 
ATOM     27 CL   UNL     1       2.854   2.474  21.697  0.00  0.00    +0.000 Cl
ENDBRANCH  25  26
ENDBRANCH  24  25
ENDBRANCH   6  24
TORSDOF 8
ENDMDL
MODEL 4
REMARK VINA RESULT:      -6.4      0.653      1.419
REMARK  Name = 
REMARK  10 active torsions:
REMARK  status: ('A' for Active; 'I' for Inactive)
REMARK    1  A    between atoms: C_1  and  O_2
REMARK    2  A    between atoms: O_2  and  C_3
REMARK    3  A    between atoms: C_5  and  C_6
REMARK    4  A    between atoms: C_6  and  C_7
REMARK    5  A    between atoms: C_13  and  N_14
REMARK    6  A    between atoms: C_16  and  O_17
REMARK    7  A    between atoms: O_17  and  C_18
REMARK    8  A    between atoms: C_19  and  O_20
REMARK    9  A    between atoms: O_20  and  C_21
REMARK   10  A    between atoms: C_21  and  C_22
REMARK                            x       y       z     vdW  Elec       q    Type
REMARK                         _______ _______ _______ _____ _____    ______ ____
ROOT
ATOM      1  C   UNL     1       4.585   6.378  17.480  0.00  0.00    +0.000 A 
ATOM      2  C   UNL     1       3.854   5.193  17.655  0.00  0.00    +0.000 A 
ATOM      3  C   UNL     1       4.278   3.981  17.110  0.00  0.00    +0.000 A 
ATOM      4  C   UNL     1       5.446   3.974  16.346  0.00  0.00    +0.000 A 
ATOM      5  C   UNL     1       6.234   5.130  16.195  0.00  0.00    +0.000 A 
ATOM      6  C   UNL     1       5.822   6.349  16.782  0.00  0.00    +0.000 A 
ENDROOT
BRANCH   1   8
ATOM      7  C   UNL     1       2.808   7.991  17.792  0.00  0.00    +0.000 C 
ATOM      8  O   UNL     1       4.155   7.575  17.988  0.00  0.00    +0.000 OA
ENDBRANCH   1   8
BRANCH   5   9
ATOM      9  O   UNL     1       7.369   4.855  15.472  0.00  0.00    +0.000 OA
ATOM     10  C   UNL     1       7.341   4.906  14.056  0.00  0.00    +0.000 C 
ENDBRANCH   5   9
BRANCH   3  11
ATOM     11  C   UNL     1       3.556   2.697  17.436  0.00  0.00    +0.000 C 
BRANCH  11  12
ATOM     12  C   UNL     1       2.958   2.554  18.802  0.00  0.00    +0.000 A 
ATOM     13  C   UNL     1       3.765   2.443  19.917  0.00  0.00    +0.000 A 
ATOM     14  N   UNL     1       3.312   2.469  21.184  0.00  0.00    +0.000 NA
ATOM     15  C   UNL     1       1.994   2.573  21.337  0.00  0.00    +0.000 A 
ATOM     16  N   UNL     1       1.517   2.720  22.622  0.00  0.00    +0.000 N 
ATOM     17  N   UNL     1       1.119   2.636  20.331  0.00  0.00    +0.000 NA
ATOM     18  C   UNL     1       1.604   2.617  19.082  0.00  0.00    +0.000 A 
ATOM     19  H   UNL     1       2.256   3.082  23.208  0.00  0.00    +0.000 HD
ATOM     20  H   UNL     1       0.651   3.244  22.602  0.00  0.00    +0.000 HD
BRANCH  18  21
ATOM     21  N   UNL     1       0.639   2.672  18.076  0.00  0.00    +0.000 N 
ATOM     22  H   UNL     1       0.510   3.659  17.856  0.00  0.00    +0.000 HD
ATOM     23  H   UNL     1       0.917   2.151  17.252  0.00  0.00    +0.000 HD
ENDBRANCH  18  21
ENDBRANCH  11  12
ENDBRANCH   3  11
BRANCH   6  24
ATOM     24  O   UNL     1       6.666   7.420  16.608  0.00  0.00    +0.000 OA
BRANCH  24  25
ATOM     25  C   UNL     1       7.682   7.704  17.572  0.00  0.00    +0.000 C 
BRANCH  25  26
ATOM     26  C   UNL     1       7.839   9.215  17.681  0.00  0.00    +0.000 C 
ATOM     27 CL   UNL     1       9.017   9.644  18.943  0.00  0.00    +0.000 Cl
ENDBRANCH  25  26
ENDBRANCH  24  25
ENDBRANCH   6  24
TORSDOF 8
ENDMDL
MODEL 5
REMARK VINA RESULT:      -6.3      3.862      5.598
REMARK  Name = 
REMARK  10 active torsions:
REMARK  status: ('A' for Active; 'I' for Inactive)
REMARK    1  A    between atoms: C_1  and  O_2
REMARK    2  A    between atoms: O_2  and  C_3
REMARK    3  A    between atoms: C_5  and  C_6
REMARK    4  A    between atoms: C_6  and  C_7
REMARK    5  A    between atoms: C_13  and  N_14
REMARK    6  A    between atoms: C_16  and  O_17
REMARK    7  A    between atoms: O_17  and  C_18
REMARK    8  A    between atoms: C_19  and  O_20
REMARK    9  A    between atoms: O_20  and  C_21
REMARK   10  A    between atoms: C_21  and  C_22
REMARK                            x       y       z     vdW  Elec       q    Type
REMARK                         _______ _______ _______ _____ _____    ______ ____
ROOT
ATOM      1  C   UNL     1       5.356   6.003  17.071  0.00  0.00    +0.000 A 
ATOM      2  C   UNL     1       4.452   6.604  17.961  0.00  0.00    +0.000 A 
ATOM      3  C   UNL     1       3.382   5.894  18.510  0.00  0.00    +0.000 A 
ATOM      4  C   UNL     1       3.206   4.564  18.125  0.00  0.00    +0.000 A 
ATOM      5  C   UNL     1       4.123   3.914  17.280  0.00  0.00    +0.000 A 
ATOM      6  C   UNL     1       5.228   4.624  16.756  0.00  0.00    +0.000 A 
ENDROOT
BRANCH   1   8
ATOM      7  C   UNL     1       7.485   7.128  17.308  0.00  0.00    +0.000 C 
ATOM      8  O   UNL     1       6.388   6.705  16.507  0.00  0.00    +0.000 OA
ENDBRANCH   1   8
BRANCH   5   9
ATOM      9  O   UNL     1       3.781   2.595  17.112  0.00  0.00    +0.000 OA
ATOM     10  C   UNL     1       3.468   1.792  18.237  0.00  0.00    +0.000 C 
ENDBRANCH   5   9
BRANCH   3  11
ATOM     11  C   UNL     1       2.514   6.517  19.575  0.00  0.00    +0.000 C 
BRANCH  11  12
ATOM     12  C   UNL     1       1.976   7.892  19.329  0.00  0.00    +0.000 A 
ATOM     13  C   UNL     1       1.882   8.393  18.046  0.00  0.00    +0.000 A 
ATOM     14  N   UNL     1       1.270   9.548  17.727  0.00  0.00    +0.000 NA
ATOM     15  C   UNL     1       0.766  10.248  18.742  0.00  0.00    +0.000 A 
ATOM     16  N   UNL     1       0.033  11.373  18.431  0.00  0.00    +0.000 N 
ATOM     17  N   UNL     1       0.844   9.883  20.024  0.00  0.00    +0.000 NA
ATOM     18  C   UNL     1       1.452   8.723  20.305  0.00  0.00    +0.000 A 
ATOM     19  H   UNL     1      -0.306  11.294  17.483  0.00  0.00    +0.000 HD
ATOM     20  H   UNL     1      -0.659  11.534  19.152  0.00  0.00    +0.000 HD
BRANCH  18  21
ATOM     21  N   UNL     1       1.514   8.405  21.662  0.00  0.00    +0.000 N 
ATOM     22  H   UNL     1       1.483   7.389  21.720  0.00  0.00    +0.000 HD
ATOM     23  H   UNL     1       2.353   8.768  22.101  0.00  0.00    +0.000 HD
ENDBRANCH  18  21
ENDBRANCH  11  12
ENDBRANCH   3  11
BRANCH   6  24
ATOM     24  O   UNL     1       6.089   3.904  15.961  0.00  0.00    +0.000 OA
BRANCH  24  25
ATOM     25  C   UNL     1       5.825   3.751  14.564  0.00  0.00    +0.000 C 
BRANCH  25  26
ATOM     26  C   UNL     1       6.888   4.516  13.784  0.00  0.00    +0.000 C 
ATOM     27 CL   UNL     1       6.969   3.953  12.099  0.00  0.00    +0.000 Cl
ENDBRANCH  25  26
ENDBRANCH  24  25
ENDBRANCH   6  24
TORSDOF 8
ENDMDL
MODEL 6
REMARK VINA RESULT:      -6.3      1.060      1.111
REMARK  Name = 
REMARK  10 active torsions:
REMARK  status: ('A' for Active; 'I' for Inactive)
REMARK    1  A    between atoms: C_1  and  O_2
REMARK    2  A    between atoms: O_2  and  C_3
REMARK    3  A    between atoms: C_5  and  C_6
REMARK    4  A    between atoms: C_6  and  C_7
REMARK    5  A    between atoms: C_13  and  N_14
REMARK    6  A    between atoms: C_16  and  O_17
REMARK    7  A    between atoms: O_17  and  C_18
REMARK    8  A    between atoms: C_19  and  O_20
REMARK    9  A    between atoms: O_20  and  C_21
REMARK   10  A    between atoms: C_21  and  C_22
REMARK                            x       y       z     vdW  Elec       q    Type
REMARK                         _______ _______ _______ _____ _____    ______ ____
ROOT
ATOM      1  C   UNL     1       4.387   6.491  17.299  0.00  0.00    +0.000 A 
ATOM      2  C   UNL     1       3.571   5.381  17.566  0.00  0.00    +0.000 A 
ATOM      3  C   UNL     1       3.891   4.106  17.096  0.00  0.00    +0.000 A 
ATOM      4  C   UNL     1       5.038   3.959  16.315  0.00  0.00    +0.000 A 
ATOM      5  C   UNL     1       5.908   5.037  16.074  0.00  0.00    +0.000 A 
ATOM      6  C   UNL     1       5.602   6.320  16.585  0.00  0.00    +0.000 A 
ENDROOT
BRANCH   1   8
ATOM      7  C   UNL     1       2.714   8.203  17.655  0.00  0.00    +0.000 C 
ATOM      8  O   UNL     1       4.060   7.749  17.732  0.00  0.00    +0.000 OA
ENDBRANCH   1   8
BRANCH   5   9
ATOM      9  O   UNL     1       7.003   4.629  15.353  0.00  0.00    +0.000 OA
ATOM     10  C   UNL     1       7.033   4.798  13.946  0.00  0.00    +0.000 C 
ENDBRANCH   5   9
BRANCH   3  11
ATOM     11  C   UNL     1       3.080   2.906  17.520  0.00  0.00    +0.000 C 
BRANCH  11  12
ATOM     12  C   UNL     1       2.573   2.862  18.928  0.00  0.00    +0.000 A 
ATOM     13  C   UNL     1       1.251   3.138  19.211  0.00  0.00    +0.000 A 
ATOM     14  N   UNL     1       0.683   2.969  20.419  0.00  0.00    +0.000 NA
ATOM     15  C   UNL     1       1.486   2.542  21.393  0.00  0.00    +0.000 A 
ATOM     16  N   UNL     1       0.904   2.250  22.607  0.00  0.00    +0.000 N 
ATOM     17  N   UNL     1       2.788   2.293  21.243  0.00  0.00    +0.000 NA
ATOM     18  C   UNL     1       3.319   2.463  20.025  0.00  0.00    +0.000 A 
ATOM     19  H   UNL     1      -0.079   2.064  22.466  0.00  0.00    +0.000 HD
ATOM     20  H   UNL     1       1.442   1.531  23.074  0.00  0.00    +0.000 HD
BRANCH  18  21
ATOM     21  N   UNL     1       4.686   2.200  19.937  0.00  0.00    +0.000 N 
ATOM     22  H   UNL     1       5.117   2.655  20.741  0.00  0.00    +0.000 HD
ATOM     23  H   UNL     1       4.884   1.205  19.935  0.00  0.00    +0.000 HD
ENDBRANCH  18  21
ENDBRANCH  11  12
ENDBRANCH   3  11
BRANCH   6  24
ATOM     24  O   UNL     1       6.522   7.310  16.325  0.00  0.00    +0.000 OA
BRANCH  24  25
ATOM     25  C   UNL     1       7.713   7.412  17.108  0.00  0.00    +0.000 C 
BRANCH  25  26
ATOM     26  C   UNL     1       7.408   6.931  18.521  0.00  0.00    +0.000 C 
ATOM     27 CL   UNL     1       8.032   5.285  18.782  0.00  0.00    +0.000 Cl
ENDBRANCH  25  26
ENDBRANCH  24  25
ENDBRANCH   6  24
TORSDOF 8
ENDMDL
MODEL 7
REMARK VINA RESULT:      -6.3      3.992      6.092
REMARK  Name = 
REMARK  10 active torsions:
REMARK  status: ('A' for Active; 'I' for Inactive)
REMARK    1  A    between atoms: C_1  and  O_2
REMARK    2  A    between atoms: O_2  and  C_3
REMARK    3  A    between atoms: C_5  and  C_6
REMARK    4  A    between atoms: C_6  and  C_7
REMARK    5  A    between atoms: C_13  and  N_14
REMARK    6  A    between atoms: C_16  and  O_17
REMARK    7  A    between atoms: O_17  and  C_18
REMARK    8  A    between atoms: C_19  and  O_20
REMARK    9  A    between atoms: O_20  and  C_21
REMARK   10  A    between atoms: C_21  and  C_22
REMARK                            x       y       z     vdW  Elec       q    Type
REMARK                         _______ _______ _______ _____ _____    ______ ____
ROOT
ATOM      1  C   UNL     1       4.890   4.716  17.906  0.00  0.00    +0.000 A 
ATOM      2  C   UNL     1       4.555   6.078  17.928  0.00  0.00    +0.000 A 
ATOM      3  C   UNL     1       3.232   6.511  17.822  0.00  0.00    +0.000 A 
ATOM      4  C   UNL     1       2.235   5.548  17.659  0.00  0.00    +0.000 A 
ATOM      5  C   UNL     1       2.527   4.173  17.689  0.00  0.00    +0.000 A 
ATOM      6  C   UNL     1       3.864   3.737  17.835  0.00  0.00    +0.000 A 
ENDROOT
BRANCH   1   8
ATOM      7  C   UNL     1       7.232   5.079  17.418  0.00  0.00    +0.000 C 
ATOM      8  O   UNL     1       6.190   4.290  17.979  0.00  0.00    +0.000 OA
ENDBRANCH   1   8
BRANCH   5   9
ATOM      9  O   UNL     1       1.378   3.429  17.589  0.00  0.00    +0.000 OA
ATOM     10  C   UNL     1       0.648   3.085  18.755  0.00  0.00    +0.000 C 
ENDBRANCH   5   9
BRANCH   3  11
ATOM     11  C   UNL     1       2.885   7.969  17.997  0.00  0.00    +0.000 C 
BRANCH  11  12
ATOM     12  C   UNL     1       1.907   8.334  19.071  0.00  0.00    +0.000 A 
ATOM     13  C   UNL     1       1.898   7.661  20.276  0.00  0.00    +0.000 A 
ATOM     14  N   UNL     1       1.164   8.027  21.342  0.00  0.00    +0.000 NA
ATOM     15  C   UNL     1       0.378   9.089  21.180  0.00  0.00    +0.000 A 
ATOM     16  N   UNL     1      -0.294   9.553  22.290  0.00  0.00    +0.000 N 
ATOM     17  N   UNL     1       0.270   9.783  20.045  0.00  0.00    +0.000 NA
ATOM     18  C   UNL     1       1.022   9.397  19.005  0.00  0.00    +0.000 A 
ATOM     19  H   UNL     1       0.187   9.239  23.121  0.00  0.00    +0.000 HD
ATOM     20  H   UNL     1      -0.446  10.550  22.200  0.00  0.00    +0.000 HD
BRANCH  18  21
ATOM     21  N   UNL     1       0.854  10.154  17.845  0.00  0.00    +0.000 N 
ATOM     22  H   UNL     1       1.477   9.750  17.147  0.00  0.00    +0.000 HD
ATOM     23  H   UNL     1      -0.107  10.146  17.521  0.00  0.00    +0.000 HD
ENDBRANCH  18  21
ENDBRANCH  11  12
ENDBRANCH   3  11
BRANCH   6  24
ATOM     24  O   UNL     1       4.055   2.375  17.882  0.00  0.00    +0.000 OA
BRANCH  24  25
ATOM     25  C   UNL     1       3.663   1.630  19.037  0.00  0.00    +0.000 C 
BRANCH  25  26
ATOM     26  C   UNL     1       4.197   2.338  20.275  0.00  0.00    +0.000 C 
ATOM     27 CL   UNL     1       2.894   2.646  21.446  0.00  0.00    +0.000 Cl
ENDBRANCH  25  26
ENDBRANCH  24  25
ENDBRANCH   6  24
TORSDOF 8
ENDMDL
MODEL 8
REMARK VINA RESULT:      -6.2      4.790      7.175
REMARK  Name = 
REMARK  10 active torsions:
REMARK  status: ('A' for Active; 'I' for Inactive)
REMARK    1  A    between atoms: C_1  and  O_2
REMARK    2  A    between atoms: O_2  and  C_3
REMARK    3  A    between atoms: C_5  and  C_6
REMARK    4  A    between atoms: C_6  and  C_7
REMARK    5  A    between atoms: C_13  and  N_14
REMARK    6  A    between atoms: C_16  and  O_17
REMARK    7  A    between atoms: O_17  and  C_18
REMARK    8  A    between atoms: C_19  and  O_20
REMARK    9  A    between atoms: O_20  and  C_21
REMARK   10  A    between atoms: C_21  and  C_22
REMARK                            x       y       z     vdW  Elec       q    Type
REMARK                         _______ _______ _______ _____ _____    ______ ____
ROOT
ATOM      1  C   UNL     1       3.880   3.650  19.392  0.00  0.00    +0.000 A 
ATOM      2  C   UNL     1       4.423   4.352  18.305  0.00  0.00    +0.000 A 
ATOM      3  C   UNL     1       4.064   5.674  18.033  0.00  0.00    +0.000 A 
ATOM      4  C   UNL     1       3.115   6.282  18.855  0.00  0.00    +0.000 A 
ATOM      5  C   UNL     1       2.591   5.628  19.985  0.00  0.00    +0.000 A 
ATOM      6  C   UNL     1       2.986   4.303  20.281  0.00  0.00    +0.000 A 
ENDROOT
BRANCH   1   8
ATOM      7  C   UNL     1       3.856   1.328  18.711  0.00  0.00    +0.000 C 
ATOM      8  O   UNL     1       4.207   2.343  19.643  0.00  0.00    +0.000 OA
ENDBRANCH   1   8
BRANCH   5   9
ATOM      9  O   UNL     1       1.742   6.456  20.677  0.00  0.00    +0.000 OA
ATOM     10  C   UNL     1       1.686   7.838  20.370  0.00  0.00    +0.000 C 
ENDBRANCH   5   9
BRANCH   3  11
ATOM     11  C   UNL     1       4.770   6.453  16.951  0.00  0.00    +0.000 C 
BRANCH  11  12
ATOM     12  C   UNL     1       5.514   5.686  15.903  0.00  0.00    +0.000 A 
ATOM     13  C   UNL     1       4.844   4.848  15.034  0.00  0.00    +0.000 A 
ATOM     14  N   UNL     1       5.412   4.248  13.972  0.00  0.00    +0.000 NA
ATOM     15  C   UNL     1       6.714   4.468  13.797  0.00  0.00    +0.000 A 
ATOM     16  N   UNL     1       7.292   3.961  12.653  0.00  0.00    +0.000 N 
ATOM     17  N   UNL     1       7.469   5.218  14.603  0.00  0.00    +0.000 NA
ATOM     18  C   UNL     1       6.869   5.807  15.646  0.00  0.00    +0.000 A 
ATOM     19  H   UNL     1       6.573   3.813  11.959  0.00  0.00    +0.000 HD
ATOM     20  H   UNL     1       8.074   4.544  12.384  0.00  0.00    +0.000 HD
BRANCH  18  21
ATOM     21  N   UNL     1       7.714   6.566  16.457  0.00  0.00    +0.000 N 
ATOM     22  H   UNL     1       7.156   7.345  16.802  0.00  0.00    +0.000 HD
ATOM     23  H   UNL     1       8.092   6.023  17.226  0.00  0.00    +0.000 HD
ENDBRANCH  18  21
ENDBRANCH  11  12
ENDBRANCH   3  11
BRANCH   6  24
ATOM     24  O   UNL     1       2.447   3.751  21.419  0.00  0.00    +0.000 OA
BRANCH  24  25
ATOM     25  C   UNL     1       1.368   2.817  21.328  0.00  0.00    +0.000 C 
BRANCH  25  26
ATOM     26  C   UNL     1       0.442   3.254  20.200  0.00  0.00    +0.000 C 
ATOM     27 CL   UNL     1       0.575   2.157  18.806  0.00  0.00    +0.000 Cl
ENDBRANCH  25  26
ENDBRANCH  24  25
ENDBRANCH   6  24
TORSDOF 8
ENDMDL
MODEL 9
REMARK VINA RESULT:      -6.2      1.758      2.913
REMARK  Name = 
REMARK  10 active torsions:
REMARK  status: ('A' for Active; 'I' for Inactive)
REMARK    1  A    between atoms: C_1  and  O_2
REMARK    2  A    between atoms: O_2  and  C_3
REMARK    3  A    between atoms: C_5  and  C_6
REMARK    4  A    between atoms: C_6  and  C_7
REMARK    5  A    between atoms: C_13  and  N_14
REMARK    6  A    between atoms: C_16  and  O_17
REMARK    7  A    between atoms: O_17  and  C_18
REMARK    8  A    between atoms: C_19  and  O_20
REMARK    9  A    between atoms: O_20  and  C_21
REMARK   10  A    between atoms: C_21  and  C_22
REMARK                            x       y       z     vdW  Elec       q    Type
REMARK                         _______ _______ _______ _____ _____    ______ ____
ROOT
ATOM      1  C   UNL     1       6.344   5.295  15.819  0.00  0.00    +0.000 A 
ATOM      2  C   UNL     1       5.225   4.448  15.819  0.00  0.00    +0.000 A 
ATOM      3  C   UNL     1       4.622   4.029  17.007  0.00  0.00    +0.000 A 
ATOM      4  C   UNL     1       5.183   4.449  18.215  0.00  0.00    +0.000 A 
ATOM      5  C   UNL     1       6.269   5.342  18.252  0.00  0.00    +0.000 A 
ATOM      6  C   UNL     1       6.853   5.795  17.046  0.00  0.00    +0.000 A 
ENDROOT
BRANCH   1   8
ATOM      7  C   UNL     1       7.013   4.792  13.548  0.00  0.00    +0.000 C 
ATOM      8  O   UNL     1       6.956   5.682  14.656  0.00  0.00    +0.000 OA
ENDBRANCH   1   8
BRANCH   5   9
ATOM      9  O   UNL     1       6.587   5.668  19.546  0.00  0.00    +0.000 OA
ATOM     10  C   UNL     1       7.881   5.390  20.054  0.00  0.00    +0.000 C 
ENDBRANCH   5   9
BRANCH   3  11
ATOM     11  C   UNL     1       3.335   3.243  16.979  0.00  0.00    +0.000 C 
BRANCH  11  12
ATOM     12  C   UNL     1       2.570   3.102  18.258  0.00  0.00    +0.000 A 
ATOM     13  C   UNL     1       2.629   1.933  18.991  0.00  0.00    +0.000 A 
ATOM     14  N   UNL     1       2.102   1.782  20.220  0.00  0.00    +0.000 NA
ATOM     15  C   UNL     1       1.456   2.834  20.717  0.00  0.00    +0.000 A 
ATOM     16  N   UNL     1       1.010   2.744  22.018  0.00  0.00    +0.000 N 
ATOM     17  N   UNL     1       1.294   3.994  20.077  0.00  0.00    +0.000 NA
ATOM     18  C   UNL     1       1.840   4.113  18.859  0.00  0.00    +0.000 A 
ATOM     19  H   UNL     1       1.549   2.041  22.503  0.00  0.00    +0.000 HD
ATOM     20  H   UNL     1       0.986   3.668  22.431  0.00  0.00    +0.000 HD
BRANCH  18  21
ATOM     21  N   UNL     1       1.624   5.344  18.237  0.00  0.00    +0.000 N 
ATOM     22  H   UNL     1       1.207   5.137  17.330  0.00  0.00    +0.000 HD
ATOM     23  H   UNL     1       1.019   5.947  18.784  0.00  0.00    +0.000 HD
ENDBRANCH  18  21
ENDBRANCH  11  12
ENDBRANCH   3  11
BRANCH   6  24
ATOM     24  O   UNL     1       7.892   6.687  17.176  0.00  0.00    +0.000 OA
BRANCH  24  25
ATOM     25  C   UNL     1       7.629   8.078  17.377  0.00  0.00    +0.000 C 
BRANCH  25  26
ATOM     26  C   UNL     1       8.544   8.589  18.483  0.00  0.00    +0.000 C 
ATOM     27 CL   UNL     1       8.896  10.319  18.270  0.00  0.00    +0.000 Cl
ENDBRANCH  25  26
ENDBRANCH  24  25
ENDBRANCH   6  24
TORSDOF 8
ENDMDL
