MODEL 1
REMARK VINA RESULT:      -7.2      0.000      0.000
REMARK  Name = 
REMARK  7 active torsions:
REMARK  status: ('A' for Active; 'I' for Inactive)
REMARK    1  A    between atoms: N_1  and  C_2
REMARK    2  A    between atoms: C_2  and  C_3
REMARK    3  A    between atoms: C_3  and  C_4
REMARK    4  A    between atoms: C_4  and  N_5
REMARK    5  A    between atoms: C_4  and  C_13
REMARK    6  A    between atoms: N_5  and  C_6
REMARK    7  A    between atoms: C_6  and  C_7
REMARK                            x       y       z     vdW  Elec       q    Type
REMARK                         _______ _______ _______ _____ _____    ______ ____
ROOT
ATOM      1  C   UNL     1       5.347   4.583  18.077  0.00  0.00    +0.000 C 
ENDROOT
BRANCH   1   2
ATOM      2  C   UNL     1       3.858   4.921  18.416  0.00  0.00    +0.000 C 
ATOM      3  O   UNL     1       3.382   6.021  18.108  0.00  0.00    +0.000 OA
ATOM      4  N   UNL     1       3.048   3.922  18.964  0.00  0.00    +0.000 N 
ATOM      5  C   UNL     1       1.599   4.123  18.997  0.00  0.00    +0.000 C 
ATOM      6  C   UNL     1       1.060   4.117  20.427  0.00  0.00    +0.000 C 
ATOM      7  C   UNL     1       1.511   2.865  21.180  0.00  0.00    +0.000 C 
ATOM      8  C   UNL     1       3.026   2.693  21.096  0.00  0.00    +0.000 C 
ATOM      9  C   UNL     1       3.508   2.710  19.641  0.00  0.00    +0.000 C 
ENDBRANCH   1   2
BRANCH   1  10
ATOM     10  N   UNL     1       5.570   5.014  16.673  0.00  0.00    +0.000 NA
ATOM     11  H   UNL     1       5.095   5.900  16.514  0.00  0.00    +0.000 HD
BRANCH  10  12
ATOM     12  C   UNL     1       5.136   4.045  15.673  0.00  0.00    +0.000 C 
BRANCH  12  13
ATOM     13  C   UNL     1       5.951   4.163  14.408  0.00  0.00    +0.000 A 
ATOM     14  C   UNL     1       5.536   3.500  13.241  0.00  0.00    +0.000 A 
ATOM     15  C   UNL     1       6.261   3.629  12.056  0.00  0.00    +0.000 A 
ATOM     16  C   UNL     1       7.405   4.422  12.025  0.00  0.00    +0.000 A 
ATOM     17  C   UNL     1       7.823   5.089  13.177  0.00  0.00    +0.000 A 
ATOM     18  C   UNL     1       7.099   4.964  14.364  0.00  0.00    +0.000 A 
ENDBRANCH  12  13
ENDBRANCH  10  12
ENDBRANCH   1  10
BRANCH   1  19
ATOM     19  C   UNL     1       6.305   5.313  19.044  0.00  0.00    +0.000 C 
BRANCH  19  20
ATOM     20  C   UNL     1       7.756   5.365  18.573  0.00  0.00    +0.000 C 
BRANCH  20  21
ATOM     21  N   UNL     1       8.110   4.175  17.800  0.00  0.00    +0.000 NA
ATOM     22  H   UNL     1       7.273   3.834  17.327  0.00  0.00    +0.000 HD
ATOM     23  H   UNL     1       8.392   3.428  18.436  0.00  0.00    +0.000 HD
ENDBRANCH  20  21
ENDBRANCH  19  20
ENDBRANCH   1  19
TORSDOF 7
ENDMDL
MODEL 2
REMARK VINA RESULT:      -7.0      0.774      1.329
REMARK  Name = 
REMARK  7 active torsions:
REMARK  status: ('A' for Active; 'I' for Inactive)
REMARK    1  A    between atoms: N_1  and  C_2
REMARK    2  A    between atoms: C_2  and  C_3
REMARK    3  A    between atoms: C_3  and  C_4
REMARK    4  A    between atoms: C_4  and  N_5
REMARK    5  A    between atoms: C_4  and  C_13
REMARK    6  A    between atoms: N_5  and  C_6
REMARK    7  A    between atoms: C_6  and  C_7
REMARK                            x       y       z     vdW  Elec       q    Type
REMARK                         _______ _______ _______ _____ _____    ______ ____
ROOT
ATOM      1  C   UNL     1       5.509   4.509  18.380  0.00  0.00    +0.000 C 
ENDROOT
BRANCH   1   2
ATOM      2  C   UNL     1       3.985   4.827  18.526  0.00  0.00    +0.000 C 
ATOM      3  O   UNL     1       3.528   5.900  18.113  0.00  0.00    +0.000 OA
ATOM      4  N   UNL     1       3.135   3.835  19.024  0.00  0.00    +0.000 N 
ATOM      5  C   UNL     1       1.689   4.002  18.880  0.00  0.00    +0.000 C 
ATOM      6  C   UNL     1       0.987   4.048  20.235  0.00  0.00    +0.000 C 
ATOM      7  C   UNL     1       1.369   2.843  21.094  0.00  0.00    +0.000 C 
ATOM      8  C   UNL     1       2.887   2.703  21.195  0.00  0.00    +0.000 C 
ATOM      9  C   UNL     1       3.535   2.666  19.807  0.00  0.00    +0.000 C 
ENDBRANCH   1   2
BRANCH   1  10
ATOM     10  N   UNL     1       5.661   3.737  17.119  0.00  0.00    +0.000 NA
ATOM     11  H   UNL     1       6.646   3.712  16.857  0.00  0.00    +0.000 HD
BRANCH  10  12
ATOM     12  C   UNL     1       4.875   4.251  16.003  0.00  0.00    +0.000 C 
BRANCH  12  13
ATOM     13  C   UNL     1       5.689   4.291  14.733  0.00  0.00    +0.000 A 
ATOM     14  C   UNL     1       6.911   4.984  14.702  0.00  0.00    +0.000 A 
ATOM     15  C   UNL     1       7.689   4.999  13.545  0.00  0.00    +0.000 A 
ATOM     16  C   UNL     1       7.257   4.319  12.409  0.00  0.00    +0.000 A 
ATOM     17  C   UNL     1       6.048   3.624  12.430  0.00  0.00    +0.000 A 
ATOM     18  C   UNL     1       5.268   3.605  13.587  0.00  0.00    +0.000 A 
ENDBRANCH  12  13
ENDBRANCH  10  12
ENDBRANCH   1  10
BRANCH   1  19
ATOM     19  C   UNL     1       6.336   5.813  18.338  0.00  0.00    +0.000 C 
BRANCH  19  20
ATOM     20  C   UNL     1       7.781   5.658  18.807  0.00  0.00    +0.000 C 
BRANCH  20  21
ATOM     21  N   UNL     1       7.852   5.412  20.247  0.00  0.00    +0.000 NA
ATOM     22  H   UNL     1       8.827   5.258  20.503  0.00  0.00    +0.000 HD
ATOM     23  H   UNL     1       7.368   4.541  20.467  0.00  0.00    +0.000 HD
ENDBRANCH  20  21
ENDBRANCH  19  20
ENDBRANCH   1  19
TORSDOF 7
ENDMDL
MODEL 3
REMARK VINA RESULT:      -6.9      1.101      1.539
REMARK  Name = 
REMARK  7 active torsions:
REMARK  status: ('A' for Active; 'I' for Inactive)
REMARK    1  A    between atoms: N_1  and  C_2
REMARK    2  A    between atoms: C_2  and  C_3
REMARK    3  A    between atoms: C_3  and  C_4
REMARK    4  A    between atoms: C_4  and  N_5
REMARK    5  A    between atoms: C_4  and  C_13
REMARK    6  A    between atoms: N_5  and  C_6
REMARK    7  A    between atoms: C_6  and  C_7
REMARK                            x       y       z     vdW  Elec       q    Type
REMARK                         _______ _______ _______ _____ _____    ______ ____
ROOT
ATOM      1  C   UNL     1       5.062   3.830  17.973  0.00  0.00    +0.000 C 
ENDROOT
BRANCH   1   2
ATOM      2  C   UNL     1       3.523   3.551  17.976  0.00  0.00    +0.000 C 
ATOM      3  O   UNL     1       2.831   3.858  16.997  0.00  0.00    +0.000 OA
ATOM      4  N   UNL     1       2.968   2.849  19.049  0.00  0.00    +0.000 N 
ATOM      5  C   UNL     1       1.610   2.318  18.922  0.00  0.00    +0.000 C 
ATOM      6  C   UNL     1       0.670   2.914  19.968  0.00  0.00    +0.000 C 
ATOM      7  C   UNL     1       1.245   2.762  21.376  0.00  0.00    +0.000 C 
ATOM      8  C   UNL     1       2.668   3.313  21.447  0.00  0.00    +0.000 C 
ATOM      9  C   UNL     1       3.563   2.682  20.374  0.00  0.00    +0.000 C 
ENDBRANCH   1   2
BRANCH   1  10
ATOM     10  N   UNL     1       5.525   3.635  16.574  0.00  0.00    +0.000 NA
ATOM     11  H   UNL     1       6.416   3.141  16.582  0.00  0.00    +0.000 HD
BRANCH  10  12
ATOM     12  C   UNL     1       5.662   4.870  15.811  0.00  0.00    +0.000 C 
BRANCH  12  13
ATOM     13  C   UNL     1       6.162   4.597  14.414  0.00  0.00    +0.000 A 
ATOM     14  C   UNL     1       7.310   5.252  13.938  0.00  0.00    +0.000 A 
ATOM     15  C   UNL     1       7.803   4.984  12.662  0.00  0.00    +0.000 A 
ATOM     16  C   UNL     1       7.157   4.055  11.850  0.00  0.00    +0.000 A 
ATOM     17  C   UNL     1       6.019   3.394  12.314  0.00  0.00    +0.000 A 
ATOM     18  C   UNL     1       5.524   3.660  13.591  0.00  0.00    +0.000 A 
ENDBRANCH  12  13
ENDBRANCH  10  12
ENDBRANCH   1  10
BRANCH   1  19
ATOM     19  C   UNL     1       5.358   5.264  18.464  0.00  0.00    +0.000 C 
BRANCH  19  20
ATOM     20  C   UNL     1       6.602   5.387  19.340  0.00  0.00    +0.000 C 
BRANCH  20  21
ATOM     21  N   UNL     1       7.790   4.881  18.654  0.00  0.00    +0.000 NA
ATOM     22  H   UNL     1       8.478   5.633  18.598  0.00  0.00    +0.000 HD
ATOM     23  H   UNL     1       7.553   4.651  17.689  0.00  0.00    +0.000 HD
ENDBRANCH  20  21
ENDBRANCH  19  20
ENDBRANCH   1  19
TORSDOF 7
ENDMDL
MODEL 4
REMARK VINA RESULT:      -6.6      1.191      1.218
REMARK  Name = 
REMARK  7 active torsions:
REMARK  status: ('A' for Active; 'I' for Inactive)
REMARK    1  A    between atoms: N_1  and  C_2
REMARK    2  A    between atoms: C_2  and  C_3
REMARK    3  A    between atoms: C_3  and  C_4
REMARK    4  A    between atoms: C_4  and  N_5
REMARK    5  A    between atoms: C_4  and  C_13
REMARK    6  A    between atoms: N_5  and  C_6
REMARK    7  A    between atoms: C_6  and  C_7
REMARK                            x       y       z     vdW  Elec       q    Type
REMARK                         _______ _______ _______ _____ _____    ______ ____
ROOT
ATOM      1  C   UNL     1       4.869   5.357  17.502  0.00  0.00    +0.000 C 
ENDROOT
BRANCH   1   2
ATOM      2  C   UNL     1       3.432   5.421  18.118  0.00  0.00    +0.000 C 
ATOM      3  O   UNL     1       2.781   6.472  18.076  0.00  0.00    +0.000 OA
ATOM      4  N   UNL     1       2.857   4.244  18.607  0.00  0.00    +0.000 N 
ATOM      5  C   UNL     1       1.422   4.224  18.895  0.00  0.00    +0.000 C 
ATOM      6  C   UNL     1       1.147   3.929  20.368  0.00  0.00    +0.000 C 
ATOM      7  C   UNL     1       1.869   2.660  20.821  0.00  0.00    +0.000 C 
ATOM      8  C   UNL     1       3.356   2.726  20.477  0.00  0.00    +0.000 C 
ATOM      9  C   UNL     1       3.570   3.027  18.990  0.00  0.00    +0.000 C 
ENDBRANCH   1   2
BRANCH   1  10
ATOM     10  N   UNL     1       4.714   4.836  16.119  0.00  0.00    +0.000 NA
ATOM     11  H   UNL     1       3.764   4.492  15.994  0.00  0.00    +0.000 HD
BRANCH  10  12
ATOM     12  C   UNL     1       5.661   3.785  15.766  0.00  0.00    +0.000 C 
BRANCH  12  13
ATOM     13  C   UNL     1       6.284   4.041  14.415  0.00  0.00    +0.000 A 
ATOM     14  C   UNL     1       5.838   3.328  13.290  0.00  0.00    +0.000 A 
ATOM     15  C   UNL     1       6.381   3.579  12.030  0.00  0.00    +0.000 A 
ATOM     16  C   UNL     1       7.371   4.547  11.881  0.00  0.00    +0.000 A 
ATOM     17  C   UNL     1       7.818   5.264  12.991  0.00  0.00    +0.000 A 
ATOM     18  C   UNL     1       7.275   5.017  14.253  0.00  0.00    +0.000 A 
ENDBRANCH  12  13
ENDBRANCH  10  12
ENDBRANCH   1  10
BRANCH   1  19
ATOM     19  C   UNL     1       5.524   6.756  17.501  0.00  0.00    +0.000 C 
BRANCH  19  20
ATOM     20  C   UNL     1       7.047   6.739  17.597  0.00  0.00    +0.000 C 
BRANCH  20  21
ATOM     21  N   UNL     1       7.618   8.042  17.259  0.00  0.00    +0.000 NA
ATOM     22  H   UNL     1       7.891   8.033  16.276  0.00  0.00    +0.000 HD
ATOM     23  H   UNL     1       8.482   8.182  17.783  0.00  0.00    +0.000 HD
ENDBRANCH  20  21
ENDBRANCH  19  20
ENDBRANCH   1  19
TORSDOF 7
ENDMDL
MODEL 5
REMARK VINA RESULT:      -6.6      1.291      1.544
REMARK  Name = 
REMARK  7 active torsions:
REMARK  status: ('A' for Active; 'I' for Inactive)
REMARK    1  A    between atoms: N_1  and  C_2
REMARK    2  A    between atoms: C_2  and  C_3
REMARK    3  A    between atoms: C_3  and  C_4
REMARK    4  A    between atoms: C_4  and  N_5
REMARK    5  A    between atoms: C_4  and  C_13
REMARK    6  A    between atoms: N_5  and  C_6
REMARK    7  A    between atoms: C_6  and  C_7
REMARK                            x       y       z     vdW  Elec       q    Type
REMARK                         _______ _______ _______ _____ _____    ______ ____
ROOT
ATOM      1  C   UNL     1       5.620   5.227  17.666  0.00  0.00    +0.000 C 
ENDROOT
BRANCH   1   2
ATOM      2  C   UNL     1       4.092   5.335  17.981  0.00  0.00    +0.000 C 
ATOM      3  O   UNL     1       3.598   6.419  18.313  0.00  0.00    +0.000 OA
ATOM      4  N   UNL     1       3.280   4.217  17.767  0.00  0.00    +0.000 N 
ATOM      5  C   UNL     1       1.827   4.388  17.758  0.00  0.00    +0.000 C 
ATOM      6  C   UNL     1       1.155   3.568  18.858  0.00  0.00    +0.000 C 
ATOM      7  C   UNL     1       1.588   2.104  18.796  0.00  0.00    +0.000 C 
ATOM      8  C   UNL     1       3.111   1.984  18.787  0.00  0.00    +0.000 C 
ATOM      9  C   UNL     1       3.728   2.829  17.667  0.00  0.00    +0.000 C 
ENDBRANCH   1   2
BRANCH   1  10
ATOM     10  N   UNL     1       5.804   5.726  16.279  0.00  0.00    +0.000 NA
ATOM     11  H   UNL     1       5.026   5.408  15.702  0.00  0.00    +0.000 HD
BRANCH  10  12
ATOM     12  C   UNL     1       7.062   5.326  15.660  0.00  0.00    +0.000 C 
BRANCH  12  13
ATOM     13  C   UNL     1       6.833   4.722  14.296  0.00  0.00    +0.000 A 
ATOM     14  C   UNL     1       5.754   3.846  14.088  0.00  0.00    +0.000 A 
ATOM     15  C   UNL     1       5.511   3.307  12.825  0.00  0.00    +0.000 A 
ATOM     16  C   UNL     1       6.340   3.641  11.757  0.00  0.00    +0.000 A 
ATOM     17  C   UNL     1       7.411   4.514  11.951  0.00  0.00    +0.000 A 
ATOM     18  C   UNL     1       7.656   5.056  13.213  0.00  0.00    +0.000 A 
ENDBRANCH  12  13
ENDBRANCH  10  12
ENDBRANCH   1  10
BRANCH   1  19
ATOM     19  C   UNL     1       6.444   6.061  18.672  0.00  0.00    +0.000 C 
BRANCH  19  20
ATOM     20  C   UNL     1       7.812   5.473  19.008  0.00  0.00    +0.000 C 
BRANCH  20  21
ATOM     21  N   UNL     1       8.029   5.414  20.452  0.00  0.00    +0.000 NA
ATOM     22  H   UNL     1       8.769   4.739  20.643  0.00  0.00    +0.000 HD
ATOM     23  H   UNL     1       7.194   5.043  20.906  0.00  0.00    +0.000 HD
ENDBRANCH  20  21
ENDBRANCH  19  20
ENDBRANCH   1  19
TORSDOF 7
ENDMDL
MODEL 6
REMARK VINA RESULT:      -6.6      2.737      5.540
REMARK  Name = 
REMARK  7 active torsions:
REMARK  status: ('A' for Active; 'I' for Inactive)
REMARK    1  A    between atoms: N_1  and  C_2
REMARK    2  A    between atoms: C_2  and  C_3
REMARK    3  A    between atoms: C_3  and  C_4
REMARK    4  A    between atoms: C_4  and  N_5
REMARK    5  A    between atoms: C_4  and  C_13
REMARK    6  A    between atoms: N_5  and  C_6
REMARK    7  A    between atoms: C_6  and  C_7
REMARK                            x       y       z     vdW  Elec       q    Type
REMARK                         _______ _______ _______ _____ _____    ______ ____
ROOT
ATOM      1  C   UNL     1       4.702   5.245  18.341  0.00  0.00    +0.000 C 
ENDROOT
BRANCH   1   2
ATOM      2  C   UNL     1       4.056   6.576  17.834  0.00  0.00    +0.000 C 
ATOM      3  O   UNL     1       4.592   7.223  16.926  0.00  0.00    +0.000 OA
ATOM      4  N   UNL     1       2.811   6.956  18.342  0.00  0.00    +0.000 N 
ATOM      5  C   UNL     1       2.062   8.015  17.664  0.00  0.00    +0.000 C 
ATOM      6  C   UNL     1       1.817   9.211  18.582  0.00  0.00    +0.000 C 
ATOM      7  C   UNL     1       1.178   8.772  19.899  0.00  0.00    +0.000 C 
ATOM      8  C   UNL     1       1.986   7.653  20.553  0.00  0.00    +0.000 C 
ATOM      9  C   UNL     1       2.203   6.485  19.586  0.00  0.00    +0.000 C 
ENDBRANCH   1   2
BRANCH   1  10
ATOM     10  N   UNL     1       4.375   4.204  17.332  0.00  0.00    +0.000 NA
ATOM     11  H   UNL     1       3.543   4.486  16.817  0.00  0.00    +0.000 HD
BRANCH  10  12
ATOM     12  C   UNL     1       4.171   2.872  17.890  0.00  0.00    +0.000 C 
BRANCH  12  13
ATOM     13  C   UNL     1       3.095   2.881  18.949  0.00  0.00    +0.000 A 
ATOM     14  C   UNL     1       3.445   2.799  20.307  0.00  0.00    +0.000 A 
ATOM     15  C   UNL     1       2.463   2.841  21.296  0.00  0.00    +0.000 A 
ATOM     16  C   UNL     1       1.123   2.970  20.939  0.00  0.00    +0.000 A 
ATOM     17  C   UNL     1       0.765   3.058  19.594  0.00  0.00    +0.000 A 
ATOM     18  C   UNL     1       1.745   3.018  18.601  0.00  0.00    +0.000 A 
ENDBRANCH  12  13
ENDBRANCH  10  12
ENDBRANCH   1  10
BRANCH   1  19
ATOM     19  C   UNL     1       6.230   5.406  18.501  0.00  0.00    +0.000 C 
BRANCH  19  20
ATOM     20  C   UNL     1       7.050   4.808  17.360  0.00  0.00    +0.000 C 
BRANCH  20  21
ATOM     21  N   UNL     1       7.200   5.756  16.257  0.00  0.00    +0.000 NA
ATOM     22  H   UNL     1       6.731   6.626  16.509  0.00  0.00    +0.000 HD
ATOM     23  H   UNL     1       6.707   5.403  15.436  0.00  0.00    +0.000 HD
ENDBRANCH  20  21
ENDBRANCH  19  20
ENDBRANCH   1  19
TORSDOF 7
ENDMDL
MODEL 7
REMARK VINA RESULT:      -6.5      0.882      1.056
REMARK  Name = 
REMARK  7 active torsions:
REMARK  status: ('A' for Active; 'I' for Inactive)
REMARK    1  A    between atoms: N_1  and  C_2
REMARK    2  A    between atoms: C_2  and  C_3
REMARK    3  A    between atoms: C_3  and  C_4
REMARK    4  A    between atoms: C_4  and  N_5
REMARK    5  A    between atoms: C_4  and  C_13
REMARK    6  A    between atoms: N_5  and  C_6
REMARK    7  A    between atoms: C_6  and  C_7
REMARK                            x       y       z     vdW  Elec       q    Type
REMARK                         _______ _______ _______ _____ _____    ______ ____
ROOT
ATOM      1  C   UNL     1       5.106   4.890  17.869  0.00  0.00    +0.000 C 
ENDROOT
BRANCH   1   2
ATOM      2  C   UNL     1       3.567   4.937  18.148  0.00  0.00    +0.000 C 
ATOM      3  O   UNL     1       2.891   5.897  17.757  0.00  0.00    +0.000 OA
ATOM      4  N   UNL     1       2.956   3.828  18.739  0.00  0.00    +0.000 N 
ATOM      5  C   UNL     1       1.496   3.731  18.723  0.00  0.00    +0.000 C 
ATOM      6  C   UNL     1       0.916   3.698  20.136  0.00  0.00    +0.000 C 
ATOM      7  C   UNL     1       1.582   2.611  20.979  0.00  0.00    +0.000 C 
ATOM      8  C   UNL     1       3.102   2.747  20.945  0.00  0.00    +0.000 C 
ATOM      9  C   UNL     1       3.626   2.777  19.505  0.00  0.00    +0.000 C 
ENDBRANCH   1   2
BRANCH   1  10
ATOM     10  N   UNL     1       5.331   5.640  16.606  0.00  0.00    +0.000 NA
ATOM     11  H   UNL     1       4.651   5.337  15.910  0.00  0.00    +0.000 HD
BRANCH  10  12
ATOM     12  C   UNL     1       6.677   5.505  16.061  0.00  0.00    +0.000 C 
BRANCH  12  13
ATOM     13  C   UNL     1       6.649   4.898  14.679  0.00  0.00    +0.000 A 
ATOM     14  C   UNL     1       5.623   4.007  14.324  0.00  0.00    +0.000 A 
ATOM     15  C   UNL     1       5.566   3.466  13.040  0.00  0.00    +0.000 A 
ATOM     16  C   UNL     1       6.531   3.813  12.097  0.00  0.00    +0.000 A 
ATOM     17  C   UNL     1       7.551   4.701  12.438  0.00  0.00    +0.000 A 
ATOM     18  C   UNL     1       7.610   5.246  13.722  0.00  0.00    +0.000 A 
ENDBRANCH  12  13
ENDBRANCH  10  12
ENDBRANCH   1  10
BRANCH   1  19
ATOM     19  C   UNL     1       5.891   5.521  19.040  0.00  0.00    +0.000 C 
BRANCH  19  20
ATOM     20  C   UNL     1       7.371   5.147  19.081  0.00  0.00    +0.000 C 
BRANCH  20  21
ATOM     21  N   UNL     1       7.970   5.481  20.373  0.00  0.00    +0.000 NA
ATOM     22  H   UNL     1       7.873   4.677  20.994  0.00  0.00    +0.000 HD
ATOM     23  H   UNL     1       7.438   6.233  20.810  0.00  0.00    +0.000 HD
ENDBRANCH  20  21
ENDBRANCH  19  20
ENDBRANCH   1  19
TORSDOF 7
ENDMDL
MODEL 8
REMARK VINA RESULT:      -6.5      2.805      6.601
REMARK  Name = 
REMARK  7 active torsions:
REMARK  status: ('A' for Active; 'I' for Inactive)
REMARK    1  A    between atoms: N_1  and  C_2
REMARK    2  A    between atoms: C_2  and  C_3
REMARK    3  A    between atoms: C_3  and  C_4
REMARK    4  A    between atoms: C_4  and  N_5
REMARK    5  A    between atoms: C_4  and  C_13
REMARK    6  A    between atoms: N_5  and  C_6
REMARK    7  A    between atoms: C_6  and  C_7
REMARK                            x       y       z     vdW  Elec       q    Type
REMARK                         _______ _______ _______ _____ _____    ______ ____
ROOT
ATOM      1  C   UNL     1       3.292   3.869  19.326  0.00  0.00    +0.000 C 
ENDROOT
BRANCH   1   2
ATOM      2  C   UNL     1       3.689   3.753  17.817  0.00  0.00    +0.000 C 
ATOM      3  O   UNL     1       3.022   3.050  17.048  0.00  0.00    +0.000 OA
ATOM      4  N   UNL     1       4.734   4.545  17.334  0.00  0.00    +0.000 N 
ATOM      5  C   UNL     1       4.912   4.678  15.887  0.00  0.00    +0.000 C 
ATOM      6  C   UNL     1       6.273   4.154  15.435  0.00  0.00    +0.000 C 
ATOM      7  C   UNL     1       7.405   4.791  16.240  0.00  0.00    +0.000 C 
ATOM      8  C   UNL     1       7.159   4.642  17.740  0.00  0.00    +0.000 C 
ATOM      9  C   UNL     1       5.780   5.181  18.134  0.00  0.00    +0.000 C 
ENDBRANCH   1   2
BRANCH   1  10
ATOM     10  N   UNL     1       2.264   4.939  19.412  0.00  0.00    +0.000 NA
ATOM     11  H   UNL     1       2.011   5.238  18.472  0.00  0.00    +0.000 HD
BRANCH  10  12
ATOM     12  C   UNL     1       2.672   6.099  20.196  0.00  0.00    +0.000 C 
BRANCH  12  13
ATOM     13  C   UNL     1       2.188   7.382  19.566  0.00  0.00    +0.000 A 
ATOM     14  C   UNL     1       1.400   8.277  20.309  0.00  0.00    +0.000 A 
ATOM     15  C   UNL     1       0.976   9.482  19.750  0.00  0.00    +0.000 A 
ATOM     16  C   UNL     1       1.337   9.807  18.445  0.00  0.00    +0.000 A 
ATOM     17  C   UNL     1       2.124   8.928  17.699  0.00  0.00    +0.000 A 
ATOM     18  C   UNL     1       2.552   7.722  18.257  0.00  0.00    +0.000 A 
ENDBRANCH  12  13
ENDBRANCH  10  12
ENDBRANCH   1  10
BRANCH   1  19
ATOM     19  C   UNL     1       2.742   2.524  19.850  0.00  0.00    +0.000 C 
BRANCH  19  20
ATOM     20  C   UNL     1       1.230   2.500  20.060  0.00  0.00    +0.000 C 
BRANCH  20  21
ATOM     21  N   UNL     1       0.519   2.299  18.798  0.00  0.00    +0.000 NA
ATOM     22  H   UNL     1       0.364   1.299  18.667  0.00  0.00    +0.000 HD
ATOM     23  H   UNL     1       1.114   2.590  18.022  0.00  0.00    +0.000 HD
ENDBRANCH  20  21
ENDBRANCH  19  20
ENDBRANCH   1  19
TORSDOF 7
ENDMDL
MODEL 9
REMARK VINA RESULT:      -6.5      2.810      6.587
REMARK  Name = 
REMARK  7 active torsions:
REMARK  status: ('A' for Active; 'I' for Inactive)
REMARK    1  A    between atoms: N_1  and  C_2
REMARK    2  A    between atoms: C_2  and  C_3
REMARK    3  A    between atoms: C_3  and  C_4
REMARK    4  A    between atoms: C_4  and  N_5
REMARK    5  A    between atoms: C_4  and  C_13
REMARK    6  A    between atoms: N_5  and  C_6
REMARK    7  A    between atoms: C_6  and  C_7
REMARK                            x       y       z     vdW  Elec       q    Type
REMARK                         _______ _______ _______ _____ _____    ______ ____
ROOT
ATOM      1  C   UNL     1       3.347   3.929  19.405  0.00  0.00    +0.000 C 
ENDROOT
BRANCH   1   2
ATOM      2  C   UNL     1       3.741   3.691  17.910  0.00  0.00    +0.000 C 
ATOM      3  O   UNL     1       3.094   2.899  17.213  0.00  0.00    +0.000 OA
ATOM      4  N   UNL     1       4.756   4.470  17.348  0.00  0.00    +0.000 N 
ATOM      5  C   UNL     1       4.922   4.478  15.894  0.00  0.00    +0.000 C 
ATOM      6  C   UNL     1       6.298   3.960  15.480  0.00  0.00    +0.000 C 
ATOM      7  C   UNL     1       7.411   4.706  16.215  0.00  0.00    +0.000 C 
ATOM      8  C   UNL     1       7.178   4.685  17.725  0.00  0.00    +0.000 C 
ATOM      9  C   UNL     1       5.783   5.211  18.079  0.00  0.00    +0.000 C 
ENDBRANCH   1   2
BRANCH   1  10
ATOM     10  N   UNL     1       2.290   4.973  19.403  0.00  0.00    +0.000 NA
ATOM     11  H   UNL     1       2.150   5.308  18.451  0.00  0.00    +0.000 HD
BRANCH  10  12
ATOM     12  C   UNL     1       2.565   6.106  20.280  0.00  0.00    +0.000 C 
BRANCH  12  13
ATOM     13  C   UNL     1       2.141   7.407  19.642  0.00  0.00    +0.000 A 
ATOM     14  C   UNL     1       2.472   7.673  18.303  0.00  0.00    +0.000 A 
ATOM     15  C   UNL     1       2.057   8.856  17.692  0.00  0.00    +0.000 A 
ATOM     16  C   UNL     1       1.305   9.782  18.410  0.00  0.00    +0.000 A 
ATOM     17  C   UNL     1       0.967   9.526  19.739  0.00  0.00    +0.000 A 
ATOM     18  C   UNL     1       1.379   8.342  20.353  0.00  0.00    +0.000 A 
ENDBRANCH  12  13
ENDBRANCH  10  12
ENDBRANCH   1  10
BRANCH   1  19
ATOM     19  C   UNL     1       2.839   2.622  20.050  0.00  0.00    +0.000 C 
BRANCH  19  20
ATOM     20  C   UNL     1       1.327   2.564  20.252  0.00  0.00    +0.000 C 
BRANCH  20  21
ATOM     21  N   UNL     1       0.627   2.352  18.986  0.00  0.00    +0.000 NA
ATOM     22  H   UNL     1      -0.074   3.085  18.874  0.00  0.00    +0.000 HD
ATOM     23  H   UNL     1       0.105   1.476  19.028  0.00  0.00    +0.000 HD
ENDBRANCH  20  21
ENDBRANCH  19  20
ENDBRANCH   1  19
TORSDOF 7
ENDMDL
