MODEL 1
REMARK VINA RESULT:      -7.0      0.000      0.000
REMARK  Name = 
REMARK  9 active torsions:
REMARK  status: ('A' for Active; 'I' for Inactive)
REMARK    1  A    between atoms: C_1  and  O_2
REMARK    2  A    between atoms: O_2  and  C_3
REMARK    3  A    between atoms: C_5  and  C_6
REMARK    4  A    between atoms: C_16  and  N_17
REMARK    5  A    between atoms: N_17  and  C_18
REMARK    6  A    between atoms: C_21  and  C_22
REMARK    7  A    between atoms: C_33  and  O_34
REMARK    8  A    between atoms: O_34  and  C_35
REMARK    9  A    between atoms: C_36  and  O_37
REMARK                            x       y       z     vdW  Elec       q    Type
REMARK                         _______ _______ _______ _____ _____    ______ ____
ROOT
ATOM      1  C   UNL     1      -2.369  12.638  20.693  0.00  0.00    +0.000 C 
ATOM      2  C   UNL     1      -2.524  11.898  19.377  0.00  0.00    +0.000 A 
ATOM      3  N   UNL     1      -3.297  12.311  18.321  0.00  0.00    +0.000 N 
ATOM      4  C   UNL     1      -3.139  11.449  17.255  0.00  0.00    +0.000 A 
ATOM      5  C   UNL     1      -3.656  11.516  15.956  0.00  0.00    +0.000 A 
ATOM      6  C   UNL     1      -3.316  10.491  15.066  0.00  0.00    +0.000 A 
ATOM      7  C   UNL     1      -2.511   9.428  15.467  0.00  0.00    +0.000 A 
ATOM      8  C   UNL     1      -1.997   9.375  16.767  0.00  0.00    +0.000 A 
ATOM      9  C   UNL     1      -2.298  10.414  17.671  0.00  0.00    +0.000 A 
ATOM     10  C   UNL     1      -1.894  10.721  18.998  0.00  0.00    +0.000 A 
ATOM     11  C   UNL     1      -0.908  10.012  19.893  0.00  0.00    +0.000 C 
ATOM     12  C   UNL     1      -1.201  10.499  21.343  0.00  0.00    +0.000 C 
ATOM     13  C   UNL     1      -0.170  10.165  22.396  0.00  0.00    +0.000 C 
ATOM     14  O   UNL     1      -0.055  11.349  23.198  0.00  0.00    +0.000 OA
ATOM     15  C   UNL     1      -0.748  12.371  22.608  0.00  0.00    +0.000 C 
ATOM     16  O   UNL     1      -0.840  13.479  23.110  0.00  0.00    +0.000 OA
ATOM     17  N   UNL     1      -1.315  11.941  21.439  0.00  0.00    +0.000 N 
ATOM     18  H   UNL     1      -3.848  13.160  18.294  0.00  0.00    +0.000 HD
ENDROOT
BRANCH   1  21
ATOM     19  C   UNL     1      -2.673  16.458  20.782  0.00  0.00    +0.000 A 
ATOM     20  C   UNL     1      -2.925  15.094  20.992  0.00  0.00    +0.000 A 
ATOM     21  C   UNL     1      -2.079  14.107  20.471  0.00  0.00    +0.000 A 
ATOM     22  C   UNL     1      -0.958  14.515  19.743  0.00  0.00    +0.000 A 
ATOM     23  C   UNL     1      -0.676  15.867  19.514  0.00  0.00    +0.000 A 
ATOM     24  C   UNL     1      -1.548  16.841  20.028  0.00  0.00    +0.000 A 
BRANCH  19  26
ATOM     25  C   UNL     1      -4.611  16.645  22.194  0.00  0.00    +0.000 C 
ATOM     26  O   UNL     1      -3.610  17.252  21.391  0.00  0.00    +0.000 OA
ENDBRANCH  19  26
BRANCH  23  27
ATOM     27  O   UNL     1       0.465  16.012  18.775  0.00  0.00    +0.000 OA
ATOM     28  C   UNL     1       1.540  15.106  18.918  0.00  0.00    +0.000 C 
ENDBRANCH  23  27
BRANCH  24  29
ATOM     29  O   UNL     1      -1.319  18.168  19.795  0.00  0.00    +0.000 OA
ATOM     30  H   UNL     1      -0.711  18.453  20.496  0.00  0.00    +0.000 HD
ENDBRANCH  24  29
ENDBRANCH   1  21
BRANCH  11  31
ATOM     31  N   UNL     1       0.494  10.302  19.537  0.00  0.00    +0.000 N 
ATOM     32  H   UNL     1       0.552  11.119  18.927  0.00  0.00    +0.000 HD
BRANCH  31  33
ATOM     33  C   UNL     1       1.329   9.264  19.122  0.00  0.00    +0.000 A 
ATOM     34  C   UNL     1       1.565   8.187  19.982  0.00  0.00    +0.000 A 
ATOM     35  C   UNL     1       2.418   7.140  19.613  0.00  0.00    +0.000 A 
ATOM     36  C   UNL     1       3.014   7.140  18.350  0.00  0.00    +0.000 A 
ATOM     37  C   UNL     1       2.702   8.152  17.442  0.00  0.00    +0.000 A 
ATOM     38  C   UNL     1       1.848   9.188  17.822  0.00  0.00    +0.000 A 
BRANCH  36  39
ATOM     39  C   UNL     1       3.939   6.119  17.986  0.00  0.00    +0.000 C 
ATOM     40  N   UNL     1       4.689   5.272  17.715  0.00  0.00    +0.000 NA
ENDBRANCH  36  39
ENDBRANCH  31  33
ENDBRANCH  11  31
TORSDOF 7
ENDMDL
MODEL 2
REMARK VINA RESULT:      -7.0      0.250      2.149
REMARK  Name = 
REMARK  9 active torsions:
REMARK  status: ('A' for Active; 'I' for Inactive)
REMARK    1  A    between atoms: C_1  and  O_2
REMARK    2  A    between atoms: O_2  and  C_3
REMARK    3  A    between atoms: C_5  and  C_6
REMARK    4  A    between atoms: C_16  and  N_17
REMARK    5  A    between atoms: N_17  and  C_18
REMARK    6  A    between atoms: C_21  and  C_22
REMARK    7  A    between atoms: C_33  and  O_34
REMARK    8  A    between atoms: O_34  and  C_35
REMARK    9  A    between atoms: C_36  and  O_37
REMARK                            x       y       z     vdW  Elec       q    Type
REMARK                         _______ _______ _______ _____ _____    ______ ____
ROOT
ATOM      1  C   UNL     1      -2.362  12.615  20.710  0.00  0.00    +0.000 C 
ATOM      2  C   UNL     1      -2.528  11.891  19.387  0.00  0.00    +0.000 A 
ATOM      3  N   UNL     1      -3.311  12.315  18.343  0.00  0.00    +0.000 N 
ATOM      4  C   UNL     1      -3.160  11.467  17.265  0.00  0.00    +0.000 A 
ATOM      5  C   UNL     1      -3.690  11.548  15.971  0.00  0.00    +0.000 A 
ATOM      6  C   UNL     1      -3.355  10.536  15.066  0.00  0.00    +0.000 A 
ATOM      7  C   UNL     1      -2.544   9.469  15.447  0.00  0.00    +0.000 A 
ATOM      8  C   UNL     1      -2.019   9.402  16.741  0.00  0.00    +0.000 A 
ATOM      9  C   UNL     1      -2.314  10.429  17.660  0.00  0.00    +0.000 A 
ATOM     10  C   UNL     1      -1.899  10.720  18.987  0.00  0.00    +0.000 A 
ATOM     11  C   UNL     1      -0.904  10.002  19.866  0.00  0.00    +0.000 C 
ATOM     12  C   UNL     1      -1.184  10.471  21.324  0.00  0.00    +0.000 C 
ATOM     13  C   UNL     1      -0.144  10.126  22.363  0.00  0.00    +0.000 C 
ATOM     14  O   UNL     1      -0.024  11.300  23.179  0.00  0.00    +0.000 OA
ATOM     15  C   UNL     1      -0.724  12.328  22.608  0.00  0.00    +0.000 C 
ATOM     16  O   UNL     1      -0.814  13.429  23.124  0.00  0.00    +0.000 OA
ATOM     17  N   UNL     1      -1.300  11.911  21.439  0.00  0.00    +0.000 N 
ATOM     18  H   UNL     1      -3.864  13.163  18.331  0.00  0.00    +0.000 HD
ENDROOT
BRANCH   1  21
ATOM     19  C   UNL     1      -0.677  15.870  19.589  0.00  0.00    +0.000 A 
ATOM     20  C   UNL     1      -0.957  14.509  19.777  0.00  0.00    +0.000 A 
ATOM     21  C   UNL     1      -2.078  14.087  20.503  0.00  0.00    +0.000 A 
ATOM     22  C   UNL     1      -2.928  15.063  21.029  0.00  0.00    +0.000 A 
ATOM     23  C   UNL     1      -2.680  16.431  20.862  0.00  0.00    +0.000 A 
ATOM     24  C   UNL     1      -1.539  16.833  20.148  0.00  0.00    +0.000 A 
BRANCH  19  26
ATOM     25  C   UNL     1       1.593  15.256  19.087  0.00  0.00    +0.000 C 
ATOM     26  O   UNL     1       0.452  16.062  18.837  0.00  0.00    +0.000 OA
ENDBRANCH  19  26
BRANCH  23  27
ATOM     27  O   UNL     1      -3.645  17.183  21.471  0.00  0.00    +0.000 OA
ATOM     28  C   UNL     1      -3.588  17.448  22.858  0.00  0.00    +0.000 C 
ENDBRANCH  23  27
BRANCH  24  29
ATOM     29  O   UNL     1      -1.250  18.160  19.994  0.00  0.00    +0.000 OA
ATOM     30  H   UNL     1      -0.282  18.221  20.043  0.00  0.00    +0.000 HD
ENDBRANCH  24  29
ENDBRANCH   1  21
BRANCH  11  31
ATOM     31  N   UNL     1       0.494  10.299  19.501  0.00  0.00    +0.000 N 
ATOM     32  H   UNL     1       0.543  11.109  18.880  0.00  0.00    +0.000 HD
BRANCH  31  33
ATOM     33  C   UNL     1       1.337   9.263  19.095  0.00  0.00    +0.000 A 
ATOM     34  C   UNL     1       1.562   8.185  19.957  0.00  0.00    +0.000 A 
ATOM     35  C   UNL     1       2.420   7.139  19.598  0.00  0.00    +0.000 A 
ATOM     36  C   UNL     1       3.035   7.143  18.344  0.00  0.00    +0.000 A 
ATOM     37  C   UNL     1       2.736   8.157  17.434  0.00  0.00    +0.000 A 
ATOM     38  C   UNL     1       1.875   9.190  17.803  0.00  0.00    +0.000 A 
BRANCH  36  39
ATOM     39  C   UNL     1       3.967   6.124  17.991  0.00  0.00    +0.000 C 
ATOM     40  N   UNL     1       4.742   5.297  17.729  0.00  0.00    +0.000 NA
ENDBRANCH  36  39
ENDBRANCH  31  33
ENDBRANCH  11  31
TORSDOF 7
ENDMDL
MODEL 3
REMARK VINA RESULT:      -6.7      3.887      7.561
REMARK  Name = 
REMARK  9 active torsions:
REMARK  status: ('A' for Active; 'I' for Inactive)
REMARK    1  A    between atoms: C_1  and  O_2
REMARK    2  A    between atoms: O_2  and  C_3
REMARK    3  A    between atoms: C_5  and  C_6
REMARK    4  A    between atoms: C_16  and  N_17
REMARK    5  A    between atoms: N_17  and  C_18
REMARK    6  A    between atoms: C_21  and  C_22
REMARK    7  A    between atoms: C_33  and  O_34
REMARK    8  A    between atoms: O_34  and  C_35
REMARK    9  A    between atoms: C_36  and  O_37
REMARK                            x       y       z     vdW  Elec       q    Type
REMARK                         _______ _______ _______ _____ _____    ______ ____
ROOT
ATOM      1  C   UNL     1       3.058  15.246  18.535  0.00  0.00    +0.000 C 
ATOM      2  C   UNL     1       2.333  13.914  18.515  0.00  0.00    +0.000 A 
ATOM      3  N   UNL     1       2.848  12.737  18.032  0.00  0.00    +0.000 N 
ATOM      4  C   UNL     1       1.957  11.707  18.249  0.00  0.00    +0.000 A 
ATOM      5  C   UNL     1       2.086  10.334  18.004  0.00  0.00    +0.000 A 
ATOM      6  C   UNL     1       1.006   9.509  18.338  0.00  0.00    +0.000 A 
ATOM      7  C   UNL     1      -0.166  10.039  18.871  0.00  0.00    +0.000 A 
ATOM      8  C   UNL     1      -0.281  11.411  19.115  0.00  0.00    +0.000 A 
ATOM      9  C   UNL     1       0.806  12.258  18.819  0.00  0.00    +0.000 A 
ATOM     10  C   UNL     1       1.064  13.642  19.009  0.00  0.00    +0.000 A 
ATOM     11  C   UNL     1       0.220  14.697  19.680  0.00  0.00    +0.000 C 
ATOM     12  C   UNL     1       0.770  16.072  19.201  0.00  0.00    +0.000 C 
ATOM     13  C   UNL     1       0.291  17.296  19.946  0.00  0.00    +0.000 C 
ATOM     14  O   UNL     1       1.453  18.124  20.096  0.00  0.00    +0.000 OA
ATOM     15  C   UNL     1       2.564  17.429  19.701  0.00  0.00    +0.000 C 
ATOM     16  O   UNL     1       3.680  17.922  19.694  0.00  0.00    +0.000 OA
ATOM     17  N   UNL     1       2.212  16.168  19.303  0.00  0.00    +0.000 N 
ATOM     18  H   UNL     1       3.774  12.620  17.639  0.00  0.00    +0.000 HD
ENDROOT
BRANCH   1  21
ATOM     19  C   UNL     1       5.964  14.788  20.993  0.00  0.00    +0.000 A 
ATOM     20  C   UNL     1       4.671  14.908  20.463  0.00  0.00    +0.000 A 
ATOM     21  C   UNL     1       4.458  15.106  19.093  0.00  0.00    +0.000 A 
ATOM     22  C   UNL     1       5.575  15.167  18.255  0.00  0.00    +0.000 A 
ATOM     23  C   UNL     1       6.879  15.052  18.748  0.00  0.00    +0.000 A 
ATOM     24  C   UNL     1       7.072  14.874  20.129  0.00  0.00    +0.000 A 
BRANCH  19  26
ATOM     25  C   UNL     1       6.107  13.264  22.848  0.00  0.00    +0.000 C 
ATOM     26  O   UNL     1       5.946  14.582  22.348  0.00  0.00    +0.000 OA
ENDBRANCH  19  26
BRANCH  23  27
ATOM     27  O   UNL     1       7.796  15.150  17.740  0.00  0.00    +0.000 OA
ATOM     28  C   UNL     1       8.757  16.186  17.734  0.00  0.00    +0.000 C 
ENDBRANCH  23  27
BRANCH  24  29
ATOM     29  O   UNL     1       8.333  14.791  20.647  0.00  0.00    +0.000 OA
ATOM     30  H   UNL     1       8.906  14.559  19.898  0.00  0.00    +0.000 HD
ENDBRANCH  24  29
ENDBRANCH   1  21
BRANCH  11  31
ATOM     31  N   UNL     1       0.276  14.617  21.152  0.00  0.00    +0.000 N 
ATOM     32  H   UNL     1       1.182  14.259  21.462  0.00  0.00    +0.000 HD
BRANCH  31  33
ATOM     33  C   UNL     1      -0.790  14.051  21.854  0.00  0.00    +0.000 A 
ATOM     34  C   UNL     1      -2.014  14.726  21.902  0.00  0.00    +0.000 A 
ATOM     35  C   UNL     1      -3.099  14.205  22.617  0.00  0.00    +0.000 A 
ATOM     36  C   UNL     1      -2.980  12.971  23.261  0.00  0.00    +0.000 A 
ATOM     37  C   UNL     1      -1.801  12.238  23.131  0.00  0.00    +0.000 A 
ATOM     38  C   UNL     1      -0.729  12.767  22.412  0.00  0.00    +0.000 A 
BRANCH  36  39
ATOM     39  C   UNL     1      -4.050  12.462  24.052  0.00  0.00    +0.000 C 
ATOM     40  N   UNL     1      -4.942  12.047  24.674  0.00  0.00    +0.000 NA
ENDBRANCH  36  39
ENDBRANCH  31  33
ENDBRANCH  11  31
TORSDOF 7
ENDMDL
MODEL 4
REMARK VINA RESULT:      -6.7      3.875      7.753
REMARK  Name = 
REMARK  9 active torsions:
REMARK  status: ('A' for Active; 'I' for Inactive)
REMARK    1  A    between atoms: C_1  and  O_2
REMARK    2  A    between atoms: O_2  and  C_3
REMARK    3  A    between atoms: C_5  and  C_6
REMARK    4  A    between atoms: C_16  and  N_17
REMARK    5  A    between atoms: N_17  and  C_18
REMARK    6  A    between atoms: C_21  and  C_22
REMARK    7  A    between atoms: C_33  and  O_34
REMARK    8  A    between atoms: O_34  and  C_35
REMARK    9  A    between atoms: C_36  and  O_37
REMARK                            x       y       z     vdW  Elec       q    Type
REMARK                         _______ _______ _______ _____ _____    ______ ____
ROOT
ATOM      1  C   UNL     1       3.035  15.250  18.489  0.00  0.00    +0.000 C 
ATOM      2  C   UNL     1       2.308  13.918  18.489  0.00  0.00    +0.000 A 
ATOM      3  N   UNL     1       2.824  12.733  18.026  0.00  0.00    +0.000 N 
ATOM      4  C   UNL     1       1.931  11.707  18.257  0.00  0.00    +0.000 A 
ATOM      5  C   UNL     1       2.059  10.331  18.035  0.00  0.00    +0.000 A 
ATOM      6  C   UNL     1       0.978   9.512  18.379  0.00  0.00    +0.000 A 
ATOM      7  C   UNL     1      -0.195  10.051  18.901  0.00  0.00    +0.000 A 
ATOM      8  C   UNL     1      -0.309  11.428  19.122  0.00  0.00    +0.000 A 
ATOM      9  C   UNL     1       0.780  12.268  18.815  0.00  0.00    +0.000 A 
ATOM     10  C   UNL     1       1.038  13.655  18.983  0.00  0.00    +0.000 A 
ATOM     11  C   UNL     1       0.194  14.721  19.636  0.00  0.00    +0.000 C 
ATOM     12  C   UNL     1       0.746  16.089  19.136  0.00  0.00    +0.000 C 
ATOM     13  C   UNL     1       0.266  17.324  19.860  0.00  0.00    +0.000 C 
ATOM     14  O   UNL     1       1.429  18.153  20.000  0.00  0.00    +0.000 OA
ATOM     15  C   UNL     1       2.541  17.452  19.618  0.00  0.00    +0.000 C 
ATOM     16  O   UNL     1       3.657  17.943  19.607  0.00  0.00    +0.000 OA
ATOM     17  N   UNL     1       2.188  16.184  19.240  0.00  0.00    +0.000 N 
ATOM     18  H   UNL     1       3.751  12.608  17.638  0.00  0.00    +0.000 HD
ENDROOT
BRANCH   1  21
ATOM     19  C   UNL     1       6.858  15.102  18.736  0.00  0.00    +0.000 A 
ATOM     20  C   UNL     1       5.558  15.235  18.226  0.00  0.00    +0.000 A 
ATOM     21  C   UNL     1       4.434  15.117  19.053  0.00  0.00    +0.000 A 
ATOM     22  C   UNL     1       4.639  14.877  20.415  0.00  0.00    +0.000 A 
ATOM     23  C   UNL     1       5.921  14.739  20.958  0.00  0.00    +0.000 A 
ATOM     24  C   UNL     1       7.035  14.840  20.107  0.00  0.00    +0.000 A 
BRANCH  19  26
ATOM     25  C   UNL     1       8.754  16.321  17.897  0.00  0.00    +0.000 C 
ATOM     26  O   UNL     1       7.809  15.271  17.764  0.00  0.00    +0.000 OA
ENDBRANCH  19  26
BRANCH  23  27
ATOM     27  O   UNL     1       5.862  14.504  22.303  0.00  0.00    +0.000 OA
ATOM     28  C   UNL     1       6.206  13.239  22.832  0.00  0.00    +0.000 C 
ENDBRANCH  23  27
BRANCH  24  29
ATOM     29  O   UNL     1       8.300  14.677  20.600  0.00  0.00    +0.000 OA
ATOM     30  H   UNL     1       8.205  14.696  21.566  0.00  0.00    +0.000 HD
ENDBRANCH  24  29
ENDBRANCH   1  21
BRANCH  11  31
ATOM     31  N   UNL     1       0.246  14.665  21.109  0.00  0.00    +0.000 N 
ATOM     32  H   UNL     1       1.159  14.338  21.428  0.00  0.00    +0.000 HD
BRANCH  31  33
ATOM     33  C   UNL     1      -0.807  14.081  21.815  0.00  0.00    +0.000 A 
ATOM     34  C   UNL     1      -2.049  14.723  21.849  0.00  0.00    +0.000 A 
ATOM     35  C   UNL     1      -3.122  14.183  22.568  0.00  0.00    +0.000 A 
ATOM     36  C   UNL     1      -2.973  12.962  23.230  0.00  0.00    +0.000 A 
ATOM     37  C   UNL     1      -1.773  12.259  23.115  0.00  0.00    +0.000 A 
ATOM     38  C   UNL     1      -0.714  12.807  22.392  0.00  0.00    +0.000 A 
BRANCH  36  39
ATOM     39  C   UNL     1      -4.032  12.435  24.025  0.00  0.00    +0.000 C 
ATOM     40  N   UNL     1      -4.888  12.023  24.696  0.00  0.00    +0.000 NA
ENDBRANCH  36  39
ENDBRANCH  31  33
ENDBRANCH  11  31
TORSDOF 7
ENDMDL
MODEL 5
REMARK VINA RESULT:      -6.7      2.871      7.480
REMARK  Name = 
REMARK  9 active torsions:
REMARK  status: ('A' for Active; 'I' for Inactive)
REMARK    1  A    between atoms: C_1  and  O_2
REMARK    2  A    between atoms: O_2  and  C_3
REMARK    3  A    between atoms: C_5  and  C_6
REMARK    4  A    between atoms: C_16  and  N_17
REMARK    5  A    between atoms: N_17  and  C_18
REMARK    6  A    between atoms: C_21  and  C_22
REMARK    7  A    between atoms: C_33  and  O_34
REMARK    8  A    between atoms: O_34  and  C_35
REMARK    9  A    between atoms: C_36  and  O_37
REMARK                            x       y       z     vdW  Elec       q    Type
REMARK                         _______ _______ _______ _____ _____    ______ ____
ROOT
ATOM      1  C   UNL     1      -0.114  11.680  18.587  0.00  0.00    +0.000 C 
ATOM      2  C   UNL     1      -1.630  11.619  18.618  0.00  0.00    +0.000 A 
ATOM      3  N   UNL     1      -2.392  10.577  18.152  0.00  0.00    +0.000 N 
ATOM      4  C   UNL     1      -3.726  10.812  18.417  0.00  0.00    +0.000 A 
ATOM      5  C   UNL     1      -4.846  10.000  18.203  0.00  0.00    +0.000 A 
ATOM      6  C   UNL     1      -6.096  10.501  18.584  0.00  0.00    +0.000 A 
ATOM      7  C   UNL     1      -6.224  11.774  19.133  0.00  0.00    +0.000 A 
ATOM      8  C   UNL     1      -5.096  12.574  19.345  0.00  0.00    +0.000 A 
ATOM      9  C   UNL     1      -3.823  12.078  19.001  0.00  0.00    +0.000 A 
ATOM     10  C   UNL     1      -2.496  12.565  19.150  0.00  0.00    +0.000 A 
ATOM     11  C   UNL     1      -2.001  13.824  19.816  0.00  0.00    +0.000 C 
ATOM     12  C   UNL     1      -0.555  14.062  19.288  0.00  0.00    +0.000 C 
ATOM     13  C   UNL     1       0.275  15.094  20.015  0.00  0.00    +0.000 C 
ATOM     14  O   UNL     1       1.586  14.520  20.115  0.00  0.00    +0.000 OA
ATOM     15  C   UNL     1       1.546  13.213  19.709  0.00  0.00    +0.000 C 
ATOM     16  O   UNL     1       2.540  12.508  19.662  0.00  0.00    +0.000 OA
ATOM     17  N   UNL     1       0.269  12.871  19.352  0.00  0.00    +0.000 N 
ATOM     18  H   UNL     1      -2.032   9.726  17.739  0.00  0.00    +0.000 HD
ENDROOT
BRANCH   1  21
ATOM     19  C   UNL     1       0.996   8.891  20.971  0.00  0.00    +0.000 A 
ATOM     20  C   UNL     1       0.419  10.068  20.471  0.00  0.00    +0.000 A 
ATOM     21  C   UNL     1       0.502  10.401  19.113  0.00  0.00    +0.000 A 
ATOM     22  C   UNL     1       1.165   9.518  18.256  0.00  0.00    +0.000 A 
ATOM     23  C   UNL     1       1.753   8.336  18.721  0.00  0.00    +0.000 A 
ATOM     24  C   UNL     1       1.677   8.030  20.090  0.00  0.00    +0.000 A 
BRANCH  19  26
ATOM     25  C   UNL     1      -0.143   9.607  22.964  0.00  0.00    +0.000 C 
ATOM     26  O   UNL     1       0.784   8.749  22.318  0.00  0.00    +0.000 OA
ENDBRANCH  19  26
BRANCH  23  27
ATOM     27  O   UNL     1       2.346   7.648  17.699  0.00  0.00    +0.000 OA
ATOM     28  C   UNL     1       3.742   7.434  17.686  0.00  0.00    +0.000 C 
ENDBRANCH  23  27
BRANCH  24  29
ATOM     29  O   UNL     1       2.268   6.901  20.581  0.00  0.00    +0.000 OA
ATOM     30  H   UNL     1       1.775   6.161  20.192  0.00  0.00    +0.000 HD
ENDBRANCH  24  29
ENDBRANCH   1  21
BRANCH  11  31
ATOM     31  N   UNL     1      -1.990  13.722  21.287  0.00  0.00    +0.000 N 
ATOM     32  H   UNL     1      -1.360  12.980  21.595  0.00  0.00    +0.000 HD
BRANCH  31  33
ATOM     33  C   UNL     1      -3.198  13.723  21.988  0.00  0.00    +0.000 A 
ATOM     34  C   UNL     1      -3.529  12.623  22.784  0.00  0.00    +0.000 A 
ATOM     35  C   UNL     1      -4.742  12.573  23.481  0.00  0.00    +0.000 A 
ATOM     36  C   UNL     1      -5.625  13.654  23.419  0.00  0.00    +0.000 A 
ATOM     37  C   UNL     1      -5.259  14.801  22.715  0.00  0.00    +0.000 A 
ATOM     38  C   UNL     1      -4.045  14.838  22.029  0.00  0.00    +0.000 A 
BRANCH  36  39
ATOM     39  C   UNL     1      -6.894  13.590  24.063  0.00  0.00    +0.000 C 
ATOM     40  N   UNL     1      -7.917  13.536  24.616  0.00  0.00    +0.000 NA
ENDBRANCH  36  39
ENDBRANCH  31  33
ENDBRANCH  11  31
TORSDOF 7
ENDMDL
MODEL 6
REMARK VINA RESULT:      -6.6      3.697      6.312
REMARK  Name = 
REMARK  9 active torsions:
REMARK  status: ('A' for Active; 'I' for Inactive)
REMARK    1  A    between atoms: C_1  and  O_2
REMARK    2  A    between atoms: O_2  and  C_3
REMARK    3  A    between atoms: C_5  and  C_6
REMARK    4  A    between atoms: C_16  and  N_17
REMARK    5  A    between atoms: N_17  and  C_18
REMARK    6  A    between atoms: C_21  and  C_22
REMARK    7  A    between atoms: C_33  and  O_34
REMARK    8  A    between atoms: O_34  and  C_35
REMARK    9  A    between atoms: C_36  and  O_37
REMARK                            x       y       z     vdW  Elec       q    Type
REMARK                         _______ _______ _______ _____ _____    ______ ____
ROOT
ATOM      1  C   UNL     1      -1.540  13.301  20.626  0.00  0.00    +0.000 C 
ATOM      2  C   UNL     1      -1.012  14.501  19.862  0.00  0.00    +0.000 A 
ATOM      3  N   UNL     1      -1.637  15.720  19.768  0.00  0.00    +0.000 N 
ATOM      4  C   UNL     1      -0.840  16.607  19.075  0.00  0.00    +0.000 A 
ATOM      5  C   UNL     1      -1.025  17.970  18.810  0.00  0.00    +0.000 A 
ATOM      6  C   UNL     1      -0.032  18.631  18.079  0.00  0.00    +0.000 A 
ATOM      7  C   UNL     1       1.090  17.951  17.609  0.00  0.00    +0.000 A 
ATOM      8  C   UNL     1       1.263  16.590  17.885  0.00  0.00    +0.000 A 
ATOM      9  C   UNL     1       0.293  15.911  18.648  0.00  0.00    +0.000 A 
ATOM     10  C   UNL     1       0.189  14.595  19.173  0.00  0.00    +0.000 A 
ATOM     11  C   UNL     1       1.175  13.455  19.119  0.00  0.00    +0.000 C 
ATOM     12  C   UNL     1       0.371  12.160  19.439  0.00  0.00    +0.000 C 
ATOM     13  C   UNL     1       1.172  10.914  19.734  0.00  0.00    +0.000 C 
ATOM     14  O   UNL     1       0.499  10.287  20.835  0.00  0.00    +0.000 OA
ATOM     15  C   UNL     1      -0.466  11.126  21.321  0.00  0.00    +0.000 C 
ATOM     16  O   UNL     1      -1.209  10.815  22.237  0.00  0.00    +0.000 OA
ATOM     17  N   UNL     1      -0.470  12.297  20.612  0.00  0.00    +0.000 N 
ATOM     18  H   UNL     1      -2.519  15.962  20.203  0.00  0.00    +0.000 HD
ENDROOT
BRANCH   1  21
ATOM     19  C   UNL     1      -1.524  14.706  24.193  0.00  0.00    +0.000 A 
ATOM     20  C   UNL     1      -1.124  14.356  22.894  0.00  0.00    +0.000 A 
ATOM     21  C   UNL     1      -1.988  13.686  22.020  0.00  0.00    +0.000 A 
ATOM     22  C   UNL     1      -3.277  13.385  22.468  0.00  0.00    +0.000 A 
ATOM     23  C   UNL     1      -3.711  13.719  23.756  0.00  0.00    +0.000 A 
ATOM     24  C   UNL     1      -2.821  14.372  24.626  0.00  0.00    +0.000 A 
BRANCH  19  26
ATOM     25  C   UNL     1      -0.102  16.635  24.399  0.00  0.00    +0.000 C 
ATOM     26  O   UNL     1      -0.535  15.369  24.872  0.00  0.00    +0.000 OA
ENDBRANCH  19  26
BRANCH  23  27
ATOM     27  O   UNL     1      -5.000  13.316  23.960  0.00  0.00    +0.000 OA
ATOM     28  C   UNL     1      -5.881  13.127  22.871  0.00  0.00    +0.000 C 
ENDBRANCH  23  27
BRANCH  24  29
ATOM     29  O   UNL     1      -3.202  14.683  25.901  0.00  0.00    +0.000 OA
ATOM     30  H   UNL     1      -2.587  14.202  26.479  0.00  0.00    +0.000 HD
ENDBRANCH  24  29
ENDBRANCH   1  21
BRANCH  11  31
ATOM     31  N   UNL     1       2.280  13.613  20.084  0.00  0.00    +0.000 N 
ATOM     32  H   UNL     1       1.919  13.787  21.024  0.00  0.00    +0.000 HD
BRANCH  31  33
ATOM     33  C   UNL     1       3.362  14.436  19.766  0.00  0.00    +0.000 A 
ATOM     34  C   UNL     1       3.805  15.378  20.699  0.00  0.00    +0.000 A 
ATOM     35  C   UNL     1       4.869  16.239  20.408  0.00  0.00    +0.000 A 
ATOM     36  C   UNL     1       5.533  16.136  19.183  0.00  0.00    +0.000 A 
ATOM     37  C   UNL     1       5.170  15.130  18.287  0.00  0.00    +0.000 A 
ATOM     38  C   UNL     1       4.111  14.276  18.592  0.00  0.00    +0.000 A 
BRANCH  36  39
ATOM     39  C   UNL     1       6.570  17.052  18.842  0.00  0.00    +0.000 C 
ATOM     40  N   UNL     1       7.400  17.822  18.576  0.00  0.00    +0.000 NA
ENDBRANCH  36  39
ENDBRANCH  31  33
ENDBRANCH  11  31
TORSDOF 7
ENDMDL
MODEL 7
REMARK VINA RESULT:      -6.5      3.730      5.997
REMARK  Name = 
REMARK  9 active torsions:
REMARK  status: ('A' for Active; 'I' for Inactive)
REMARK    1  A    between atoms: C_1  and  O_2
REMARK    2  A    between atoms: O_2  and  C_3
REMARK    3  A    between atoms: C_5  and  C_6
REMARK    4  A    between atoms: C_16  and  N_17
REMARK    5  A    between atoms: N_17  and  C_18
REMARK    6  A    between atoms: C_21  and  C_22
REMARK    7  A    between atoms: C_33  and  O_34
REMARK    8  A    between atoms: O_34  and  C_35
REMARK    9  A    between atoms: C_36  and  O_37
REMARK                            x       y       z     vdW  Elec       q    Type
REMARK                         _______ _______ _______ _____ _____    ______ ____
ROOT
ATOM      1  C   UNL     1      -1.647  13.099  20.765  0.00  0.00    +0.000 C 
ATOM      2  C   UNL     1      -1.222  14.366  20.048  0.00  0.00    +0.000 A 
ATOM      3  N   UNL     1      -1.941  15.535  20.010  0.00  0.00    +0.000 N 
ATOM      4  C   UNL     1      -1.223  16.510  19.348  0.00  0.00    +0.000 A 
ATOM      5  C   UNL     1      -1.516  17.863  19.141  0.00  0.00    +0.000 A 
ATOM      6  C   UNL     1      -0.585  18.629  18.431  0.00  0.00    +0.000 A 
ATOM      7  C   UNL     1       0.580  18.059  17.925  0.00  0.00    +0.000 A 
ATOM      8  C   UNL     1       0.862  16.706  18.142  0.00  0.00    +0.000 A 
ATOM      9  C   UNL     1      -0.043  15.922  18.884  0.00  0.00    +0.000 A 
ATOM     10  C   UNL     1      -0.039  14.582  19.354  0.00  0.00    +0.000 A 
ATOM     11  C   UNL     1       1.032  13.525  19.245  0.00  0.00    +0.000 C 
ATOM     12  C   UNL     1       0.334  12.160  19.517  0.00  0.00    +0.000 C 
ATOM     13  C   UNL     1       1.233  10.969  19.754  0.00  0.00    +0.000 C 
ATOM     14  O   UNL     1       0.624  10.247  20.833  0.00  0.00    +0.000 OA
ATOM     15  C   UNL     1      -0.399  10.988  21.361  0.00  0.00    +0.000 C 
ATOM     16  O   UNL     1      -1.105  10.581  22.269  0.00  0.00    +0.000 OA
ATOM     17  N   UNL     1      -0.502  12.182  20.701  0.00  0.00    +0.000 N 
ATOM     18  H   UNL     1      -2.834  15.689  20.462  0.00  0.00    +0.000 HD
ENDROOT
BRANCH   1  21
ATOM     19  C   UNL     1      -3.761  13.150  23.963  0.00  0.00    +0.000 A 
ATOM     20  C   UNL     1      -3.319  12.877  22.660  0.00  0.00    +0.000 A 
ATOM     21  C   UNL     1      -2.107  13.389  22.178  0.00  0.00    +0.000 A 
ATOM     22  C   UNL     1      -1.333  14.173  23.038  0.00  0.00    +0.000 A 
ATOM     23  C   UNL     1      -1.744  14.465  24.344  0.00  0.00    +0.000 A 
ATOM     24  C   UNL     1      -2.972  13.959  24.801  0.00  0.00    +0.000 A 
BRANCH  19  26
ATOM     25  C   UNL     1      -6.154  13.106  23.723  0.00  0.00    +0.000 C 
ATOM     26  O   UNL     1      -4.957  12.539  24.235  0.00  0.00    +0.000 OA
ENDBRANCH  19  26
BRANCH  23  27
ATOM     27  O   UNL     1      -0.825  15.251  24.983  0.00  0.00    +0.000 OA
ATOM     28  C   UNL     1      -0.800  16.648  24.775  0.00  0.00    +0.000 C 
ENDBRANCH  23  27
BRANCH  24  29
ATOM     29  O   UNL     1      -3.417  14.253  26.060  0.00  0.00    +0.000 OA
ATOM     30  H   UNL     1      -3.618  13.396  26.469  0.00  0.00    +0.000 HD
ENDBRANCH  24  29
ENDBRANCH   1  21
BRANCH  11  31
ATOM     31  N   UNL     1       2.132  13.730  20.207  0.00  0.00    +0.000 N 
ATOM     32  H   UNL     1       1.790  14.178  21.059  0.00  0.00    +0.000 HD
BRANCH  31  33
ATOM     33  C   UNL     1       3.342  14.269  19.767  0.00  0.00    +0.000 A 
ATOM     34  C   UNL     1       4.298  14.665  20.707  0.00  0.00    +0.000 A 
ATOM     35  C   UNL     1       5.512  15.235  20.307  0.00  0.00    +0.000 A 
ATOM     36  C   UNL     1       5.801  15.375  18.948  0.00  0.00    +0.000 A 
ATOM     37  C   UNL     1       4.903  14.886  18.000  0.00  0.00    +0.000 A 
ATOM     38  C   UNL     1       3.698  14.317  18.412  0.00  0.00    +0.000 A 
BRANCH  36  39
ATOM     39  C   UNL     1       7.001  16.018  18.525  0.00  0.00    +0.000 C 
ATOM     40  N   UNL     1       7.982  16.555  18.207  0.00  0.00    +0.000 NA
ENDBRANCH  36  39
ENDBRANCH  31  33
ENDBRANCH  11  31
TORSDOF 7
ENDMDL
MODEL 8
REMARK VINA RESULT:      -6.4      3.470      4.641
REMARK  Name = 
REMARK  9 active torsions:
REMARK  status: ('A' for Active; 'I' for Inactive)
REMARK    1  A    between atoms: C_1  and  O_2
REMARK    2  A    between atoms: O_2  and  C_3
REMARK    3  A    between atoms: C_5  and  C_6
REMARK    4  A    between atoms: C_16  and  N_17
REMARK    5  A    between atoms: N_17  and  C_18
REMARK    6  A    between atoms: C_21  and  C_22
REMARK    7  A    between atoms: C_33  and  O_34
REMARK    8  A    between atoms: O_34  and  C_35
REMARK    9  A    between atoms: C_36  and  O_37
REMARK                            x       y       z     vdW  Elec       q    Type
REMARK                         _______ _______ _______ _____ _____    ______ ____
ROOT
ATOM      1  C   UNL     1      -3.800  13.054  21.537  0.00  0.00    +0.000 C 
ATOM      2  C   UNL     1      -3.641  12.454  20.153  0.00  0.00    +0.000 A 
ATOM      3  N   UNL     1      -4.672  12.054  19.338  0.00  0.00    +0.000 N 
ATOM      4  C   UNL     1      -4.176  11.639  18.119  0.00  0.00    +0.000 A 
ATOM      5  C   UNL     1      -4.850  11.231  16.962  0.00  0.00    +0.000 A 
ATOM      6  C   UNL     1      -4.079  10.868  15.853  0.00  0.00    +0.000 A 
ATOM      7  C   UNL     1      -2.687  10.888  15.907  0.00  0.00    +0.000 A 
ATOM      8  C   UNL     1      -2.026  11.302  17.068  0.00  0.00    +0.000 A 
ATOM      9  C   UNL     1      -2.782  11.705  18.187  0.00  0.00    +0.000 A 
ATOM     10  C   UNL     1      -2.457  12.245  19.459  0.00  0.00    +0.000 A 
ATOM     11  C   UNL     1      -1.114  12.634  20.027  0.00  0.00    +0.000 C 
ATOM     12  C   UNL     1      -1.299  12.728  21.571  0.00  0.00    +0.000 C 
ATOM     13  C   UNL     1      -0.184  13.380  22.353  0.00  0.00    +0.000 C 
ATOM     14  O   UNL     1      -0.840  14.201  23.330  0.00  0.00    +0.000 OA
ATOM     15  C   UNL     1      -2.182  14.242  23.066  0.00  0.00    +0.000 C 
ATOM     16  O   UNL     1      -2.973  14.843  23.774  0.00  0.00    +0.000 OA
ATOM     17  N   UNL     1      -2.465  13.501  21.951  0.00  0.00    +0.000 N 
ATOM     18  H   UNL     1      -5.657  12.120  19.564  0.00  0.00    +0.000 HD
ENDROOT
BRANCH   1  21
ATOM     19  C   UNL     1      -6.902  15.124  22.426  0.00  0.00    +0.000 A 
ATOM     20  C   UNL     1      -5.931  14.111  22.418  0.00  0.00    +0.000 A 
ATOM     21  C   UNL     1      -4.835  14.158  21.546  0.00  0.00    +0.000 A 
ATOM     22  C   UNL     1      -4.721  15.256  20.689  0.00  0.00    +0.000 A 
ATOM     23  C   UNL     1      -5.671  16.284  20.670  0.00  0.00    +0.000 A 
ATOM     24  C   UNL     1      -6.774  16.207  21.537  0.00  0.00    +0.000 A 
BRANCH  19  26
ATOM     25  C   UNL     1      -7.759  13.761  24.213  0.00  0.00    +0.000 C 
ATOM     26  O   UNL     1      -7.875  14.891  23.363  0.00  0.00    +0.000 OA
ENDBRANCH  19  26
BRANCH  23  27
ATOM     27  O   UNL     1      -5.345  17.236  19.746  0.00  0.00    +0.000 OA
ATOM     28  C   UNL     1      -5.992  17.277  18.490  0.00  0.00    +0.000 C 
ENDBRANCH  23  27
BRANCH  24  29
ATOM     29  O   UNL     1      -7.736  17.177  21.521  0.00  0.00    +0.000 OA
ATOM     30  H   UNL     1      -7.339  17.927  21.049  0.00  0.00    +0.000 HD
ENDBRANCH  24  29
ENDBRANCH   1  21
BRANCH  11  31
ATOM     31  N   UNL     1      -0.625  13.921  19.499  0.00  0.00    +0.000 N 
ATOM     32  H   UNL     1      -1.255  14.282  18.781  0.00  0.00    +0.000 HD
BRANCH  31  33
ATOM     33  C   UNL     1       0.719  14.057  19.148  0.00  0.00    +0.000 A 
ATOM     34  C   UNL     1       1.370  15.271  19.385  0.00  0.00    +0.000 A 
ATOM     35  C   UNL     1       2.710  15.456  19.023  0.00  0.00    +0.000 A 
ATOM     36  C   UNL     1       3.429  14.403  18.454  0.00  0.00    +0.000 A 
ATOM     37  C   UNL     1       2.823  13.154  18.311  0.00  0.00    +0.000 A 
ATOM     38  C   UNL     1       1.488  12.983  18.680  0.00  0.00    +0.000 A 
BRANCH  36  39
ATOM     39  C   UNL     1       4.770  14.595  18.014  0.00  0.00    +0.000 C 
ATOM     40  N   UNL     1       5.859  14.782  17.650  0.00  0.00    +0.000 NA
ENDBRANCH  36  39
ENDBRANCH  31  33
ENDBRANCH  11  31
TORSDOF 7
ENDMDL
MODEL 9
REMARK VINA RESULT:      -6.3      2.905      5.188
REMARK  Name = 
REMARK  9 active torsions:
REMARK  status: ('A' for Active; 'I' for Inactive)
REMARK    1  A    between atoms: C_1  and  O_2
REMARK    2  A    between atoms: O_2  and  C_3
REMARK    3  A    between atoms: C_5  and  C_6
REMARK    4  A    between atoms: C_16  and  N_17
REMARK    5  A    between atoms: N_17  and  C_18
REMARK    6  A    between atoms: C_21  and  C_22
REMARK    7  A    between atoms: C_33  and  O_34
REMARK    8  A    between atoms: O_34  and  C_35
REMARK    9  A    between atoms: C_36  and  O_37
REMARK                            x       y       z     vdW  Elec       q    Type
REMARK                         _______ _______ _______ _____ _____    ______ ____
ROOT
ATOM      1  C   UNL     1      -2.934  13.004  19.258  0.00  0.00    +0.000 C 
ATOM      2  C   UNL     1      -1.558  13.417  19.746  0.00  0.00    +0.000 A 
ATOM      3  N   UNL     1      -1.289  14.519  20.521  0.00  0.00    +0.000 N 
ATOM      4  C   UNL     1       0.050  14.545  20.855  0.00  0.00    +0.000 A 
ATOM      5  C   UNL     1       0.755  15.421  21.688  0.00  0.00    +0.000 A 
ATOM      6  C   UNL     1       2.126  15.199  21.855  0.00  0.00    +0.000 A 
ATOM      7  C   UNL     1       2.772  14.156  21.194  0.00  0.00    +0.000 A 
ATOM      8  C   UNL     1       2.054  13.285  20.368  0.00  0.00    +0.000 A 
ATOM      9  C   UNL     1       0.666  13.468  20.212  0.00  0.00    +0.000 A 
ATOM     10  C   UNL     1      -0.359  12.749  19.540  0.00  0.00    +0.000 A 
ATOM     11  C   UNL     1      -0.284  11.448  18.781  0.00  0.00    +0.000 C 
ATOM     12  C   UNL     1      -1.566  11.379  17.898  0.00  0.00    +0.000 C 
ATOM     13  C   UNL     1      -1.881  10.048  17.257  0.00  0.00    +0.000 C 
ATOM     14  O   UNL     1      -3.300   9.891  17.397  0.00  0.00    +0.000 OA
ATOM     15  C   UNL     1      -3.793  10.876  18.210  0.00  0.00    +0.000 C 
ATOM     16  O   UNL     1      -4.981  10.989  18.459  0.00  0.00    +0.000 OA
ATOM     17  N   UNL     1      -2.774  11.684  18.638  0.00  0.00    +0.000 N 
ATOM     18  H   UNL     1      -1.977  15.179  20.861  0.00  0.00    +0.000 HD
ENDROOT
BRANCH   1  21
ATOM     19  C   UNL     1      -4.549  12.579  22.709  0.00  0.00    +0.000 A 
ATOM     20  C   UNL     1      -3.612  12.576  21.664  0.00  0.00    +0.000 A 
ATOM     21  C   UNL     1      -3.949  13.024  20.381  0.00  0.00    +0.000 A 
ATOM     22  C   UNL     1      -5.248  13.494  20.166  0.00  0.00    +0.000 A 
ATOM     23  C   UNL     1      -6.207  13.512  21.184  0.00  0.00    +0.000 A 
ATOM     24  C   UNL     1      -5.855  13.038  22.460  0.00  0.00    +0.000 A 
BRANCH  19  26
ATOM     25  C   UNL     1      -3.550  13.055  24.844  0.00  0.00    +0.000 C 
ATOM     26  O   UNL     1      -4.009  12.119  23.881  0.00  0.00    +0.000 OA
ENDBRANCH  19  26
BRANCH  23  27
ATOM     27  O   UNL     1      -7.397  14.006  20.729  0.00  0.00    +0.000 OA
ATOM     28  C   UNL     1      -7.794  13.815  19.386  0.00  0.00    +0.000 C 
ENDBRANCH  23  27
BRANCH  24  29
ATOM     29  O   UNL     1      -6.778  13.011  23.467  0.00  0.00    +0.000 OA
ATOM     30  H   UNL     1      -7.542  13.507  23.131  0.00  0.00    +0.000 HD
ENDBRANCH  24  29
ENDBRANCH   1  21
BRANCH  11  31
ATOM     31  N   UNL     1      -0.221  10.273  19.670  0.00  0.00    +0.000 N 
ATOM     32  H   UNL     1      -0.253  10.558  20.651  0.00  0.00    +0.000 HD
BRANCH  31  33
ATOM     33  C   UNL     1       0.729   9.279  19.433  0.00  0.00    +0.000 A 
ATOM     34  C   UNL     1       1.405   9.254  18.210  0.00  0.00    +0.000 A 
ATOM     35  C   UNL     1       2.345   8.257  17.923  0.00  0.00    +0.000 A 
ATOM     36  C   UNL     1       2.651   7.292  18.885  0.00  0.00    +0.000 A 
ATOM     37  C   UNL     1       2.063   7.368  20.147  0.00  0.00    +0.000 A 
ATOM     38  C   UNL     1       1.131   8.369  20.421  0.00  0.00    +0.000 A 
BRANCH  36  39
ATOM     39  C   UNL     1       3.552   6.229  18.583  0.00  0.00    +0.000 C 
ATOM     40  N   UNL     1       4.289   5.372  18.309  0.00  0.00    +0.000 NA
ENDBRANCH  36  39
ENDBRANCH  31  33
ENDBRANCH  11  31
TORSDOF 7
ENDMDL
