MODEL 1
REMARK VINA RESULT:      -7.6      0.000      0.000
REMARK  Name = 
REMARK  6 active torsions:
REMARK  status: ('A' for Active; 'I' for Inactive)
REMARK    1  A    between atoms: C_1  and  N_2
REMARK    2  A    between atoms: N_2  and  C_3
REMARK    3  A    between atoms: C_5  and  C_6
REMARK    4  A    between atoms: C_9  and  C_10
REMARK    5  A    between atoms: N_12  and  C_13
REMARK    6  A    between atoms: C_15  and  C_16
REMARK                            x       y       z     vdW  Elec       q    Type
REMARK                         _______ _______ _______ _____ _____    ______ ____
ROOT
ATOM      1  C   UNL     1       4.156   4.644  17.425  0.00  0.00    +0.000 C 
ATOM      2  O   UNL     1       4.026   5.803  17.053  0.00  0.00    +0.000 OA
ATOM      3  N   UNL     1       5.082   3.762  16.777  0.00  0.00    +0.000 N 
ATOM      4  H   UNL     1       5.155   2.816  17.161  0.00  0.00    +0.000 HD
ENDROOT
BRANCH   1  11
ATOM      5  C   UNL     1       3.013   4.917  19.661  0.00  0.00    +0.000 A 
ATOM      6  N   UNL     1       2.369   4.373  20.718  0.00  0.00    +0.000 NA
ATOM      7  C   UNL     1       2.059   3.051  20.704  0.00  0.00    +0.000 A 
ATOM      8  C   UNL     1       1.459   2.463  21.946  0.00  0.00    +0.000 C 
ATOM      9  C   UNL     1       2.325   2.235  19.616  0.00  0.00    +0.000 A 
ATOM     10  C   UNL     1       2.997   2.784  18.535  0.00  0.00    +0.000 A 
ATOM     11  C   UNL     1       3.375   4.132  18.565  0.00  0.00    +0.000 A 
BRANCH   5  13
ATOM     12  C   UNL     1       2.271   7.195  19.779  0.00  0.00    +0.000 C 
ATOM     13  N   UNL     1       3.420   6.277  19.745  0.00  0.00    +0.000 N 
ATOM     14  H   UNL     1       3.899   6.354  20.650  0.00  0.00    +0.000 HD
ENDBRANCH   5  13
ENDBRANCH   1  11
BRANCH   3  15
ATOM     15  C   UNL     1       5.805   4.109  15.643  0.00  0.00    +0.000 A 
ATOM     16  C   UNL     1       5.606   3.719  14.339  0.00  0.00    +0.000 A 
ATOM     17  C   UNL     1       6.677   4.280  13.591  0.00  0.00    +0.000 A 
ATOM     18  N   UNL     1       7.470   5.022  14.389  0.00  0.00    +0.000 NA
ATOM     19  N   UNL     1       6.915   4.910  15.609  0.00  0.00    +0.000 N 
ATOM     20  H   UNL     1       7.352   5.411  16.375  0.00  0.00    +0.000 HD
BRANCH  17  21
ATOM     21  C   UNL     1       6.937   4.064  12.118  0.00  0.00    +0.000 C 
ATOM     22  F   UNL     1       5.771   3.941  11.423  0.00  0.00    +0.000 F 
ATOM     23  F   UNL     1       7.617   5.091  11.550  0.00  0.00    +0.000 F 
ATOM     24  F   UNL     1       7.642   2.928  11.884  0.00  0.00    +0.000 F 
ENDBRANCH  17  21
ENDBRANCH   3  15
TORSDOF 4
ENDMDL
MODEL 2
REMARK VINA RESULT:      -7.4      4.516      7.553
REMARK  Name = 
REMARK  6 active torsions:
REMARK  status: ('A' for Active; 'I' for Inactive)
REMARK    1  A    between atoms: C_1  and  N_2
REMARK    2  A    between atoms: N_2  and  C_3
REMARK    3  A    between atoms: C_5  and  C_6
REMARK    4  A    between atoms: C_9  and  C_10
REMARK    5  A    between atoms: N_12  and  C_13
REMARK    6  A    between atoms: C_15  and  C_16
REMARK                            x       y       z     vdW  Elec       q    Type
REMARK                         _______ _______ _______ _____ _____    ______ ____
ROOT
ATOM      1  C   UNL     1       4.925   4.438  16.811  0.00  0.00    +0.000 C 
ATOM      2  O   UNL     1       4.180   5.339  17.173  0.00  0.00    +0.000 OA
ATOM      3  N   UNL     1       4.927   3.169  17.480  0.00  0.00    +0.000 N 
ATOM      4  H   UNL     1       5.557   2.457  17.102  0.00  0.00    +0.000 HD
ENDROOT
BRANCH   1  11
ATOM      5  C   UNL     1       7.052   5.289  15.747  0.00  0.00    +0.000 A 
ATOM      6  N   UNL     1       7.798   5.509  14.642  0.00  0.00    +0.000 NA
ATOM      7  C   UNL     1       7.355   5.067  13.436  0.00  0.00    +0.000 A 
ATOM      8  C   UNL     1       8.150   5.442  12.221  0.00  0.00    +0.000 C 
ATOM      9  C   UNL     1       6.183   4.342  13.294  0.00  0.00    +0.000 A 
ATOM     10  C   UNL     1       5.407   4.125  14.421  0.00  0.00    +0.000 A 
ATOM     11  C   UNL     1       5.825   4.629  15.660  0.00  0.00    +0.000 A 
BRANCH   5  13
ATOM     12  C   UNL     1       7.138   7.278  17.085  0.00  0.00    +0.000 C 
ATOM     13  N   UNL     1       7.486   5.853  16.979  0.00  0.00    +0.000 N 
ATOM     14  H   UNL     1       6.951   5.353  17.700  0.00  0.00    +0.000 HD
ENDBRANCH   5  13
ENDBRANCH   1  11
BRANCH   3  15
ATOM     15  C   UNL     1       4.186   2.906  18.624  0.00  0.00    +0.000 A 
ATOM     16  C   UNL     1       2.856   3.159  18.868  0.00  0.00    +0.000 A 
ATOM     17  C   UNL     1       2.624   2.786  20.220  0.00  0.00    +0.000 A 
ATOM     18  N   UNL     1       3.747   2.279  20.767  0.00  0.00    +0.000 NA
ATOM     19  N   UNL     1       4.661   2.353  19.783  0.00  0.00    +0.000 N 
ATOM     20  H   UNL     1       5.594   2.006  19.977  0.00  0.00    +0.000 HD
BRANCH  17  21
ATOM     21  C   UNL     1       1.326   2.954  20.975  0.00  0.00    +0.000 C 
ATOM     22  F   UNL     1       0.274   2.455  20.267  0.00  0.00    +0.000 F 
ATOM     23  F   UNL     1       1.327   2.310  22.168  0.00  0.00    +0.000 F 
ATOM     24  F   UNL     1       1.040   4.259  21.216  0.00  0.00    +0.000 F 
ENDBRANCH  17  21
ENDBRANCH   3  15
TORSDOF 4
ENDMDL
MODEL 3
REMARK VINA RESULT:      -7.4      4.643      7.620
REMARK  Name = 
REMARK  6 active torsions:
REMARK  status: ('A' for Active; 'I' for Inactive)
REMARK    1  A    between atoms: C_1  and  N_2
REMARK    2  A    between atoms: N_2  and  C_3
REMARK    3  A    between atoms: C_5  and  C_6
REMARK    4  A    between atoms: C_9  and  C_10
REMARK    5  A    between atoms: N_12  and  C_13
REMARK    6  A    between atoms: C_15  and  C_16
REMARK                            x       y       z     vdW  Elec       q    Type
REMARK                         _______ _______ _______ _____ _____    ______ ____
ROOT
ATOM      1  C   UNL     1       4.637   4.461  16.659  0.00  0.00    +0.000 C 
ATOM      2  O   UNL     1       4.037   5.423  17.121  0.00  0.00    +0.000 OA
ATOM      3  N   UNL     1       4.343   3.128  17.099  0.00  0.00    +0.000 N 
ATOM      4  H   UNL     1       4.866   2.374  16.647  0.00  0.00    +0.000 HD
ENDROOT
BRANCH   1  11
ATOM      5  C   UNL     1       6.904   5.243  15.865  0.00  0.00    +0.000 A 
ATOM      6  N   UNL     1       7.775   5.465  14.856  0.00  0.00    +0.000 NA
ATOM      7  C   UNL     1       7.444   5.093  13.592  0.00  0.00    +0.000 A 
ATOM      8  C   UNL     1       8.383   5.472  12.486  0.00  0.00    +0.000 C 
ATOM      9  C   UNL     1       6.262   4.434  13.295  0.00  0.00    +0.000 A 
ATOM     10  C   UNL     1       5.359   4.214  14.323  0.00  0.00    +0.000 A 
ATOM     11  C   UNL     1       5.664   4.649  15.620  0.00  0.00    +0.000 A 
BRANCH   5  13
ATOM     12  C   UNL     1       7.166   7.205  17.220  0.00  0.00    +0.000 C 
ATOM     13  N   UNL     1       7.228   5.736  17.159  0.00  0.00    +0.000 N 
ATOM     14  H   UNL     1       6.488   5.373  17.772  0.00  0.00    +0.000 HD
ENDBRANCH   5  13
ENDBRANCH   1  11
BRANCH   3  15
ATOM     15  C   UNL     1       3.458   2.840  18.130  0.00  0.00    +0.000 A 
ATOM     16  C   UNL     1       3.450   3.319  19.420  0.00  0.00    +0.000 A 
ATOM     17  C   UNL     1       2.396   2.637  20.087  0.00  0.00    +0.000 A 
ATOM     18  N   UNL     1       1.753   1.815  19.234  0.00  0.00    +0.000 NA
ATOM     19  N   UNL     1       2.405   1.968  18.067  0.00  0.00    +0.000 N 
ATOM     20  H   UNL     1       2.072   1.440  17.267  0.00  0.00    +0.000 HD
BRANCH  17  21
ATOM     21  C   UNL     1       2.044   2.767  21.551  0.00  0.00    +0.000 C 
ATOM     22  F   UNL     1       0.711   2.577  21.758  0.00  0.00    +0.000 F 
ATOM     23  F   UNL     1       2.688   1.861  22.327  0.00  0.00    +0.000 F 
ATOM     24  F   UNL     1       2.334   4.001  22.038  0.00  0.00    +0.000 F 
ENDBRANCH  17  21
ENDBRANCH   3  15
TORSDOF 4
ENDMDL
MODEL 4
REMARK VINA RESULT:      -7.3      5.276      8.003
REMARK  Name = 
REMARK  6 active torsions:
REMARK  status: ('A' for Active; 'I' for Inactive)
REMARK    1  A    between atoms: C_1  and  N_2
REMARK    2  A    between atoms: N_2  and  C_3
REMARK    3  A    between atoms: C_5  and  C_6
REMARK    4  A    between atoms: C_9  and  C_10
REMARK    5  A    between atoms: N_12  and  C_13
REMARK    6  A    between atoms: C_15  and  C_16
REMARK                            x       y       z     vdW  Elec       q    Type
REMARK                         _______ _______ _______ _____ _____    ______ ____
ROOT
ATOM      1  C   UNL     1       4.864   5.656  17.953  0.00  0.00    +0.000 C 
ATOM      2  O   UNL     1       5.319   5.371  19.053  0.00  0.00    +0.000 OA
ATOM      3  N   UNL     1       3.594   6.311  17.828  0.00  0.00    +0.000 N 
ATOM      4  H   UNL     1       3.293   6.542  16.878  0.00  0.00    +0.000 HD
ENDROOT
BRANCH   1  11
ATOM      5  C   UNL     1       6.967   5.685  16.554  0.00  0.00    +0.000 A 
ATOM      6  N   UNL     1       7.589   5.456  15.376  0.00  0.00    +0.000 NA
ATOM      7  C   UNL     1       6.901   4.881  14.356  0.00  0.00    +0.000 A 
ATOM      8  C   UNL     1       7.590   4.761  13.030  0.00  0.00    +0.000 C 
ATOM      9  C   UNL     1       5.587   4.461  14.488  0.00  0.00    +0.000 A 
ATOM     10  C   UNL     1       4.939   4.704  15.689  0.00  0.00    +0.000 A 
ATOM     11  C   UNL     1       5.622   5.351  16.727  0.00  0.00    +0.000 A 
BRANCH   5  13
ATOM     12  C   UNL     1       7.608   7.841  17.388  0.00  0.00    +0.000 C 
ATOM     13  N   UNL     1       7.677   6.383  17.569  0.00  0.00    +0.000 N 
ATOM     14  H   UNL     1       7.180   6.159  18.440  0.00  0.00    +0.000 HD
ENDBRANCH   5  13
ENDBRANCH   1  11
BRANCH   3  15
ATOM     15  C   UNL     1       2.757   6.569  18.906  0.00  0.00    +0.000 A 
ATOM     16  C   UNL     1       2.143   7.748  19.259  0.00  0.00    +0.000 A 
ATOM     17  C   UNL     1       1.479   7.495  20.491  0.00  0.00    +0.000 A 
ATOM     18  N   UNL     1       1.635   6.205  20.852  0.00  0.00    +0.000 NA
ATOM     19  N   UNL     1       2.394   5.674  19.877  0.00  0.00    +0.000 N 
ATOM     20  H   UNL     1       2.627   4.689  19.942  0.00  0.00    +0.000 HD
BRANCH  17  21
ATOM     21  C   UNL     1       0.729   8.512  21.317  0.00  0.00    +0.000 C 
ATOM     22  F   UNL     1       1.364   8.756  22.498  0.00  0.00    +0.000 F 
ATOM     23  F   UNL     1       0.607   9.709  20.691  0.00  0.00    +0.000 F 
ATOM     24  F   UNL     1      -0.521   8.090  21.637  0.00  0.00    +0.000 F 
ENDBRANCH  17  21
ENDBRANCH   3  15
TORSDOF 4
ENDMDL
MODEL 5
REMARK VINA RESULT:      -7.2      4.628      7.654
REMARK  Name = 
REMARK  6 active torsions:
REMARK  status: ('A' for Active; 'I' for Inactive)
REMARK    1  A    between atoms: C_1  and  N_2
REMARK    2  A    between atoms: N_2  and  C_3
REMARK    3  A    between atoms: C_5  and  C_6
REMARK    4  A    between atoms: C_9  and  C_10
REMARK    5  A    between atoms: N_12  and  C_13
REMARK    6  A    between atoms: C_15  and  C_16
REMARK                            x       y       z     vdW  Elec       q    Type
REMARK                         _______ _______ _______ _____ _____    ______ ____
ROOT
ATOM      1  C   UNL     1       5.212   4.154  17.182  0.00  0.00    +0.000 C 
ATOM      2  O   UNL     1       5.773   4.075  18.267  0.00  0.00    +0.000 OA
ATOM      3  N   UNL     1       3.788   4.014  17.076  0.00  0.00    +0.000 N 
ATOM      4  H   UNL     1       3.389   4.119  16.140  0.00  0.00    +0.000 HD
ENDROOT
BRANCH   1  11
ATOM      5  C   UNL     1       7.119   5.232  15.925  0.00  0.00    +0.000 A 
ATOM      6  N   UNL     1       7.741   5.505  14.756  0.00  0.00    +0.000 NA
ATOM      7  C   UNL     1       7.267   4.965  13.603  0.00  0.00    +0.000 A 
ATOM      8  C   UNL     1       7.908   5.394  12.317  0.00  0.00    +0.000 C 
ATOM      9  C   UNL     1       6.193   4.090  13.577  0.00  0.00    +0.000 A 
ATOM     10  C   UNL     1       5.542   3.817  14.771  0.00  0.00    +0.000 A 
ATOM     11  C   UNL     1       5.986   4.416  15.957  0.00  0.00    +0.000 A 
BRANCH   5  13
ATOM     12  C   UNL     1       7.025   7.254  17.211  0.00  0.00    +0.000 C 
ATOM     13  N   UNL     1       7.570   5.893  17.101  0.00  0.00    +0.000 N 
ATOM     14  H   UNL     1       7.181   5.343  17.877  0.00  0.00    +0.000 HD
ENDBRANCH   5  13
ENDBRANCH   1  11
BRANCH   3  15
ATOM     15  C   UNL     1       2.970   3.682  18.148  0.00  0.00    +0.000 A 
ATOM     16  C   UNL     1       3.258   3.701  19.492  0.00  0.00    +0.000 A 
ATOM     17  C   UNL     1       2.111   3.180  20.151  0.00  0.00    +0.000 A 
ATOM     18  N   UNL     1       1.142   2.901  19.256  0.00  0.00    +0.000 NA
ATOM     19  N   UNL     1       1.682   3.223  18.067  0.00  0.00    +0.000 N 
ATOM     20  H   UNL     1       1.109   3.102  17.238  0.00  0.00    +0.000 HD
BRANCH  17  21
ATOM     21  C   UNL     1       1.978   2.930  21.635  0.00  0.00    +0.000 C 
ATOM     22  F   UNL     1       2.853   1.974  22.055  0.00  0.00    +0.000 F 
ATOM     23  F   UNL     1       2.231   4.037  22.376  0.00  0.00    +0.000 F 
ATOM     24  F   UNL     1       0.739   2.488  21.970  0.00  0.00    +0.000 F 
ENDBRANCH  17  21
ENDBRANCH   3  15
TORSDOF 4
ENDMDL
MODEL 6
REMARK VINA RESULT:      -7.1      4.614      6.975
REMARK  Name = 
REMARK  6 active torsions:
REMARK  status: ('A' for Active; 'I' for Inactive)
REMARK    1  A    between atoms: C_1  and  N_2
REMARK    2  A    between atoms: N_2  and  C_3
REMARK    3  A    between atoms: C_5  and  C_6
REMARK    4  A    between atoms: C_9  and  C_10
REMARK    5  A    between atoms: N_12  and  C_13
REMARK    6  A    between atoms: C_15  and  C_16
REMARK                            x       y       z     vdW  Elec       q    Type
REMARK                         _______ _______ _______ _____ _____    ______ ____
ROOT
ATOM      1  C   UNL     1       1.568   7.957  20.214  0.00  0.00    +0.000 C 
ATOM      2  O   UNL     1       2.181   8.253  19.197  0.00  0.00    +0.000 OA
ATOM      3  N   UNL     1       1.669   6.642  20.779  0.00  0.00    +0.000 N 
ATOM      4  H   UNL     1       1.149   6.477  21.644  0.00  0.00    +0.000 HD
ENDROOT
BRANCH   1  11
ATOM      5  C   UNL     1       0.031   9.961  20.224  0.00  0.00    +0.000 A 
ATOM      6  N   UNL     1      -0.661  10.900  20.909  0.00  0.00    +0.000 NA
ATOM      7  C   UNL     1      -0.694  10.849  22.266  0.00  0.00    +0.000 A 
ATOM      8  C   UNL     1      -1.365  11.978  22.989  0.00  0.00    +0.000 C 
ATOM      9  C   UNL     1      -0.089   9.833  22.988  0.00  0.00    +0.000 A 
ATOM     10  C   UNL     1       0.633   8.875  22.292  0.00  0.00    +0.000 A 
ATOM     11  C   UNL     1       0.724   8.953  20.896  0.00  0.00    +0.000 A 
BRANCH   5  13
ATOM     12  C   UNL     1      -1.176  10.275  18.175  0.00  0.00    +0.000 C 
ATOM     13  N   UNL     1       0.138  10.097  18.812  0.00  0.00    +0.000 N 
ATOM     14  H   UNL     1       0.667  10.966  18.670  0.00  0.00    +0.000 HD
ENDBRANCH   5  13
ENDBRANCH   1  11
BRANCH   3  15
ATOM     15  C   UNL     1       2.364   5.602  20.176  0.00  0.00    +0.000 A 
ATOM     16  C   UNL     1       1.906   4.361  19.799  0.00  0.00    +0.000 A 
ATOM     17  C   UNL     1       3.040   3.649  19.321  0.00  0.00    +0.000 A 
ATOM     18  N   UNL     1       4.136   4.434  19.354  0.00  0.00    +0.000 NA
ATOM     19  N   UNL     1       3.697   5.600  19.859  0.00  0.00    +0.000 N 
ATOM     20  H   UNL     1       4.368   6.354  19.961  0.00  0.00    +0.000 HD
BRANCH  17  21
ATOM     21  C   UNL     1       3.054   2.209  18.866  0.00  0.00    +0.000 C 
ATOM     22  F   UNL     1       1.932   1.551  19.273  0.00  0.00    +0.000 F 
ATOM     23  F   UNL     1       3.104   2.086  17.517  0.00  0.00    +0.000 F 
ATOM     24  F   UNL     1       4.107   1.521  19.378  0.00  0.00    +0.000 F 
ENDBRANCH  17  21
ENDBRANCH   3  15
TORSDOF 4
ENDMDL
MODEL 7
REMARK VINA RESULT:      -7.1      1.617      2.331
REMARK  Name = 
REMARK  6 active torsions:
REMARK  status: ('A' for Active; 'I' for Inactive)
REMARK    1  A    between atoms: C_1  and  N_2
REMARK    2  A    between atoms: N_2  and  C_3
REMARK    3  A    between atoms: C_5  and  C_6
REMARK    4  A    between atoms: C_9  and  C_10
REMARK    5  A    between atoms: N_12  and  C_13
REMARK    6  A    between atoms: C_15  and  C_16
REMARK                            x       y       z     vdW  Elec       q    Type
REMARK                         _______ _______ _______ _____ _____    ______ ____
ROOT
ATOM      1  C   UNL     1       5.153   3.955  18.223  0.00  0.00    +0.000 C 
ATOM      2  O   UNL     1       6.322   4.188  18.505  0.00  0.00    +0.000 OA
ATOM      3  N   UNL     1       4.719   3.912  16.857  0.00  0.00    +0.000 N 
ATOM      4  H   UNL     1       3.733   3.685  16.700  0.00  0.00    +0.000 HD
ENDROOT
BRANCH   1  11
ATOM      5  C   UNL     1       4.226   2.583  20.130  0.00  0.00    +0.000 A 
ATOM      6  N   UNL     1       3.245   2.348  21.032  0.00  0.00    +0.000 NA
ATOM      7  C   UNL     1       2.200   3.210  21.124  0.00  0.00    +0.000 A 
ATOM      8  C   UNL     1       1.075   2.845  22.045  0.00  0.00    +0.000 C 
ATOM      9  C   UNL     1       2.119   4.366  20.365  0.00  0.00    +0.000 A 
ATOM     10  C   UNL     1       3.115   4.607  19.430  0.00  0.00    +0.000 A 
ATOM     11  C   UNL     1       4.166   3.692  19.285  0.00  0.00    +0.000 A 
BRANCH   5  13
ATOM     12  C   UNL     1       5.477   0.850  21.219  0.00  0.00    +0.000 C 
ATOM     13  N   UNL     1       5.253   1.611  19.980  0.00  0.00    +0.000 N 
ATOM     14  H   UNL     1       4.893   0.953  19.278  0.00  0.00    +0.000 HD
ENDBRANCH   5  13
ENDBRANCH   1  11
BRANCH   3  15
ATOM     15  C   UNL     1       5.540   4.227  15.783  0.00  0.00    +0.000 A 
ATOM     16  C   UNL     1       5.405   3.874  14.460  0.00  0.00    +0.000 A 
ATOM     17  C   UNL     1       6.561   4.370  13.798  0.00  0.00    +0.000 A 
ATOM     18  N   UNL     1       7.347   5.041  14.664  0.00  0.00    +0.000 NA
ATOM     19  N   UNL     1       6.703   4.949  15.841  0.00  0.00    +0.000 N 
ATOM     20  H   UNL     1       7.120   5.404  16.646  0.00  0.00    +0.000 HD
BRANCH  17  21
ATOM     21  C   UNL     1       6.906   4.161  12.342  0.00  0.00    +0.000 C 
ATOM     22  F   UNL     1       5.787   4.155  11.565  0.00  0.00    +0.000 F 
ATOM     23  F   UNL     1       7.711   5.135  11.850  0.00  0.00    +0.000 F 
ATOM     24  F   UNL     1       7.525   2.972  12.129  0.00  0.00    +0.000 F 
ENDBRANCH  17  21
ENDBRANCH   3  15
TORSDOF 4
ENDMDL
MODEL 8
REMARK VINA RESULT:      -7.0      4.347      6.680
REMARK  Name = 
REMARK  6 active torsions:
REMARK  status: ('A' for Active; 'I' for Inactive)
REMARK    1  A    between atoms: C_1  and  N_2
REMARK    2  A    between atoms: N_2  and  C_3
REMARK    3  A    between atoms: C_5  and  C_6
REMARK    4  A    between atoms: C_9  and  C_10
REMARK    5  A    between atoms: N_12  and  C_13
REMARK    6  A    between atoms: C_15  and  C_16
REMARK                            x       y       z     vdW  Elec       q    Type
REMARK                         _______ _______ _______ _____ _____    ______ ____
ROOT
ATOM      1  C   UNL     1       1.687   7.981  20.038  0.00  0.00    +0.000 C 
ATOM      2  O   UNL     1       2.253   8.334  19.012  0.00  0.00    +0.000 OA
ATOM      3  N   UNL     1       1.864   6.656  20.559  0.00  0.00    +0.000 N 
ATOM      4  H   UNL     1       1.380   6.444  21.436  0.00  0.00    +0.000 HD
ENDROOT
BRANCH   1  11
ATOM      5  C   UNL     1       0.038   9.891  20.155  0.00  0.00    +0.000 A 
ATOM      6  N   UNL     1      -0.671  10.779  20.888  0.00  0.00    +0.000 NA
ATOM      7  C   UNL     1      -0.629  10.713  22.244  0.00  0.00    +0.000 A 
ATOM      8  C   UNL     1      -1.326  11.792  23.017  0.00  0.00    +0.000 C 
ATOM      9  C   UNL     1       0.072   9.727  22.920  0.00  0.00    +0.000 A 
ATOM     10  C   UNL     1       0.811   8.821  22.175  0.00  0.00    +0.000 A 
ATOM     11  C   UNL     1       0.823   8.918  20.777  0.00  0.00    +0.000 A 
BRANCH   5  13
ATOM     12  C   UNL     1      -1.271  10.353  18.199  0.00  0.00    +0.000 C 
ATOM     13  N   UNL     1       0.062  10.047  18.742  0.00  0.00    +0.000 N 
ATOM     14  H   UNL     1       0.655  10.870  18.578  0.00  0.00    +0.000 HD
ENDBRANCH   5  13
ENDBRANCH   1  11
BRANCH   3  15
ATOM     15  C   UNL     1       2.584   5.666  19.904  0.00  0.00    +0.000 A 
ATOM     16  C   UNL     1       2.117   4.553  19.244  0.00  0.00    +0.000 A 
ATOM     17  C   UNL     1       3.268   3.823  18.838  0.00  0.00    +0.000 A 
ATOM     18  N   UNL     1       4.391   4.483  19.187  0.00  0.00    +0.000 NA
ATOM     19  N   UNL     1       3.948   5.588  19.813  0.00  0.00    +0.000 N 
ATOM     20  H   UNL     1       4.639   6.247  20.154  0.00  0.00    +0.000 HD
BRANCH  17  21
ATOM     21  C   UNL     1       3.266   2.481  18.145  0.00  0.00    +0.000 C 
ATOM     22  F   UNL     1       4.227   2.421  17.181  0.00  0.00    +0.000 F 
ATOM     23  F   UNL     1       3.507   1.452  18.994  0.00  0.00    +0.000 F 
ATOM     24  F   UNL     1       2.086   2.229  17.523  0.00  0.00    +0.000 F 
ENDBRANCH  17  21
ENDBRANCH   3  15
TORSDOF 4
ENDMDL
MODEL 9
REMARK VINA RESULT:      -6.9      1.232      1.520
REMARK  Name = 
REMARK  6 active torsions:
REMARK  status: ('A' for Active; 'I' for Inactive)
REMARK    1  A    between atoms: C_1  and  N_2
REMARK    2  A    between atoms: N_2  and  C_3
REMARK    3  A    between atoms: C_5  and  C_6
REMARK    4  A    between atoms: C_9  and  C_10
REMARK    5  A    between atoms: N_12  and  C_13
REMARK    6  A    between atoms: C_15  and  C_16
REMARK                            x       y       z     vdW  Elec       q    Type
REMARK                         _______ _______ _______ _____ _____    ______ ____
ROOT
ATOM      1  C   UNL     1       4.378   4.957  17.057  0.00  0.00    +0.000 C 
ATOM      2  O   UNL     1       4.262   6.110  16.662  0.00  0.00    +0.000 OA
ATOM      3  N   UNL     1       5.267   4.040  16.404  0.00  0.00    +0.000 N 
ATOM      4  H   UNL     1       5.330   3.102  16.807  0.00  0.00    +0.000 HD
ENDROOT
BRANCH   1  11
ATOM      5  C   UNL     1       4.221   3.963  19.373  0.00  0.00    +0.000 A 
ATOM      6  N   UNL     1       3.472   3.469  20.385  0.00  0.00    +0.000 NA
ATOM      7  C   UNL     1       2.117   3.499  20.289  0.00  0.00    +0.000 A 
ATOM      8  C   UNL     1       1.328   2.828  21.374  0.00  0.00    +0.000 C 
ATOM      9  C   UNL     1       1.458   4.071  19.213  0.00  0.00    +0.000 A 
ATOM     10  C   UNL     1       2.221   4.567  18.168  0.00  0.00    +0.000 A 
ATOM     11  C   UNL     1       3.618   4.487  18.228  0.00  0.00    +0.000 A 
BRANCH   5  13
ATOM     12  C   UNL     1       6.314   5.128  19.491  0.00  0.00    +0.000 C 
ATOM     13  N   UNL     1       5.634   3.825  19.450  0.00  0.00    +0.000 N 
ATOM     14  H   UNL     1       5.805   3.362  20.352  0.00  0.00    +0.000 HD
ENDBRANCH   5  13
ENDBRANCH   1  11
BRANCH   3  15
ATOM     15  C   UNL     1       5.965   4.347  15.243  0.00  0.00    +0.000 A 
ATOM     16  C   UNL     1       5.738   3.913  13.958  0.00  0.00    +0.000 A 
ATOM     17  C   UNL     1       6.794   4.444  13.168  0.00  0.00    +0.000 A 
ATOM     18  N   UNL     1       7.604   5.213  13.923  0.00  0.00    +0.000 NA
ATOM     19  N   UNL     1       7.075   5.144  15.158  0.00  0.00    +0.000 N 
ATOM     20  H   UNL     1       7.530   5.670  15.897  0.00  0.00    +0.000 HD
BRANCH  17  21
ATOM     21  C   UNL     1       7.021   4.177  11.699  0.00  0.00    +0.000 C 
ATOM     22  F   UNL     1       5.847   3.929  11.054  0.00  0.00    +0.000 F 
ATOM     23  F   UNL     1       7.597   5.226  11.059  0.00  0.00    +0.000 F 
ATOM     24  F   UNL     1       7.808   3.091  11.492  0.00  0.00    +0.000 F 
ENDBRANCH  17  21
ENDBRANCH   3  15
TORSDOF 4
ENDMDL
