MODEL 1
REMARK VINA RESULT:      -7.4      0.000      0.000
REMARK  Name = 
REMARK  7 active torsions:
REMARK  status: ('A' for Active; 'I' for Inactive)
REMARK    1  A    between atoms: C_1  and  O_2
REMARK    2  A    between atoms: O_2  and  C_3
REMARK    3  A    between atoms: N_10  and  C_11
REMARK    4  A    between atoms: C_11  and  C_12
REMARK    5  A    between atoms: C_11  and  C_13
REMARK    6  A    between atoms: C_21  and  O_22
REMARK    7  A    between atoms: O_22  and  C_23
REMARK                            x       y       z     vdW  Elec       q    Type
REMARK                         _______ _______ _______ _____ _____    ______ ____
ROOT
ATOM      1  C   UNL     1       6.336   5.027  16.253  0.00  0.00    +0.000 A 
ATOM      2  C   UNL     1       5.226   4.207  16.525  0.00  0.00    +0.000 A 
ATOM      3  C   UNL     1       4.096   4.681  17.172  0.00  0.00    +0.000 A 
ATOM      4  N   UNL     1       3.027   3.880  17.281  0.00  0.00    +0.000 NA
ATOM      5  C   UNL     1       1.932   4.424  17.824  0.00  0.00    +0.000 A 
ATOM      6  N   UNL     1       1.804   5.678  18.275  0.00  0.00    +0.000 NA
ATOM      7  C   UNL     1       2.891   6.460  18.184  0.00  0.00    +0.000 A 
ATOM      8  N   UNL     1       2.838   7.773  18.683  0.00  0.00    +0.000 N 
ATOM      9  C   UNL     1       4.100   5.992  17.647  0.00  0.00    +0.000 A 
ATOM     10  C   UNL     1       5.265   6.777  17.500  0.00  0.00    +0.000 A 
ATOM     11  C   UNL     1       6.384   6.312  16.802  0.00  0.00    +0.000 A 
ATOM     12  H   UNL     1       3.192   7.756  19.636  0.00  0.00    +0.000 HD
ENDROOT
BRANCH   1  14
ATOM     13  C   UNL     1       7.229   4.861  14.071  0.00  0.00    +0.000 C 
ATOM     14  O   UNL     1       7.363   4.574  15.466  0.00  0.00    +0.000 OA
ENDBRANCH   1  14
BRANCH   8  15
ATOM     15  C   UNL     1       1.556   8.467  18.562  0.00  0.00    +0.000 C 
ATOM     16  C   UNL     1       1.769   9.671  17.632  0.00  0.00    +0.000 C 
BRANCH  15  17
ATOM     17  C   UNL     1       1.049   8.920  19.920  0.00  0.00    +0.000 A 
ATOM     18  C   UNL     1       0.095   9.946  20.000  0.00  0.00    +0.000 A 
ATOM     19  C   UNL     1      -0.333  10.425  21.240  0.00  0.00    +0.000 A 
ATOM     20  C   UNL     1       0.178   9.879  22.416  0.00  0.00    +0.000 A 
ATOM     21  C   UNL     1       1.109   8.845  22.353  0.00  0.00    +0.000 A 
ATOM     22  C   UNL     1       1.541   8.366  21.116  0.00  0.00    +0.000 A 
ENDBRANCH  15  17
ENDBRANCH   8  15
BRANCH  11  23
ATOM     23  O   UNL     1       7.366   7.258  16.726  0.00  0.00    +0.000 OA
ATOM     24  C   UNL     1       7.921   7.786  17.919  0.00  0.00    +0.000 C 
ENDBRANCH  11  23
TORSDOF 4
ENDMDL
MODEL 2
REMARK VINA RESULT:      -7.3      0.113      1.006
REMARK  Name = 
REMARK  7 active torsions:
REMARK  status: ('A' for Active; 'I' for Inactive)
REMARK    1  A    between atoms: C_1  and  O_2
REMARK    2  A    between atoms: O_2  and  C_3
REMARK    3  A    between atoms: N_10  and  C_11
REMARK    4  A    between atoms: C_11  and  C_12
REMARK    5  A    between atoms: C_11  and  C_13
REMARK    6  A    between atoms: C_21  and  O_22
REMARK    7  A    between atoms: O_22  and  C_23
REMARK                            x       y       z     vdW  Elec       q    Type
REMARK                         _______ _______ _______ _____ _____    ______ ____
ROOT
ATOM      1  C   UNL     1       6.367   5.043  16.234  0.00  0.00    +0.000 A 
ATOM      2  C   UNL     1       5.268   4.207  16.502  0.00  0.00    +0.000 A 
ATOM      3  C   UNL     1       4.135   4.659  17.160  0.00  0.00    +0.000 A 
ATOM      4  N   UNL     1       3.077   3.844  17.265  0.00  0.00    +0.000 NA
ATOM      5  C   UNL     1       1.978   4.368  17.819  0.00  0.00    +0.000 A 
ATOM      6  N   UNL     1       1.836   5.615  18.284  0.00  0.00    +0.000 NA
ATOM      7  C   UNL     1       2.912   6.412  18.196  0.00  0.00    +0.000 A 
ATOM      8  N   UNL     1       2.845   7.719  18.710  0.00  0.00    +0.000 N 
ATOM      9  C   UNL     1       4.125   5.965  17.649  0.00  0.00    +0.000 A 
ATOM     10  C   UNL     1       5.279   6.766  17.505  0.00  0.00    +0.000 A 
ATOM     11  C   UNL     1       6.400   6.322  16.797  0.00  0.00    +0.000 A 
ATOM     12  H   UNL     1       3.203   7.696  19.661  0.00  0.00    +0.000 HD
ENDROOT
BRANCH   1  14
ATOM     13  C   UNL     1       7.185   4.782  14.033  0.00  0.00    +0.000 C 
ATOM     14  O   UNL     1       7.395   4.612  15.439  0.00  0.00    +0.000 OA
ENDBRANCH   1  14
BRANCH   8  15
ATOM     15  C   UNL     1       1.554   8.397  18.601  0.00  0.00    +0.000 C 
ATOM     16  C   UNL     1       1.706   9.517  17.561  0.00  0.00    +0.000 C 
BRANCH  15  17
ATOM     17  C   UNL     1       1.122   8.966  19.942  0.00  0.00    +0.000 A 
ATOM     18  C   UNL     1       1.476   8.302  21.126  0.00  0.00    +0.000 A 
ATOM     19  C   UNL     1       1.031   8.770  22.365  0.00  0.00    +0.000 A 
ATOM     20  C   UNL     1       0.237   9.912  22.438  0.00  0.00    +0.000 A 
ATOM     21  C   UNL     1      -0.103  10.596  21.273  0.00  0.00    +0.000 A 
ATOM     22  C   UNL     1       0.337  10.129  20.034  0.00  0.00    +0.000 A 
ENDBRANCH  15  17
ENDBRANCH   8  15
BRANCH  11  23
ATOM     23  O   UNL     1       7.371   7.282  16.727  0.00  0.00    +0.000 OA
ATOM     24  C   UNL     1       7.919   7.809  17.923  0.00  0.00    +0.000 C 
ENDBRANCH  11  23
TORSDOF 4
ENDMDL
MODEL 3
REMARK VINA RESULT:      -7.2      2.633      7.455
REMARK  Name = 
REMARK  7 active torsions:
REMARK  status: ('A' for Active; 'I' for Inactive)
REMARK    1  A    between atoms: C_1  and  O_2
REMARK    2  A    between atoms: O_2  and  C_3
REMARK    3  A    between atoms: N_10  and  C_11
REMARK    4  A    between atoms: C_11  and  C_12
REMARK    5  A    between atoms: C_11  and  C_13
REMARK    6  A    between atoms: C_21  and  O_22
REMARK    7  A    between atoms: O_22  and  C_23
REMARK                            x       y       z     vdW  Elec       q    Type
REMARK                         _______ _______ _______ _____ _____    ______ ____
ROOT
ATOM      1  C   UNL     1       1.874   7.444  20.125  0.00  0.00    +0.000 A 
ATOM      2  C   UNL     1       2.056   6.094  20.477  0.00  0.00    +0.000 A 
ATOM      3  C   UNL     1       2.829   5.228  19.720  0.00  0.00    +0.000 A 
ATOM      4  N   UNL     1       3.064   3.993  20.185  0.00  0.00    +0.000 NA
ATOM      5  C   UNL     1       3.899   3.238  19.462  0.00  0.00    +0.000 A 
ATOM      6  N   UNL     1       4.511   3.588  18.325  0.00  0.00    +0.000 NA
ATOM      7  C   UNL     1       4.246   4.818  17.858  0.00  0.00    +0.000 A 
ATOM      8  N   UNL     1       4.818   5.231  16.642  0.00  0.00    +0.000 N 
ATOM      9  C   UNL     1       3.372   5.693  18.522  0.00  0.00    +0.000 A 
ATOM     10  C   UNL     1       3.077   7.006  18.094  0.00  0.00    +0.000 A 
ATOM     11  C   UNL     1       2.339   7.891  18.885  0.00  0.00    +0.000 A 
ATOM     12  H   UNL     1       4.147   5.037  15.903  0.00  0.00    +0.000 HD
ENDROOT
BRANCH   1  14
ATOM     13  C   UNL     1      -0.121   7.991  21.266  0.00  0.00    +0.000 C 
ATOM     14  O   UNL     1       1.244   8.310  20.980  0.00  0.00    +0.000 OA
ENDBRANCH   1  14
BRANCH   8  15
ATOM     15  C   UNL     1       6.158   4.726  16.346  0.00  0.00    +0.000 C 
ATOM     16  C   UNL     1       7.168   5.728  16.926  0.00  0.00    +0.000 C 
BRANCH  15  17
ATOM     17  C   UNL     1       6.362   4.563  14.850  0.00  0.00    +0.000 A 
ATOM     18  C   UNL     1       5.506   3.725  14.118  0.00  0.00    +0.000 A 
ATOM     19  C   UNL     1       5.718   3.508  12.755  0.00  0.00    +0.000 A 
ATOM     20  C   UNL     1       6.779   4.132  12.103  0.00  0.00    +0.000 A 
ATOM     21  C   UNL     1       7.624   4.984  12.810  0.00  0.00    +0.000 A 
ATOM     22  C   UNL     1       7.417   5.201  14.173  0.00  0.00    +0.000 A 
ENDBRANCH  15  17
ENDBRANCH   8  15
BRANCH  11  23
ATOM     23  O   UNL     1       2.233   9.124  18.306  0.00  0.00    +0.000 OA
ATOM     24  C   UNL     1       0.963   9.591  17.883  0.00  0.00    +0.000 C 
ENDBRANCH  11  23
TORSDOF 4
ENDMDL
MODEL 4
REMARK VINA RESULT:      -7.2      2.607      7.462
REMARK  Name = 
REMARK  7 active torsions:
REMARK  status: ('A' for Active; 'I' for Inactive)
REMARK    1  A    between atoms: C_1  and  O_2
REMARK    2  A    between atoms: O_2  and  C_3
REMARK    3  A    between atoms: N_10  and  C_11
REMARK    4  A    between atoms: C_11  and  C_12
REMARK    5  A    between atoms: C_11  and  C_13
REMARK    6  A    between atoms: C_21  and  O_22
REMARK    7  A    between atoms: O_22  and  C_23
REMARK                            x       y       z     vdW  Elec       q    Type
REMARK                         _______ _______ _______ _____ _____    ______ ____
ROOT
ATOM      1  C   UNL     1       2.025   7.195  20.083  0.00  0.00    +0.000 A 
ATOM      2  C   UNL     1       2.048   5.825  20.404  0.00  0.00    +0.000 A 
ATOM      3  C   UNL     1       2.729   4.896  19.634  0.00  0.00    +0.000 A 
ATOM      4  N   UNL     1       2.817   3.632  20.070  0.00  0.00    +0.000 NA
ATOM      5  C   UNL     1       3.572   2.804  19.339  0.00  0.00    +0.000 A 
ATOM      6  N   UNL     1       4.235   3.110  18.218  0.00  0.00    +0.000 NA
ATOM      7  C   UNL     1       4.117   4.372  17.779  0.00  0.00    +0.000 A 
ATOM      8  N   UNL     1       4.749   4.746  16.580  0.00  0.00    +0.000 N 
ATOM      9  C   UNL     1       3.338   5.324  18.454  0.00  0.00    +0.000 A 
ATOM     10  C   UNL     1       3.200   6.672  18.056  0.00  0.00    +0.000 A 
ATOM     11  C   UNL     1       2.555   7.616  18.860  0.00  0.00    +0.000 A 
ATOM     12  H   UNL     1       4.072   4.646  15.828  0.00  0.00    +0.000 HD
ENDROOT
BRANCH   1  14
ATOM     13  C   UNL     1       0.061   8.048  21.082  0.00  0.00    +0.000 C 
ATOM     14  O   UNL     1       1.485   8.106  20.952  0.00  0.00    +0.000 OA
ENDBRANCH   1  14
BRANCH   8  15
ATOM     15  C   UNL     1       6.028   4.099  16.287  0.00  0.00    +0.000 C 
ATOM     16  C   UNL     1       7.111   4.835  17.090  0.00  0.00    +0.000 C 
BRANCH  15  17
ATOM     17  C   UNL     1       6.336   4.147  14.800  0.00  0.00    +0.000 A 
ATOM     18  C   UNL     1       7.384   4.954  14.333  0.00  0.00    +0.000 A 
ATOM     19  C   UNL     1       7.641   5.066  12.964  0.00  0.00    +0.000 A 
ATOM     20  C   UNL     1       6.861   4.366  12.046  0.00  0.00    +0.000 A 
ATOM     21  C   UNL     1       5.831   3.543  12.496  0.00  0.00    +0.000 A 
ATOM     22  C   UNL     1       5.570   3.431  13.862  0.00  0.00    +0.000 A 
ENDBRANCH  15  17
ENDBRANCH   8  15
BRANCH  11  23
ATOM     23  O   UNL     1       2.597   8.867  18.311  0.00  0.00    +0.000 OA
ATOM     24  C   UNL     1       1.400   9.465  17.845  0.00  0.00    +0.000 C 
ENDBRANCH  11  23
TORSDOF 4
ENDMDL
MODEL 5
REMARK VINA RESULT:      -6.9      2.582      7.375
REMARK  Name = 
REMARK  7 active torsions:
REMARK  status: ('A' for Active; 'I' for Inactive)
REMARK    1  A    between atoms: C_1  and  O_2
REMARK    2  A    between atoms: O_2  and  C_3
REMARK    3  A    between atoms: N_10  and  C_11
REMARK    4  A    between atoms: C_11  and  C_12
REMARK    5  A    between atoms: C_11  and  C_13
REMARK    6  A    between atoms: C_21  and  O_22
REMARK    7  A    between atoms: O_22  and  C_23
REMARK                            x       y       z     vdW  Elec       q    Type
REMARK                         _______ _______ _______ _____ _____    ______ ____
ROOT
ATOM      1  C   UNL     1       1.650   8.557  19.522  0.00  0.00    +0.000 A 
ATOM      2  C   UNL     1       1.823   7.293  20.114  0.00  0.00    +0.000 A 
ATOM      3  C   UNL     1       2.622   6.312  19.548  0.00  0.00    +0.000 A 
ATOM      4  N   UNL     1       2.845   5.182  20.233  0.00  0.00    +0.000 NA
ATOM      5  C   UNL     1       3.704   4.316  19.683  0.00  0.00    +0.000 A 
ATOM      6  N   UNL     1       4.351   4.463  18.522  0.00  0.00    +0.000 NA
ATOM      7  C   UNL     1       4.099   5.588  17.835  0.00  0.00    +0.000 A 
ATOM      8  N   UNL     1       4.710   5.783  16.583  0.00  0.00    +0.000 N 
ATOM      9  C   UNL     1       3.202   6.560  18.305  0.00  0.00    +0.000 A 
ATOM     10  C   UNL     1       2.920   7.774  17.640  0.00  0.00    +0.000 A 
ATOM     11  C   UNL     1       2.154   8.780  18.237  0.00  0.00    +0.000 A 
ATOM     12  H   UNL     1       4.064   5.455  15.870  0.00  0.00    +0.000 HD
ENDROOT
BRANCH   1  14
ATOM     13  C   UNL     1      -0.390   9.704  19.845  0.00  0.00    +0.000 C 
ATOM     14  O   UNL     1       0.991   9.557  20.188  0.00  0.00    +0.000 OA
ENDBRANCH   1  14
BRANCH   8  15
ATOM     15  C   UNL     1       6.060   5.243  16.425  0.00  0.00    +0.000 C 
ATOM     16  C   UNL     1       7.048   6.345  16.834  0.00  0.00    +0.000 C 
BRANCH  15  17
ATOM     17  C   UNL     1       6.308   4.804  14.992  0.00  0.00    +0.000 A 
ATOM     18  C   UNL     1       7.424   5.294  14.298  0.00  0.00    +0.000 A 
ATOM     19  C   UNL     1       7.634   4.958  12.958  0.00  0.00    +0.000 A 
ATOM     20  C   UNL     1       6.737   4.121  12.299  0.00  0.00    +0.000 A 
ATOM     21  C   UNL     1       5.636   3.607  12.981  0.00  0.00    +0.000 A 
ATOM     22  C   UNL     1       5.423   3.944  14.318  0.00  0.00    +0.000 A 
ENDBRANCH  15  17
ENDBRANCH   8  15
BRANCH  11  23
ATOM     23  O   UNL     1       2.065   9.890  17.444  0.00  0.00    +0.000 OA
ATOM     24  C   UNL     1       2.450  11.151  17.963  0.00  0.00    +0.000 C 
ENDBRANCH  11  23
TORSDOF 4
ENDMDL
MODEL 6
REMARK VINA RESULT:      -6.8      2.969      6.107
REMARK  Name = 
REMARK  7 active torsions:
REMARK  status: ('A' for Active; 'I' for Inactive)
REMARK    1  A    between atoms: C_1  and  O_2
REMARK    2  A    between atoms: O_2  and  C_3
REMARK    3  A    between atoms: N_10  and  C_11
REMARK    4  A    between atoms: C_11  and  C_12
REMARK    5  A    between atoms: C_11  and  C_13
REMARK    6  A    between atoms: C_21  and  O_22
REMARK    7  A    between atoms: O_22  and  C_23
REMARK                            x       y       z     vdW  Elec       q    Type
REMARK                         _______ _______ _______ _____ _____    ______ ____
ROOT
ATOM      1  C   UNL     1       2.678   4.681  17.722  0.00  0.00    +0.000 A 
ATOM      2  C   UNL     1       3.596   4.112  16.820  0.00  0.00    +0.000 A 
ATOM      3  C   UNL     1       4.814   4.705  16.529  0.00  0.00    +0.000 A 
ATOM      4  N   UNL     1       5.691   4.042  15.763  0.00  0.00    +0.000 NA
ATOM      5  C   UNL     1       6.888   4.617  15.599  0.00  0.00    +0.000 A 
ATOM      6  N   UNL     1       7.289   5.784  16.115  0.00  0.00    +0.000 NA
ATOM      7  C   UNL     1       6.391   6.449  16.859  0.00  0.00    +0.000 A 
ATOM      8  N   UNL     1       6.732   7.706  17.390  0.00  0.00    +0.000 N 
ATOM      9  C   UNL     1       5.099   5.952  17.084  0.00  0.00    +0.000 A 
ATOM     10  C   UNL     1       4.123   6.592  17.880  0.00  0.00    +0.000 A 
ATOM     11  C   UNL     1       2.917   5.969  18.212  0.00  0.00    +0.000 A 
ATOM     12  H   UNL     1       6.404   8.416  16.741  0.00  0.00    +0.000 HD
ENDROOT
BRANCH   1  14
ATOM     13  C   UNL     1       1.792   2.624  18.473  0.00  0.00    +0.000 C 
ATOM     14  O   UNL     1       1.562   3.990  18.113  0.00  0.00    +0.000 OA
ENDBRANCH   1  14
BRANCH   8  15
ATOM     15  C   UNL     1       8.129   7.891  17.782  0.00  0.00    +0.000 C 
ATOM     16  C   UNL     1       8.397   6.974  18.985  0.00  0.00    +0.000 C 
BRANCH  15  17
ATOM     17  C   UNL     1       8.408   9.341  18.139  0.00  0.00    +0.000 A 
ATOM     18  C   UNL     1       7.866  10.368  17.352  0.00  0.00    +0.000 A 
ATOM     19  C   UNL     1       8.165  11.706  17.621  0.00  0.00    +0.000 A 
ATOM     20  C   UNL     1       9.001  12.034  18.687  0.00  0.00    +0.000 A 
ATOM     21  C   UNL     1       9.528  11.027  19.492  0.00  0.00    +0.000 A 
ATOM     22  C   UNL     1       9.233   9.690  19.223  0.00  0.00    +0.000 A 
ENDBRANCH  15  17
ENDBRANCH   8  15
BRANCH  11  23
ATOM     23  O   UNL     1       2.156   6.742  19.043  0.00  0.00    +0.000 OA
ATOM     24  C   UNL     1       2.073   8.139  18.816  0.00  0.00    +0.000 C 
ENDBRANCH  11  23
TORSDOF 4
ENDMDL
MODEL 7
REMARK VINA RESULT:      -6.7      3.250      5.275
REMARK  Name = 
REMARK  7 active torsions:
REMARK  status: ('A' for Active; 'I' for Inactive)
REMARK    1  A    between atoms: C_1  and  O_2
REMARK    2  A    between atoms: O_2  and  C_3
REMARK    3  A    between atoms: N_10  and  C_11
REMARK    4  A    between atoms: C_11  and  C_12
REMARK    5  A    between atoms: C_11  and  C_13
REMARK    6  A    between atoms: C_21  and  O_22
REMARK    7  A    between atoms: O_22  and  C_23
REMARK                            x       y       z     vdW  Elec       q    Type
REMARK                         _______ _______ _______ _____ _____    ______ ____
ROOT
ATOM      1  C   UNL     1       6.723   3.986  12.468  0.00  0.00    +0.000 A 
ATOM      2  C   UNL     1       7.367   4.772  13.441  0.00  0.00    +0.000 A 
ATOM      3  C   UNL     1       6.870   4.914  14.727  0.00  0.00    +0.000 A 
ATOM      4  N   UNL     1       7.603   5.569  15.637  0.00  0.00    +0.000 NA
ATOM      5  C   UNL     1       7.121   5.587  16.885  0.00  0.00    +0.000 A 
ATOM      6  N   UNL     1       5.982   5.027  17.308  0.00  0.00    +0.000 NA
ATOM      7  C   UNL     1       5.245   4.396  16.380  0.00  0.00    +0.000 A 
ATOM      8  N   UNL     1       4.013   3.827  16.749  0.00  0.00    +0.000 N 
ATOM      9  C   UNL     1       5.642   4.328  15.036  0.00  0.00    +0.000 A 
ATOM     10  C   UNL     1       4.924   3.655  14.023  0.00  0.00    +0.000 A 
ATOM     11  C   UNL     1       5.452   3.471  12.743  0.00  0.00    +0.000 A 
ATOM     12  H   UNL     1       3.286   4.511  16.555  0.00  0.00    +0.000 HD
ENDROOT
BRANCH   1  14
ATOM     13  C   UNL     1       7.625   2.355  11.016  0.00  0.00    +0.000 C 
ATOM     14  O   UNL     1       7.325   3.732  11.264  0.00  0.00    +0.000 OA
ENDBRANCH   1  14
BRANCH   8  15
ATOM     15  C   UNL     1       3.930   3.271  18.099  0.00  0.00    +0.000 C 
ATOM     16  C   UNL     1       3.502   1.801  17.966  0.00  0.00    +0.000 C 
BRANCH  15  17
ATOM     17  C   UNL     1       2.935   4.045  18.948  0.00  0.00    +0.000 A 
ATOM     18  C   UNL     1       3.132   5.416  19.173  0.00  0.00    +0.000 A 
ATOM     19  C   UNL     1       2.268   6.131  20.005  0.00  0.00    +0.000 A 
ATOM     20  C   UNL     1       1.193   5.490  20.615  0.00  0.00    +0.000 A 
ATOM     21  C   UNL     1       0.971   4.134  20.383  0.00  0.00    +0.000 A 
ATOM     22  C   UNL     1       1.833   3.416  19.554  0.00  0.00    +0.000 A 
ENDBRANCH  15  17
ENDBRANCH   8  15
BRANCH  11  23
ATOM     23  O   UNL     1       4.617   2.737  11.948  0.00  0.00    +0.000 OA
ATOM     24  C   UNL     1       3.750   3.402  11.045  0.00  0.00    +0.000 C 
ENDBRANCH  11  23
TORSDOF 4
ENDMDL
MODEL 8
REMARK VINA RESULT:      -6.7      2.986      6.214
REMARK  Name = 
REMARK  7 active torsions:
REMARK  status: ('A' for Active; 'I' for Inactive)
REMARK    1  A    between atoms: C_1  and  O_2
REMARK    2  A    between atoms: O_2  and  C_3
REMARK    3  A    between atoms: N_10  and  C_11
REMARK    4  A    between atoms: C_11  and  C_12
REMARK    5  A    between atoms: C_11  and  C_13
REMARK    6  A    between atoms: C_21  and  O_22
REMARK    7  A    between atoms: O_22  and  C_23
REMARK                            x       y       z     vdW  Elec       q    Type
REMARK                         _______ _______ _______ _____ _____    ______ ____
ROOT
ATOM      1  C   UNL     1       2.627   5.017  17.783  0.00  0.00    +0.000 A 
ATOM      2  C   UNL     1       3.550   4.339  16.965  0.00  0.00    +0.000 A 
ATOM      3  C   UNL     1       4.802   4.857  16.676  0.00  0.00    +0.000 A 
ATOM      4  N   UNL     1       5.676   4.099  16.000  0.00  0.00    +0.000 NA
ATOM      5  C   UNL     1       6.902   4.611  15.837  0.00  0.00    +0.000 A 
ATOM      6  N   UNL     1       7.334   5.800  16.273  0.00  0.00    +0.000 NA
ATOM      7  C   UNL     1       6.440   6.559  16.926  0.00  0.00    +0.000 A 
ATOM      8  N   UNL     1       6.816   7.840  17.367  0.00  0.00    +0.000 N 
ATOM      9  C   UNL     1       5.120   6.133  17.140  0.00  0.00    +0.000 A 
ATOM     10  C   UNL     1       4.145   6.875  17.843  0.00  0.00    +0.000 A 
ATOM     11  C   UNL     1       2.902   6.329  18.176  0.00  0.00    +0.000 A 
ATOM     12  H   UNL     1       6.541   8.507  16.651  0.00  0.00    +0.000 HD
ENDROOT
BRANCH   1  14
ATOM     13  C   UNL     1       1.637   3.371  19.160  0.00  0.00    +0.000 C 
ATOM     14  O   UNL     1       1.468   4.405  18.184  0.00  0.00    +0.000 OA
ENDBRANCH   1  14
BRANCH   8  15
ATOM     15  C   UNL     1       8.204   8.000  17.797  0.00  0.00    +0.000 C 
ATOM     16  C   UNL     1       8.416   7.099  19.022  0.00  0.00    +0.000 C 
BRANCH  15  17
ATOM     17  C   UNL     1       8.506   9.450  18.138  0.00  0.00    +0.000 A 
ATOM     18  C   UNL     1       9.251   9.753  19.288  0.00  0.00    +0.000 A 
ATOM     19  C   UNL     1       9.481  11.080  19.658  0.00  0.00    +0.000 A 
ATOM     20  C   UNL     1       8.979  12.121  18.879  0.00  0.00    +0.000 A 
ATOM     21  C   UNL     1       8.258  11.836  17.722  0.00  0.00    +0.000 A 
ATOM     22  C   UNL     1       8.024  10.511  17.352  0.00  0.00    +0.000 A 
ENDBRANCH  15  17
ENDBRANCH   8  15
BRANCH  11  23
ATOM     23  O   UNL     1       2.146   7.198  18.913  0.00  0.00    +0.000 OA
ATOM     24  C   UNL     1       1.958   8.524  18.451  0.00  0.00    +0.000 C 
ENDBRANCH  11  23
TORSDOF 4
ENDMDL
MODEL 9
REMARK VINA RESULT:      -6.6      4.276      8.207
REMARK  Name = 
REMARK  7 active torsions:
REMARK  status: ('A' for Active; 'I' for Inactive)
REMARK    1  A    between atoms: C_1  and  O_2
REMARK    2  A    between atoms: O_2  and  C_3
REMARK    3  A    between atoms: N_10  and  C_11
REMARK    4  A    between atoms: C_11  and  C_12
REMARK    5  A    between atoms: C_11  and  C_13
REMARK    6  A    between atoms: C_21  and  O_22
REMARK    7  A    between atoms: O_22  and  C_23
REMARK                            x       y       z     vdW  Elec       q    Type
REMARK                         _______ _______ _______ _____ _____    ______ ____
ROOT
ATOM      1  C   UNL     1       3.184   4.567  19.497  0.00  0.00    +0.000 A 
ATOM      2  C   UNL     1       4.530   4.894  19.746  0.00  0.00    +0.000 A 
ATOM      3  C   UNL     1       5.524   4.711  18.798  0.00  0.00    +0.000 A 
ATOM      4  N   UNL     1       6.758   5.165  19.056  0.00  0.00    +0.000 NA
ATOM      5  C   UNL     1       7.651   5.052  18.066  0.00  0.00    +0.000 A 
ATOM      6  N   UNL     1       7.435   4.525  16.855  0.00  0.00    +0.000 NA
ATOM      7  C   UNL     1       6.202   4.051  16.619  0.00  0.00    +0.000 A 
ATOM      8  N   UNL     1       5.923   3.441  15.383  0.00  0.00    +0.000 N 
ATOM      9  C   UNL     1       5.190   4.100  17.589  0.00  0.00    +0.000 A 
ATOM     10  C   UNL     1       3.868   3.644  17.389  0.00  0.00    +0.000 A 
ATOM     11  C   UNL     1       2.858   3.875  18.327  0.00  0.00    +0.000 A 
ATOM     12  H   UNL     1       6.057   2.440  15.496  0.00  0.00    +0.000 HD
ENDROOT
BRANCH   1  14
ATOM     13  C   UNL     1       2.107   4.067  21.540  0.00  0.00    +0.000 C 
ATOM     14  O   UNL     1       2.205   4.914  20.390  0.00  0.00    +0.000 OA
ENDBRANCH   1  14
BRANCH   8  15
ATOM     15  C   UNL     1       6.618   3.984  14.216  0.00  0.00    +0.000 C 
ATOM     16  C   UNL     1       6.454   5.511  14.250  0.00  0.00    +0.000 C 
BRANCH  15  17
ATOM     17  C   UNL     1       6.051   3.411  12.928  0.00  0.00    +0.000 A 
ATOM     18  C   UNL     1       4.748   3.750  12.531  0.00  0.00    +0.000 A 
ATOM     19  C   UNL     1       4.182   3.182  11.388  0.00  0.00    +0.000 A 
ATOM     20  C   UNL     1       4.913   2.277  10.621  0.00  0.00    +0.000 A 
ATOM     21  C   UNL     1       6.216   1.949  10.989  0.00  0.00    +0.000 A 
ATOM     22  C   UNL     1       6.783   2.513  12.132  0.00  0.00    +0.000 A 
ENDBRANCH  15  17
ENDBRANCH   8  15
BRANCH  11  23
ATOM     23  O   UNL     1       1.648   3.407  17.898  0.00  0.00    +0.000 OA
ATOM     24  C   UNL     1       1.048   2.308  18.564  0.00  0.00    +0.000 C 
ENDBRANCH  11  23
TORSDOF 4
ENDMDL
