MODEL 1
REMARK VINA RESULT:      -7.7      0.000      0.000
REMARK  Name = 
REMARK  4 active torsions:
REMARK  status: ('A' for Active; 'I' for Inactive)
REMARK    1  A    between atoms: C_1  and  C_2
REMARK    2  A    between atoms: C_2  and  C_3
REMARK    3  A    between atoms: N_5  and  N_6
REMARK    4  A    between atoms: N_9  and  C_10
REMARK                            x       y       z     vdW  Elec       q    Type
REMARK                         _______ _______ _______ _____ _____    ______ ____
ROOT
ATOM      1  C   UNL     1       2.366   2.262  18.100  0.00  0.00    +0.000 C 
ATOM      2  C   UNL     1       3.121   3.566  18.396  0.00  0.00    +0.000 C 
ATOM      3  C   UNL     1       3.229   3.729  19.921  0.00  0.00    +0.000 C 
ATOM      4  C   UNL     1       2.370   4.711  17.710  0.00  0.00    +0.000 C 
ATOM      5  N   UNL     1       3.051   6.012  17.867  0.00  0.00    +0.000 N 
ATOM      6  C   UNL     1       4.470   5.895  17.801  0.00  0.00    +0.000 A 
ATOM      7  C   UNL     1       5.304   7.021  17.747  0.00  0.00    +0.000 A 
ATOM      8  C   UNL     1       6.690   6.877  17.567  0.00  0.00    +0.000 A 
ATOM      9 CL   UNL     1       7.691   8.277  17.498  0.00  0.00    +0.000 Cl
ATOM     10  C   UNL     1       7.273   5.621  17.424  0.00  0.00    +0.000 A 
ATOM     11  C   UNL     1       6.471   4.489  17.490  0.00  0.00    +0.000 A 
ATOM     12  C   UNL     1       5.095   4.625  17.699  0.00  0.00    +0.000 A 
ATOM     13  O   UNL     1       4.428   3.428  17.818  0.00  0.00    +0.000 OA
ENDROOT
BRANCH   5  14
ATOM     14  N   UNL     1       2.507   6.950  18.802  0.00  0.00    +0.000 N 
ATOM     15  C   UNL     1       2.050   8.194  18.351  0.00  0.00    +0.000 C 
ATOM     16  O   UNL     1       1.902   8.508  17.174  0.00  0.00    +0.000 OA
ATOM     17  N   UNL     1       1.737   9.063  19.389  0.00  0.00    +0.000 N 
ATOM     18  H   UNL     1       2.851   6.876  19.750  0.00  0.00    +0.000 HD
ATOM     19  H   UNL     1       2.480   9.147  20.067  0.00  0.00    +0.000 HD
BRANCH  17  20
ATOM     20  C   UNL     1       1.020  10.256  19.105  0.00  0.00    +0.000 A 
ATOM     21  C   UNL     1      -0.369  10.206  18.956  0.00  0.00    +0.000 A 
ATOM     22  C   UNL     1      -1.092  11.378  18.709  0.00  0.00    +0.000 A 
ATOM     23  C   UNL     1      -0.426  12.595  18.557  0.00  0.00    +0.000 A 
ATOM     24  C   UNL     1       0.962  12.638  18.672  0.00  0.00    +0.000 A 
ATOM     25 CL   UNL     1       1.786  14.132  18.440  0.00  0.00    +0.000 Cl
ATOM     26  C   UNL     1       1.686  11.479  18.961  0.00  0.00    +0.000 A 
ENDBRANCH  17  20
ENDBRANCH   5  14
TORSDOF 2
ENDMDL
MODEL 2
REMARK VINA RESULT:      -7.7      1.117      1.490
REMARK  Name = 
REMARK  4 active torsions:
REMARK  status: ('A' for Active; 'I' for Inactive)
REMARK    1  A    between atoms: C_1  and  C_2
REMARK    2  A    between atoms: C_2  and  C_3
REMARK    3  A    between atoms: N_5  and  N_6
REMARK    4  A    between atoms: N_9  and  C_10
REMARK                            x       y       z     vdW  Elec       q    Type
REMARK                         _______ _______ _______ _____ _____    ______ ____
ROOT
ATOM      1  C   UNL     1       1.966   2.502  18.285  0.00  0.00    +0.000 C 
ATOM      2  C   UNL     1       2.816   3.756  18.537  0.00  0.00    +0.000 C 
ATOM      3  C   UNL     1       2.953   3.953  20.056  0.00  0.00    +0.000 C 
ATOM      4  C   UNL     1       2.141   4.933  17.826  0.00  0.00    +0.000 C 
ATOM      5  N   UNL     1       2.915   6.185  17.939  0.00  0.00    +0.000 N 
ATOM      6  C   UNL     1       4.321   5.965  17.863  0.00  0.00    +0.000 A 
ATOM      7  C   UNL     1       5.233   7.026  17.769  0.00  0.00    +0.000 A 
ATOM      8  C   UNL     1       6.603   6.778  17.580  0.00  0.00    +0.000 A 
ATOM      9 CL   UNL     1       7.701   8.100  17.461  0.00  0.00    +0.000 Cl
ATOM     10  C   UNL     1       7.093   5.479  17.467  0.00  0.00    +0.000 A 
ATOM     11  C   UNL     1       6.212   4.410  17.573  0.00  0.00    +0.000 A 
ATOM     12  C   UNL     1       4.853   4.651  17.791  0.00  0.00    +0.000 A 
ATOM     13  O   UNL     1       4.102   3.508  17.951  0.00  0.00    +0.000 OA
ENDROOT
BRANCH   5  14
ATOM     14  N   UNL     1       2.451   7.185  18.853  0.00  0.00    +0.000 N 
ATOM     15  C   UNL     1       1.945   8.394  18.360  0.00  0.00    +0.000 C 
ATOM     16  O   UNL     1       1.688   8.625  17.182  0.00  0.00    +0.000 OA
ATOM     17  N   UNL     1       1.720   9.333  19.359  0.00  0.00    +0.000 N 
ATOM     18  H   UNL     1       2.879   7.179  19.768  0.00  0.00    +0.000 HD
ATOM     19  H   UNL     1       2.521   9.466  19.959  0.00  0.00    +0.000 HD
BRANCH  17  20
ATOM     20  C   UNL     1       0.971  10.502  19.059  0.00  0.00    +0.000 A 
ATOM     21  C   UNL     1       1.633  11.723  18.902  0.00  0.00    +0.000 A 
ATOM     22  C   UNL     1       0.911  12.876  18.575  0.00  0.00    +0.000 A 
ATOM     23  C   UNL     1      -0.478  12.826  18.457  0.00  0.00    +0.000 A 
ATOM     24  C   UNL     1      -1.140  11.614  18.647  0.00  0.00    +0.000 A 
ATOM     25 CL   UNL     1      -2.858  11.562  18.544  0.00  0.00    +0.000 Cl
ATOM     26  C   UNL     1      -0.423  10.451  18.931  0.00  0.00    +0.000 A 
ENDBRANCH  17  20
ENDBRANCH   5  14
TORSDOF 2
ENDMDL
MODEL 3
REMARK VINA RESULT:      -7.6      1.749      1.936
REMARK  Name = 
REMARK  4 active torsions:
REMARK  status: ('A' for Active; 'I' for Inactive)
REMARK    1  A    between atoms: C_1  and  C_2
REMARK    2  A    between atoms: C_2  and  C_3
REMARK    3  A    between atoms: N_5  and  N_6
REMARK    4  A    between atoms: N_9  and  C_10
REMARK                            x       y       z     vdW  Elec       q    Type
REMARK                         _______ _______ _______ _____ _____    ______ ____
ROOT
ATOM      1  C   UNL     1       2.556   1.950  17.806  0.00  0.00    +0.000 C 
ATOM      2  C   UNL     1       3.369   3.178  18.239  0.00  0.00    +0.000 C 
ATOM      3  C   UNL     1       3.881   2.941  19.670  0.00  0.00    +0.000 C 
ATOM      4  C   UNL     1       2.469   4.410  18.108  0.00  0.00    +0.000 C 
ATOM      5  N   UNL     1       3.174   5.667  18.430  0.00  0.00    +0.000 N 
ATOM      6  C   UNL     1       4.523   5.668  17.971  0.00  0.00    +0.000 A 
ATOM      7  C   UNL     1       5.319   6.821  18.010  0.00  0.00    +0.000 A 
ATOM      8  C   UNL     1       6.605   6.823  17.447  0.00  0.00    +0.000 A 
ATOM      9 CL   UNL     1       7.560   8.257  17.504  0.00  0.00    +0.000 Cl
ATOM     10  C   UNL     1       7.123   5.690  16.823  0.00  0.00    +0.000 A 
ATOM     11  C   UNL     1       6.361   4.529  16.785  0.00  0.00    +0.000 A 
ATOM     12  C   UNL     1       5.092   4.514  17.370  0.00  0.00    +0.000 A 
ATOM     13  O   UNL     1       4.474   3.285  17.329  0.00  0.00    +0.000 OA
ENDROOT
BRANCH   5  14
ATOM     14  N   UNL     1       2.905   6.287  19.692  0.00  0.00    +0.000 N 
ATOM     15  C   UNL     1       2.116   7.443  19.742  0.00  0.00    +0.000 C 
ATOM     16  O   UNL     1       1.466   7.897  18.806  0.00  0.00    +0.000 OA
ATOM     17  N   UNL     1       2.106   8.036  20.999  0.00  0.00    +0.000 N 
ATOM     18  H   UNL     1       3.602   6.147  20.409  0.00  0.00    +0.000 HD
ATOM     19  H   UNL     1       3.034   8.185  21.369  0.00  0.00    +0.000 HD
BRANCH  17  20
ATOM     20  C   UNL     1       1.157   9.054  21.281  0.00  0.00    +0.000 A 
ATOM     21  C   UNL     1       0.494   9.056  22.512  0.00  0.00    +0.000 A 
ATOM     22  C   UNL     1      -0.419  10.071  22.816  0.00  0.00    +0.000 A 
ATOM     23  C   UNL     1      -0.715  11.056  21.873  0.00  0.00    +0.000 A 
ATOM     24  C   UNL     1      -0.078  11.034  20.633  0.00  0.00    +0.000 A 
ATOM     25 CL   UNL     1      -0.476  12.224  19.455  0.00  0.00    +0.000 Cl
ATOM     26  C   UNL     1       0.866  10.048  20.339  0.00  0.00    +0.000 A 
ENDBRANCH  17  20
ENDBRANCH   5  14
TORSDOF 2
ENDMDL
MODEL 4
REMARK VINA RESULT:      -7.4      2.321      3.588
REMARK  Name = 
REMARK  4 active torsions:
REMARK  status: ('A' for Active; 'I' for Inactive)
REMARK    1  A    between atoms: C_1  and  C_2
REMARK    2  A    between atoms: C_2  and  C_3
REMARK    3  A    between atoms: N_5  and  N_6
REMARK    4  A    between atoms: N_9  and  C_10
REMARK                            x       y       z     vdW  Elec       q    Type
REMARK                         _______ _______ _______ _____ _____    ______ ____
ROOT
ATOM      1  C   UNL     1       7.487   5.580  16.827  0.00  0.00    +0.000 C 
ATOM      2  C   UNL     1       5.959   5.426  16.857  0.00  0.00    +0.000 C 
ATOM      3  C   UNL     1       5.418   5.668  15.438  0.00  0.00    +0.000 C 
ATOM      4  C   UNL     1       5.408   6.407  17.897  0.00  0.00    +0.000 C 
ATOM      5  N   UNL     1       3.946   6.294  18.066  0.00  0.00    +0.000 N 
ATOM      6  C   UNL     1       3.491   4.946  17.987  0.00  0.00    +0.000 A 
ATOM      7  C   UNL     1       2.170   4.590  18.296  0.00  0.00    +0.000 A 
ATOM      8  C   UNL     1       1.779   3.242  18.320  0.00  0.00    +0.000 A 
ATOM      9 CL   UNL     1       0.151   2.832  18.708  0.00  0.00    +0.000 Cl
ATOM     10  C   UNL     1       2.688   2.221  18.053  0.00  0.00    +0.000 A 
ATOM     11  C   UNL     1       3.999   2.547  17.728  0.00  0.00    +0.000 A 
ATOM     12  C   UNL     1       4.386   3.889  17.674  0.00  0.00    +0.000 A 
ATOM     13  O   UNL     1       5.687   4.079  17.269  0.00  0.00    +0.000 OA
ENDROOT
BRANCH   5  14
ATOM     14  N   UNL     1       3.119   7.307  17.482  0.00  0.00    +0.000 N 
ATOM     15  C   UNL     1       2.251   8.047  18.293  0.00  0.00    +0.000 C 
ATOM     16  O   UNL     1       2.249   8.038  19.520  0.00  0.00    +0.000 OA
ATOM     17  N   UNL     1       1.380   8.846  17.563  0.00  0.00    +0.000 N 
ATOM     18  H   UNL     1       2.873   7.169  16.511  0.00  0.00    +0.000 HD
ATOM     19  H   UNL     1       0.893   8.337  16.840  0.00  0.00    +0.000 HD
BRANCH  17  20
ATOM     20  C   UNL     1       0.623   9.844  18.234  0.00  0.00    +0.000 A 
ATOM     21  C   UNL     1      -0.770   9.849  18.114  0.00  0.00    +0.000 A 
ATOM     22  C   UNL     1      -1.530  10.806  18.795  0.00  0.00    +0.000 A 
ATOM     23  C   UNL     1      -0.901  11.792  19.555  0.00  0.00    +0.000 A 
ATOM     24  C   UNL     1       0.490  11.806  19.647  0.00  0.00    +0.000 A 
ATOM     25 CL   UNL     1       1.267  13.050  20.549  0.00  0.00    +0.000 Cl
ATOM     26  C   UNL     1       1.253  10.829  19.004  0.00  0.00    +0.000 A 
ENDBRANCH  17  20
ENDBRANCH   5  14
TORSDOF 2
ENDMDL
MODEL 5
REMARK VINA RESULT:      -7.4      1.806      2.003
REMARK  Name = 
REMARK  4 active torsions:
REMARK  status: ('A' for Active; 'I' for Inactive)
REMARK    1  A    between atoms: C_1  and  C_2
REMARK    2  A    between atoms: C_2  and  C_3
REMARK    3  A    between atoms: N_5  and  N_6
REMARK    4  A    between atoms: N_9  and  C_10
REMARK                            x       y       z     vdW  Elec       q    Type
REMARK                         _______ _______ _______ _____ _____    ______ ____
ROOT
ATOM      1  C   UNL     1       2.875   1.822  17.761  0.00  0.00    +0.000 C 
ATOM      2  C   UNL     1       3.589   3.116  18.178  0.00  0.00    +0.000 C 
ATOM      3  C   UNL     1       3.969   3.003  19.664  0.00  0.00    +0.000 C 
ATOM      4  C   UNL     1       2.654   4.289  17.873  0.00  0.00    +0.000 C 
ATOM      5  N   UNL     1       3.270   5.598  18.166  0.00  0.00    +0.000 N 
ATOM      6  C   UNL     1       4.655   5.635  17.836  0.00  0.00    +0.000 A 
ATOM      7  C   UNL     1       5.394   6.827  17.866  0.00  0.00    +0.000 A 
ATOM      8  C   UNL     1       6.727   6.854  17.427  0.00  0.00    +0.000 A 
ATOM      9 CL   UNL     1       7.609   8.334  17.467  0.00  0.00    +0.000 Cl
ATOM     10  C   UNL     1       7.351   5.708  16.939  0.00  0.00    +0.000 A 
ATOM     11  C   UNL     1       6.647   4.511  16.914  0.00  0.00    +0.000 A 
ATOM     12  C   UNL     1       5.329   4.472  17.378  0.00  0.00    +0.000 A 
ATOM     13  O   UNL     1       4.771   3.214  17.369  0.00  0.00    +0.000 OA
ENDROOT
BRANCH   5  14
ATOM     14  N   UNL     1       2.853   6.290  19.349  0.00  0.00    +0.000 N 
ATOM     15  C   UNL     1       2.163   7.503  19.236  0.00  0.00    +0.000 C 
ATOM     16  O   UNL     1       1.710   7.965  18.193  0.00  0.00    +0.000 OA
ATOM     17  N   UNL     1       2.000   8.147  20.456  0.00  0.00    +0.000 N 
ATOM     18  H   UNL     1       3.412   6.128  20.174  0.00  0.00    +0.000 HD
ATOM     19  H   UNL     1       2.866   8.241  20.968  0.00  0.00    +0.000 HD
BRANCH  17  20
ATOM     20  C   UNL     1       1.104   9.246  20.549  0.00  0.00    +0.000 A 
ATOM     21  C   UNL     1       0.974  10.123  19.469  0.00  0.00    +0.000 A 
ATOM     22  C   UNL     1       0.072  11.190  19.535  0.00  0.00    +0.000 A 
ATOM     23  C   UNL     1      -0.665  11.416  20.698  0.00  0.00    +0.000 A 
ATOM     24  C   UNL     1      -0.510  10.560  21.787  0.00  0.00    +0.000 A 
ATOM     25 CL   UNL     1      -1.386  10.866  23.237  0.00  0.00    +0.000 Cl
ATOM     26  C   UNL     1       0.358   9.468  21.713  0.00  0.00    +0.000 A 
ENDBRANCH  17  20
ENDBRANCH   5  14
TORSDOF 2
ENDMDL
MODEL 6
REMARK VINA RESULT:      -7.3      2.627      3.906
REMARK  Name = 
REMARK  4 active torsions:
REMARK  status: ('A' for Active; 'I' for Inactive)
REMARK    1  A    between atoms: C_1  and  C_2
REMARK    2  A    between atoms: C_2  and  C_3
REMARK    3  A    between atoms: N_5  and  N_6
REMARK    4  A    between atoms: N_9  and  C_10
REMARK                            x       y       z     vdW  Elec       q    Type
REMARK                         _______ _______ _______ _____ _____    ______ ____
ROOT
ATOM      1  C   UNL     1       7.704   5.480  18.670  0.00  0.00    +0.000 C 
ATOM      2  C   UNL     1       6.233   5.233  18.306  0.00  0.00    +0.000 C 
ATOM      3  C   UNL     1       6.081   5.369  16.782  0.00  0.00    +0.000 C 
ATOM      4  C   UNL     1       5.379   6.229  19.097  0.00  0.00    +0.000 C 
ATOM      5  N   UNL     1       3.932   6.033  18.881  0.00  0.00    +0.000 N 
ATOM      6  C   UNL     1       3.578   4.658  18.772  0.00  0.00    +0.000 A 
ATOM      7  C   UNL     1       2.240   4.236  18.743  0.00  0.00    +0.000 A 
ATOM      8  C   UNL     1       1.921   2.869  18.751  0.00  0.00    +0.000 A 
ATOM      9 CL   UNL     1       0.269   2.378  18.722  0.00  0.00    +0.000 Cl
ATOM     10  C   UNL     1       2.915   1.895  18.801  0.00  0.00    +0.000 A 
ATOM     11  C   UNL     1       4.247   2.285  18.813  0.00  0.00    +0.000 A 
ATOM     12  C   UNL     1       4.572   3.644  18.776  0.00  0.00    +0.000 A 
ATOM     13  O   UNL     1       5.924   3.893  18.718  0.00  0.00    +0.000 OA
ENDROOT
BRANCH   5  14
ATOM     14  N   UNL     1       3.245   6.962  18.034  0.00  0.00    +0.000 N 
ATOM     15  C   UNL     1       2.331   7.864  18.592  0.00  0.00    +0.000 C 
ATOM     16  O   UNL     1       2.179   8.066  19.793  0.00  0.00    +0.000 OA
ATOM     17  N   UNL     1       1.605   8.559  17.633  0.00  0.00    +0.000 N 
ATOM     18  H   UNL     1       3.111   6.669  17.076  0.00  0.00    +0.000 HD
ATOM     19  H   UNL     1       1.180   7.953  16.946  0.00  0.00    +0.000 HD
BRANCH  17  20
ATOM     20  C   UNL     1       0.834   9.686  18.025  0.00  0.00    +0.000 A 
ATOM     21  C   UNL     1       1.472  10.797  18.584  0.00  0.00    +0.000 A 
ATOM     22  C   UNL     1       0.729  11.926  18.944  0.00  0.00    +0.000 A 
ATOM     23  C   UNL     1      -0.658  11.931  18.798  0.00  0.00    +0.000 A 
ATOM     24  C   UNL     1      -1.298  10.809  18.272  0.00  0.00    +0.000 A 
ATOM     25 CL   UNL     1      -3.013  10.798  18.133  0.00  0.00    +0.000 Cl
ATOM     26  C   UNL     1      -0.558   9.695  17.870  0.00  0.00    +0.000 A 
ENDBRANCH  17  20
ENDBRANCH   5  14
TORSDOF 2
ENDMDL
MODEL 7
REMARK VINA RESULT:      -7.3      2.578      3.864
REMARK  Name = 
REMARK  4 active torsions:
REMARK  status: ('A' for Active; 'I' for Inactive)
REMARK    1  A    between atoms: C_1  and  C_2
REMARK    2  A    between atoms: C_2  and  C_3
REMARK    3  A    between atoms: N_5  and  N_6
REMARK    4  A    between atoms: N_9  and  C_10
REMARK                            x       y       z     vdW  Elec       q    Type
REMARK                         _______ _______ _______ _____ _____    ______ ____
ROOT
ATOM      1  C   UNL     1       7.400   5.578  16.594  0.00  0.00    +0.000 C 
ATOM      2  C   UNL     1       5.874   5.452  16.710  0.00  0.00    +0.000 C 
ATOM      3  C   UNL     1       5.259   5.701  15.323  0.00  0.00    +0.000 C 
ATOM      4  C   UNL     1       5.400   6.445  17.776  0.00  0.00    +0.000 C 
ATOM      5  N   UNL     1       3.948   6.359  18.026  0.00  0.00    +0.000 N 
ATOM      6  C   UNL     1       3.464   5.019  17.977  0.00  0.00    +0.000 A 
ATOM      7  C   UNL     1       2.156   4.688  18.359  0.00  0.00    +0.000 A 
ATOM      8  C   UNL     1       1.743   3.347  18.409  0.00  0.00    +0.000 A 
ATOM      9 CL   UNL     1       0.132   2.968  18.889  0.00  0.00    +0.000 Cl
ATOM     10  C   UNL     1       2.617   2.310  18.095  0.00  0.00    +0.000 A 
ATOM     11  C   UNL     1       3.913   2.611  17.697  0.00  0.00    +0.000 A 
ATOM     12  C   UNL     1       4.321   3.946  17.617  0.00  0.00    +0.000 A 
ATOM     13  O   UNL     1       5.601   4.111  17.140  0.00  0.00    +0.000 OA
ENDROOT
BRANCH   5  14
ATOM     14  N   UNL     1       3.108   7.385  17.486  0.00  0.00    +0.000 N 
ATOM     15  C   UNL     1       2.211   8.061  18.323  0.00  0.00    +0.000 C 
ATOM     16  O   UNL     1       2.192   7.983  19.548  0.00  0.00    +0.000 OA
ATOM     17  N   UNL     1       1.335   8.882  17.626  0.00  0.00    +0.000 N 
ATOM     18  H   UNL     1       2.880   7.297  16.506  0.00  0.00    +0.000 HD
ATOM     19  H   UNL     1       0.870   8.404  16.867  0.00  0.00    +0.000 HD
BRANCH  17  20
ATOM     20  C   UNL     1       0.547   9.824  18.339  0.00  0.00    +0.000 A 
ATOM     21  C   UNL     1       1.125  10.561  19.377  0.00  0.00    +0.000 A 
ATOM     22  C   UNL     1       0.369  11.515  20.066  0.00  0.00    +0.000 A 
ATOM     23  C   UNL     1      -0.979  11.700  19.758  0.00  0.00    +0.000 A 
ATOM     24  C   UNL     1      -1.563  10.942  18.745  0.00  0.00    +0.000 A 
ATOM     25 CL   UNL     1      -3.237  11.139  18.396  0.00  0.00    +0.000 Cl
ATOM     26  C   UNL     1      -0.804  10.017  18.025  0.00  0.00    +0.000 A 
ENDBRANCH  17  20
ENDBRANCH   5  14
TORSDOF 2
ENDMDL
MODEL 8
REMARK VINA RESULT:      -7.3      2.356      3.607
REMARK  Name = 
REMARK  4 active torsions:
REMARK  status: ('A' for Active; 'I' for Inactive)
REMARK    1  A    between atoms: C_1  and  C_2
REMARK    2  A    between atoms: C_2  and  C_3
REMARK    3  A    between atoms: N_5  and  N_6
REMARK    4  A    between atoms: N_9  and  C_10
REMARK                            x       y       z     vdW  Elec       q    Type
REMARK                         _______ _______ _______ _____ _____    ______ ____
ROOT
ATOM      1  C   UNL     1       7.669   5.517  18.811  0.00  0.00    +0.000 C 
ATOM      2  C   UNL     1       6.212   5.246  18.410  0.00  0.00    +0.000 C 
ATOM      3  C   UNL     1       6.094   5.390  16.884  0.00  0.00    +0.000 C 
ATOM      4  C   UNL     1       5.321   6.219  19.188  0.00  0.00    +0.000 C 
ATOM      5  N   UNL     1       3.883   5.998  18.935  0.00  0.00    +0.000 N 
ATOM      6  C   UNL     1       3.558   4.616  18.808  0.00  0.00    +0.000 A 
ATOM      7  C   UNL     1       2.230   4.170  18.744  0.00  0.00    +0.000 A 
ATOM      8  C   UNL     1       1.936   2.797  18.733  0.00  0.00    +0.000 A 
ATOM      9 CL   UNL     1       0.296   2.275  18.661  0.00  0.00    +0.000 Cl
ATOM     10  C   UNL     1       2.947   1.841  18.800  0.00  0.00    +0.000 A 
ATOM     11  C   UNL     1       4.272   2.257  18.848  0.00  0.00    +0.000 A 
ATOM     12  C   UNL     1       4.571   3.622  18.828  0.00  0.00    +0.000 A 
ATOM     13  O   UNL     1       5.919   3.897  18.805  0.00  0.00    +0.000 OA
ENDROOT
BRANCH   5  14
ATOM     14  N   UNL     1       3.199   6.920  18.079  0.00  0.00    +0.000 N 
ATOM     15  C   UNL     1       2.315   7.854  18.631  0.00  0.00    +0.000 C 
ATOM     16  O   UNL     1       2.191   8.089  19.830  0.00  0.00    +0.000 OA
ATOM     17  N   UNL     1       1.585   8.541  17.669  0.00  0.00    +0.000 N 
ATOM     18  H   UNL     1       3.040   6.607  17.132  0.00  0.00    +0.000 HD
ATOM     19  H   UNL     1       1.134   7.927  17.007  0.00  0.00    +0.000 HD
BRANCH  17  20
ATOM     20  C   UNL     1       0.845   9.694  18.048  0.00  0.00    +0.000 A 
ATOM     21  C   UNL     1      -0.549   9.680  17.950  0.00  0.00    +0.000 A 
ATOM     22  C   UNL     1      -1.292  10.796  18.350  0.00  0.00    +0.000 A 
ATOM     23  C   UNL     1      -0.644  11.948  18.798  0.00  0.00    +0.000 A 
ATOM     24  C   UNL     1       0.748  11.972  18.864  0.00  0.00    +0.000 A 
ATOM     25 CL   UNL     1       1.547  13.408  19.376  0.00  0.00    +0.000 Cl
ATOM     26  C   UNL     1       1.494  10.847  18.507  0.00  0.00    +0.000 A 
ENDBRANCH  17  20
ENDBRANCH   5  14
TORSDOF 2
ENDMDL
MODEL 9
REMARK VINA RESULT:      -7.1      4.340      6.631
REMARK  Name = 
REMARK  4 active torsions:
REMARK  status: ('A' for Active; 'I' for Inactive)
REMARK    1  A    between atoms: C_1  and  C_2
REMARK    2  A    between atoms: C_2  and  C_3
REMARK    3  A    between atoms: N_5  and  N_6
REMARK    4  A    between atoms: N_9  and  C_10
REMARK                            x       y       z     vdW  Elec       q    Type
REMARK                         _______ _______ _______ _____ _____    ______ ____
ROOT
ATOM      1  C   UNL     1       6.699   3.858  14.280  0.00  0.00    +0.000 C 
ATOM      2  C   UNL     1       5.992   4.858  15.206  0.00  0.00    +0.000 C 
ATOM      3  C   UNL     1       5.427   6.001  14.346  0.00  0.00    +0.000 C 
ATOM      4  C   UNL     1       7.004   5.325  16.256  0.00  0.00    +0.000 C 
ATOM      5  N   UNL     1       6.410   6.239  17.251  0.00  0.00    +0.000 N 
ATOM      6  C   UNL     1       5.078   5.873  17.601  0.00  0.00    +0.000 A 
ATOM      7  C   UNL     1       4.391   6.493  18.654  0.00  0.00    +0.000 A 
ATOM      8  C   UNL     1       3.124   6.035  19.050  0.00  0.00    +0.000 A 
ATOM      9 CL   UNL     1       2.303   6.810  20.352  0.00  0.00    +0.000 Cl
ATOM     10  C   UNL     1       2.520   4.948  18.422  0.00  0.00    +0.000 A 
ATOM     11  C   UNL     1       3.172   4.327  17.364  0.00  0.00    +0.000 A 
ATOM     12  C   UNL     1       4.420   4.798  16.947  0.00  0.00    +0.000 A 
ATOM     13  O   UNL     1       4.924   4.144  15.846  0.00  0.00    +0.000 OA
ENDROOT
BRANCH   5  14
ATOM     14  N   UNL     1       6.705   7.637  17.146  0.00  0.00    +0.000 N 
ATOM     15  C   UNL     1       7.704   8.198  17.951  0.00  0.00    +0.000 C 
ATOM     16  O   UNL     1       8.498   7.563  18.638  0.00  0.00    +0.000 OA
ATOM     17  N   UNL     1       7.740   9.584  17.879  0.00  0.00    +0.000 N 
ATOM     18  H   UNL     1       5.944   8.226  16.840  0.00  0.00    +0.000 HD
ATOM     19  H   UNL     1       6.836  10.009  18.032  0.00  0.00    +0.000 HD
BRANCH  17  20
ATOM     20  C   UNL     1       8.851  10.281  18.426  0.00  0.00    +0.000 A 
ATOM     21  C   UNL     1       9.036  10.304  19.811  0.00  0.00    +0.000 A 
ATOM     22  C   UNL     1      10.143  10.959  20.361  0.00  0.00    +0.000 A 
ATOM     23  C   UNL     1      11.039  11.638  19.535  0.00  0.00    +0.000 A 
ATOM     24  C   UNL     1      10.835  11.643  18.156  0.00  0.00    +0.000 A 
ATOM     25 CL   UNL     1      11.917  12.518  17.142  0.00  0.00    +0.000 Cl
ATOM     26  C   UNL     1       9.755  10.956  17.597  0.00  0.00    +0.000 A 
ENDBRANCH  17  20
ENDBRANCH   5  14
TORSDOF 2
ENDMDL
