MODEL 1
REMARK VINA RESULT:      -7.3      0.000      0.000
REMARK  Name = 
REMARK  10 active torsions:
REMARK  status: ('A' for Active; 'I' for Inactive)
REMARK    1  A    between atoms: C_1  and  O_2
REMARK    2  A    between atoms: O_2  and  C_3
REMARK    3  A    between atoms: C_3  and  C_5
REMARK    4  A    between atoms: C_5  and  C_6
REMARK    5  A    between atoms: C_5  and  C_7
REMARK    6  A    between atoms: C_5  and  C_8
REMARK    7  A    between atoms: C_8  and  N_9
REMARK    8  A    between atoms: N_14  and  C_15
REMARK    9  A    between atoms: N_24  and  C_25
REMARK   10  A    between atoms: C_25  and  C_26
REMARK                            x       y       z     vdW  Elec       q    Type
REMARK                         _______ _______ _______ _____ _____    ______ ____
ROOT
ATOM      1  N   UNL     1       1.013  14.421  19.865  0.00  0.00    +0.000 N 
ATOM      2  C   UNL     1      -0.139  14.717  19.186  0.00  0.00    +0.000 A 
ATOM      3  O   UNL     1      -0.292  15.701  18.465  0.00  0.00    +0.000 OA
ATOM      4  N   UNL     1      -1.161  13.846  19.333  0.00  0.00    +0.000 N 
ATOM      5  C   UNL     1      -1.050  12.593  19.852  0.00  0.00    +0.000 A 
ATOM      6  N   UNL     1      -1.972  11.691  19.741  0.00  0.00    +0.000 NA
ATOM      7  N   UNL     1       0.131  12.329  20.518  0.00  0.00    +0.000 N 
ATOM      8  C   UNL     1       1.210  13.207  20.508  0.00  0.00    +0.000 A 
ATOM      9  O   UNL     1       2.291  12.922  21.027  0.00  0.00    +0.000 OA
ATOM     10  H   UNL     1      -2.012  14.140  18.883  0.00  0.00    +0.000 HD
ENDROOT
BRANCH   6  11
ATOM     11  C   UNL     1      -3.187  11.889  19.050  0.00  0.00    +0.000 A 
ATOM     12  C   UNL     1      -3.254  11.475  17.715  0.00  0.00    +0.000 A 
ATOM     13  C   UNL     1      -4.425  11.579  16.959  0.00  0.00    +0.000 A 
ATOM     14  C   UNL     1      -5.567  12.063  17.609  0.00  0.00    +0.000 A 
ATOM     15  N   UNL     1      -6.858  12.225  17.159  0.00  0.00    +0.000 N 
ATOM     16  C   UNL     1      -7.653  12.686  18.170  0.00  0.00    +0.000 A 
ATOM     17  C   UNL     1      -6.860  12.886  19.279  0.00  0.00    +0.000 A 
ATOM     18  C   UNL     1      -5.535  12.518  18.924  0.00  0.00    +0.000 A 
ATOM     19  C   UNL     1      -4.309  12.511  19.615  0.00  0.00    +0.000 A 
ATOM     20  H   UNL     1      -7.173  12.006  16.223  0.00  0.00    +0.000 HD
ENDBRANCH   6  11
BRANCH   1  21
ATOM     21  C   UNL     1       2.056  15.451  19.916  0.00  0.00    +0.000 C 
BRANCH  21  22
ATOM     22  C   UNL     1       3.060  15.371  18.728  0.00  0.00    +0.000 C 
ATOM     23  C   UNL     1       2.923  16.598  17.816  0.00  0.00    +0.000 C 
ATOM     24  C   UNL     1       2.872  14.087  17.899  0.00  0.00    +0.000 C 
BRANCH  22  25
ATOM     25  C   UNL     1       4.469  15.351  19.323  0.00  0.00    +0.000 C 
ATOM     26  O   UNL     1       4.726  15.176  20.506  0.00  0.00    +0.000 OA
BRANCH  25  28
ATOM     27  C   UNL     1       6.631  14.846  18.559  0.00  0.00    +0.000 C 
ATOM     28  O   UNL     1       5.410  15.556  18.356  0.00  0.00    +0.000 OA
ENDBRANCH  25  28
ENDBRANCH  22  25
ENDBRANCH  21  22
ENDBRANCH   1  21
BRANCH   7  29
ATOM     29  C   UNL     1       0.304  11.058  21.222  0.00  0.00    +0.000 C 
BRANCH  29  30
ATOM     30  C   UNL     1       0.859   9.935  20.356  0.00  0.00    +0.000 A 
ATOM     31  C   UNL     1       1.124  10.147  18.995  0.00  0.00    +0.000 A 
ATOM     32  C   UNL     1       1.761   9.167  18.226  0.00  0.00    +0.000 A 
ATOM     33  C   UNL     1       2.134   7.961  18.810  0.00  0.00    +0.000 A 
ATOM     34 CL   UNL     1       2.981   6.786  17.884  0.00  0.00    +0.000 Cl
ATOM     35  C   UNL     1       1.834   7.709  20.150  0.00  0.00    +0.000 A 
ATOM     36  C   UNL     1       1.197   8.691  20.919  0.00  0.00    +0.000 A 
ENDBRANCH  29  30
ENDBRANCH   7  29
TORSDOF 7
ENDMDL
MODEL 2
REMARK VINA RESULT:      -6.8      1.181      1.688
REMARK  Name = 
REMARK  10 active torsions:
REMARK  status: ('A' for Active; 'I' for Inactive)
REMARK    1  A    between atoms: C_1  and  O_2
REMARK    2  A    between atoms: O_2  and  C_3
REMARK    3  A    between atoms: C_3  and  C_5
REMARK    4  A    between atoms: C_5  and  C_6
REMARK    5  A    between atoms: C_5  and  C_7
REMARK    6  A    between atoms: C_5  and  C_8
REMARK    7  A    between atoms: C_8  and  N_9
REMARK    8  A    between atoms: N_14  and  C_15
REMARK    9  A    between atoms: N_24  and  C_25
REMARK   10  A    between atoms: C_25  and  C_26
REMARK                            x       y       z     vdW  Elec       q    Type
REMARK                         _______ _______ _______ _____ _____    ______ ____
ROOT
ATOM      1  N   UNL     1       1.018  13.992  19.892  0.00  0.00    +0.000 N 
ATOM      2  C   UNL     1      -0.107  14.402  19.229  0.00  0.00    +0.000 A 
ATOM      3  O   UNL     1      -0.196  15.442  18.577  0.00  0.00    +0.000 OA
ATOM      4  N   UNL     1      -1.181  13.586  19.309  0.00  0.00    +0.000 N 
ATOM      5  C   UNL     1      -1.148  12.295  19.739  0.00  0.00    +0.000 A 
ATOM      6  N   UNL     1      -2.120  11.459  19.560  0.00  0.00    +0.000 NA
ATOM      7  N   UNL     1       0.009  11.916  20.392  0.00  0.00    +0.000 N 
ATOM      8  C   UNL     1       1.137  12.727  20.449  0.00  0.00    +0.000 A 
ATOM      9  O   UNL     1       2.195  12.343  20.953  0.00  0.00    +0.000 OA
ATOM     10  H   UNL     1      -2.008  13.960  18.875  0.00  0.00    +0.000 HD
ENDROOT
BRANCH   6  11
ATOM     11  C   UNL     1      -3.315  11.777  18.877  0.00  0.00    +0.000 A 
ATOM     12  C   UNL     1      -3.409  11.424  17.527  0.00  0.00    +0.000 A 
ATOM     13  C   UNL     1      -4.567  11.647  16.775  0.00  0.00    +0.000 A 
ATOM     14  C   UNL     1      -5.670  12.189  17.445  0.00  0.00    +0.000 A 
ATOM     15  N   UNL     1      -6.944  12.466  17.002  0.00  0.00    +0.000 N 
ATOM     16  C   UNL     1      -7.705  12.944  18.031  0.00  0.00    +0.000 A 
ATOM     17  C   UNL     1      -6.903  13.037  19.147  0.00  0.00    +0.000 A 
ATOM     18  C   UNL     1      -5.608  12.586  18.778  0.00  0.00    +0.000 A 
ATOM     19  C   UNL     1      -4.389  12.457  19.468  0.00  0.00    +0.000 A 
ATOM     20  H   UNL     1      -7.272  12.310  16.058  0.00  0.00    +0.000 HD
ENDBRANCH   6  11
BRANCH   1  21
ATOM     21  C   UNL     1       2.120  14.952  20.020  0.00  0.00    +0.000 C 
BRANCH  21  22
ATOM     22  C   UNL     1       2.048  15.803  21.323  0.00  0.00    +0.000 C 
ATOM     23  C   UNL     1       0.830  15.403  22.168  0.00  0.00    +0.000 C 
ATOM     24  C   UNL     1       1.994  17.312  21.023  0.00  0.00    +0.000 C 
BRANCH  22  25
ATOM     25  C   UNL     1       3.320  15.521  22.122  0.00  0.00    +0.000 C 
ATOM     26  O   UNL     1       3.417  15.615  23.338  0.00  0.00    +0.000 OA
BRANCH  25  28
ATOM     27  C   UNL     1       5.507  15.965  21.393  0.00  0.00    +0.000 C 
ATOM     28  O   UNL     1       4.342  15.148  21.298  0.00  0.00    +0.000 OA
ENDBRANCH  25  28
ENDBRANCH  22  25
ENDBRANCH  21  22
ENDBRANCH   1  21
BRANCH   7  29
ATOM     29  C   UNL     1       0.100  10.591  21.006  0.00  0.00    +0.000 C 
BRANCH  29  30
ATOM     30  C   UNL     1       0.809   9.552  20.147  0.00  0.00    +0.000 A 
ATOM     31  C   UNL     1       1.018   9.779  18.778  0.00  0.00    +0.000 A 
ATOM     32  C   UNL     1       1.787   8.896  18.013  0.00  0.00    +0.000 A 
ATOM     33  C   UNL     1       2.351   7.772  18.609  0.00  0.00    +0.000 A 
ATOM     34 CL   UNL     1       3.356   6.726  17.686  0.00  0.00    +0.000 Cl
ATOM     35  C   UNL     1       2.113   7.500  19.957  0.00  0.00    +0.000 A 
ATOM     36  C   UNL     1       1.343   8.385  20.722  0.00  0.00    +0.000 A 
ENDBRANCH  29  30
ENDBRANCH   7  29
TORSDOF 7
ENDMDL
MODEL 3
REMARK VINA RESULT:      -6.8      3.331      6.443
REMARK  Name = 
REMARK  10 active torsions:
REMARK  status: ('A' for Active; 'I' for Inactive)
REMARK    1  A    between atoms: C_1  and  O_2
REMARK    2  A    between atoms: O_2  and  C_3
REMARK    3  A    between atoms: C_3  and  C_5
REMARK    4  A    between atoms: C_5  and  C_6
REMARK    5  A    between atoms: C_5  and  C_7
REMARK    6  A    between atoms: C_5  and  C_8
REMARK    7  A    between atoms: C_8  and  N_9
REMARK    8  A    between atoms: N_14  and  C_15
REMARK    9  A    between atoms: N_24  and  C_25
REMARK   10  A    between atoms: C_25  and  C_26
REMARK                            x       y       z     vdW  Elec       q    Type
REMARK                         _______ _______ _______ _____ _____    ______ ____
ROOT
ATOM      1  N   UNL     1       1.487  14.317  20.635  0.00  0.00    +0.000 N 
ATOM      2  C   UNL     1       2.099  13.423  19.797  0.00  0.00    +0.000 A 
ATOM      3  O   UNL     1       3.054  13.686  19.069  0.00  0.00    +0.000 OA
ATOM      4  N   UNL     1       1.599  12.168  19.793  0.00  0.00    +0.000 N 
ATOM      5  C   UNL     1       0.753  11.662  20.732  0.00  0.00    +0.000 A 
ATOM      6  N   UNL     1       0.500  10.399  20.857  0.00  0.00    +0.000 NA
ATOM      7  N   UNL     1       0.166  12.594  21.566  0.00  0.00    +0.000 N 
ATOM      8  C   UNL     1       0.545  13.932  21.578  0.00  0.00    +0.000 A 
ATOM      9  O   UNL     1       0.082  14.737  22.389  0.00  0.00    +0.000 OA
ATOM     10  H   UNL     1       2.023  11.564  19.109  0.00  0.00    +0.000 HD
ENDROOT
BRANCH   6  11
ATOM     11  C   UNL     1       1.088   9.396  20.056  0.00  0.00    +0.000 A 
ATOM     12  C   UNL     1       1.254   9.663  18.693  0.00  0.00    +0.000 A 
ATOM     13  C   UNL     1       1.871   8.758  17.824  0.00  0.00    +0.000 A 
ATOM     14  C   UNL     1       2.383   7.581  18.383  0.00  0.00    +0.000 A 
ATOM     15  N   UNL     1       3.081   6.542  17.810  0.00  0.00    +0.000 N 
ATOM     16  C   UNL     1       3.422   5.623  18.762  0.00  0.00    +0.000 A 
ATOM     17  C   UNL     1       2.889   6.036  19.963  0.00  0.00    +0.000 A 
ATOM     18  C   UNL     1       2.209   7.260  19.726  0.00  0.00    +0.000 A 
ATOM     19  C   UNL     1       1.476   8.140  20.544  0.00  0.00    +0.000 A 
ATOM     20  H   UNL     1       3.327   6.485  16.830  0.00  0.00    +0.000 HD
ENDBRANCH   6  11
BRANCH   1  21
ATOM     21  C   UNL     1       1.848  15.732  20.499  0.00  0.00    +0.000 C 
BRANCH  21  22
ATOM     22  C   UNL     1       0.908  16.518  19.538  0.00  0.00    +0.000 C 
ATOM     23  C   UNL     1       0.132  17.602  20.301  0.00  0.00    +0.000 C 
ATOM     24  C   UNL     1      -0.082  15.590  18.812  0.00  0.00    +0.000 C 
BRANCH  22  25
ATOM     25  C   UNL     1       1.791  17.190  18.486  0.00  0.00    +0.000 C 
ATOM     26  O   UNL     1       2.779  16.681  17.973  0.00  0.00    +0.000 OA
BRANCH  25  28
ATOM     27  C   UNL     1       0.952  18.621  16.825  0.00  0.00    +0.000 C 
ATOM     28  O   UNL     1       1.331  18.439  18.188  0.00  0.00    +0.000 OA
ENDBRANCH  25  28
ENDBRANCH  22  25
ENDBRANCH  21  22
ENDBRANCH   1  21
BRANCH   7  29
ATOM     29  C   UNL     1      -0.854  12.174  22.527  0.00  0.00    +0.000 C 
BRANCH  29  30
ATOM     30  C   UNL     1      -2.285  12.377  22.048  0.00  0.00    +0.000 A 
ATOM     31  C   UNL     1      -3.330  12.541  22.970  0.00  0.00    +0.000 A 
ATOM     32  C   UNL     1      -4.622  12.866  22.541  0.00  0.00    +0.000 A 
ATOM     33  C   UNL     1      -4.882  13.024  21.183  0.00  0.00    +0.000 A 
ATOM     34 CL   UNL     1      -6.451  13.494  20.662  0.00  0.00    +0.000 Cl
ATOM     35  C   UNL     1      -3.869  12.816  20.247  0.00  0.00    +0.000 A 
ATOM     36  C   UNL     1      -2.577  12.491  20.677  0.00  0.00    +0.000 A 
ENDBRANCH  29  30
ENDBRANCH   7  29
TORSDOF 7
ENDMDL
MODEL 4
REMARK VINA RESULT:      -6.7      2.575      3.300
REMARK  Name = 
REMARK  10 active torsions:
REMARK  status: ('A' for Active; 'I' for Inactive)
REMARK    1  A    between atoms: C_1  and  O_2
REMARK    2  A    between atoms: O_2  and  C_3
REMARK    3  A    between atoms: C_3  and  C_5
REMARK    4  A    between atoms: C_5  and  C_6
REMARK    5  A    between atoms: C_5  and  C_7
REMARK    6  A    between atoms: C_5  and  C_8
REMARK    7  A    between atoms: C_8  and  N_9
REMARK    8  A    between atoms: N_14  and  C_15
REMARK    9  A    between atoms: N_24  and  C_25
REMARK   10  A    between atoms: C_25  and  C_26
REMARK                            x       y       z     vdW  Elec       q    Type
REMARK                         _______ _______ _______ _____ _____    ______ ____
ROOT
ATOM      1  N   UNL     1       2.179  13.748  20.251  0.00  0.00    +0.000 N 
ATOM      2  C   UNL     1       1.303  14.206  21.198  0.00  0.00    +0.000 A 
ATOM      3  O   UNL     1       1.473  15.218  21.877  0.00  0.00    +0.000 OA
ATOM      4  N   UNL     1       0.179  13.478  21.377  0.00  0.00    +0.000 N 
ATOM      5  C   UNL     1      -0.274  12.522  20.522  0.00  0.00    +0.000 A 
ATOM      6  N   UNL     1      -1.471  12.030  20.571  0.00  0.00    +0.000 NA
ATOM      7  N   UNL     1       0.634  12.094  19.573  0.00  0.00    +0.000 N 
ATOM      8  C   UNL     1       1.862  12.719  19.376  0.00  0.00    +0.000 A 
ATOM      9  O   UNL     1       2.626  12.390  18.466  0.00  0.00    +0.000 OA
ATOM     10  H   UNL     1      -0.398  13.803  22.134  0.00  0.00    +0.000 HD
ENDROOT
BRANCH   6  11
ATOM     11  C   UNL     1      -2.453  12.443  21.498  0.00  0.00    +0.000 A 
ATOM     12  C   UNL     1      -2.370  11.946  22.803  0.00  0.00    +0.000 A 
ATOM     13  C   UNL     1      -3.262  12.334  23.808  0.00  0.00    +0.000 A 
ATOM     14  C   UNL     1      -4.219  13.299  23.476  0.00  0.00    +0.000 A 
ATOM     15  N   UNL     1      -5.180  13.915  24.247  0.00  0.00    +0.000 N 
ATOM     16  C   UNL     1      -5.860  14.837  23.502  0.00  0.00    +0.000 A 
ATOM     17  C   UNL     1      -5.378  14.782  22.213  0.00  0.00    +0.000 A 
ATOM     18  C   UNL     1      -4.358  13.794  22.183  0.00  0.00    +0.000 A 
ATOM     19  C   UNL     1      -3.521  13.290  21.170  0.00  0.00    +0.000 A 
ATOM     20  H   UNL     1      -5.338  13.728  25.229  0.00  0.00    +0.000 HD
ENDBRANCH   6  11
BRANCH   1  21
ATOM     21  C   UNL     1       3.504  14.374  20.190  0.00  0.00    +0.000 C 
BRANCH  21  22
ATOM     22  C   UNL     1       3.603  15.510  19.130  0.00  0.00    +0.000 C 
ATOM     23  C   UNL     1       2.204  15.953  18.675  0.00  0.00    +0.000 C 
ATOM     24  C   UNL     1       4.432  15.084  17.904  0.00  0.00    +0.000 C 
BRANCH  22  25
ATOM     25  C   UNL     1       4.306  16.694  19.793  0.00  0.00    +0.000 C 
ATOM     26  O   UNL     1       4.870  17.599  19.193  0.00  0.00    +0.000 OA
BRANCH  25  28
ATOM     27  C   UNL     1       5.270  17.284  21.851  0.00  0.00    +0.000 C 
ATOM     28  O   UNL     1       4.223  16.611  21.153  0.00  0.00    +0.000 OA
ENDBRANCH  25  28
ENDBRANCH  22  25
ENDBRANCH  21  22
ENDBRANCH   1  21
BRANCH   7  29
ATOM     29  C   UNL     1       0.295  10.982  18.685  0.00  0.00    +0.000 C 
BRANCH  29  30
ATOM     30  C   UNL     1       1.076   9.704  18.958  0.00  0.00    +0.000 A 
ATOM     31  C   UNL     1       1.055   9.112  20.230  0.00  0.00    +0.000 A 
ATOM     32  C   UNL     1       1.654   7.867  20.454  0.00  0.00    +0.000 A 
ATOM     33  C   UNL     1       2.286   7.204  19.406  0.00  0.00    +0.000 A 
ATOM     34 CL   UNL     1       2.959   5.643  19.663  0.00  0.00    +0.000 Cl
ATOM     35  C   UNL     1       2.363   7.798  18.146  0.00  0.00    +0.000 A 
ATOM     36  C   UNL     1       1.762   9.044  17.923  0.00  0.00    +0.000 A 
ENDBRANCH  29  30
ENDBRANCH   7  29
TORSDOF 7
ENDMDL
MODEL 5
REMARK VINA RESULT:      -6.7      2.609      3.189
REMARK  Name = 
REMARK  10 active torsions:
REMARK  status: ('A' for Active; 'I' for Inactive)
REMARK    1  A    between atoms: C_1  and  O_2
REMARK    2  A    between atoms: O_2  and  C_3
REMARK    3  A    between atoms: C_3  and  C_5
REMARK    4  A    between atoms: C_5  and  C_6
REMARK    5  A    between atoms: C_5  and  C_7
REMARK    6  A    between atoms: C_5  and  C_8
REMARK    7  A    between atoms: C_8  and  N_9
REMARK    8  A    between atoms: N_14  and  C_15
REMARK    9  A    between atoms: N_24  and  C_25
REMARK   10  A    between atoms: C_25  and  C_26
REMARK                            x       y       z     vdW  Elec       q    Type
REMARK                         _______ _______ _______ _____ _____    ______ ____
ROOT
ATOM      1  N   UNL     1       2.277  13.825  20.433  0.00  0.00    +0.000 N 
ATOM      2  C   UNL     1       1.407  14.224  21.412  0.00  0.00    +0.000 A 
ATOM      3  O   UNL     1       1.603  15.162  22.183  0.00  0.00    +0.000 OA
ATOM      4  N   UNL     1       0.256  13.523  21.513  0.00  0.00    +0.000 N 
ATOM      5  C   UNL     1      -0.220  12.667  20.569  0.00  0.00    +0.000 A 
ATOM      6  N   UNL     1      -1.434  12.215  20.563  0.00  0.00    +0.000 NA
ATOM      7  N   UNL     1       0.683  12.298  19.592  0.00  0.00    +0.000 N 
ATOM      8  C   UNL     1       1.934  12.893  19.464  0.00  0.00    +0.000 A 
ATOM      9  O   UNL     1       2.696  12.623  18.534  0.00  0.00    +0.000 OA
ATOM     10  H   UNL     1      -0.319  13.797  22.292  0.00  0.00    +0.000 HD
ENDROOT
BRANCH   6  11
ATOM     11  C   UNL     1      -2.411  12.576  21.516  0.00  0.00    +0.000 A 
ATOM     12  C   UNL     1      -2.367  11.950  22.766  0.00  0.00    +0.000 A 
ATOM     13  C   UNL     1      -3.256  12.273  23.796  0.00  0.00    +0.000 A 
ATOM     14  C   UNL     1      -4.170  13.305  23.552  0.00  0.00    +0.000 A 
ATOM     15  N   UNL     1      -5.116  13.881  24.370  0.00  0.00    +0.000 N 
ATOM     16  C   UNL     1      -5.749  14.898  23.713  0.00  0.00    +0.000 A 
ATOM     17  C   UNL     1      -5.252  14.950  22.429  0.00  0.00    +0.000 A 
ATOM     18  C   UNL     1      -4.271  13.930  22.312  0.00  0.00    +0.000 A 
ATOM     19  C   UNL     1      -3.441  13.493  21.263  0.00  0.00    +0.000 A 
ATOM     20  H   UNL     1      -5.294  13.605  25.327  0.00  0.00    +0.000 HD
ENDBRANCH   6  11
BRANCH   1  21
ATOM     21  C   UNL     1       3.623  14.406  20.442  0.00  0.00    +0.000 C 
BRANCH  21  22
ATOM     22  C   UNL     1       3.718  15.756  19.672  0.00  0.00    +0.000 C 
ATOM     23  C   UNL     1       3.679  16.943  20.646  0.00  0.00    +0.000 C 
ATOM     24  C   UNL     1       2.594  15.906  18.631  0.00  0.00    +0.000 C 
BRANCH  22  25
ATOM     25  C   UNL     1       5.056  15.766  18.933  0.00  0.00    +0.000 C 
ATOM     26  O   UNL     1       5.951  16.580  19.116  0.00  0.00    +0.000 OA
BRANCH  25  28
ATOM     27  C   UNL     1       6.453  14.362  17.671  0.00  0.00    +0.000 C 
ATOM     28  O   UNL     1       5.126  14.741  18.035  0.00  0.00    +0.000 OA
ENDBRANCH  25  28
ENDBRANCH  22  25
ENDBRANCH  21  22
ENDBRANCH   1  21
BRANCH   7  29
ATOM     29  C   UNL     1       0.315  11.285  18.601  0.00  0.00    +0.000 C 
BRANCH  29  30
ATOM     30  C   UNL     1       0.913   9.909  18.863  0.00  0.00    +0.000 A 
ATOM     31  C   UNL     1       1.594   9.222  17.847  0.00  0.00    +0.000 A 
ATOM     32  C   UNL     1       2.264   8.023  18.116  0.00  0.00    +0.000 A 
ATOM     33  C   UNL     1       2.253   7.496  19.404  0.00  0.00    +0.000 A 
ATOM     34 CL   UNL     1       3.136   6.062  19.750  0.00  0.00    +0.000 Cl
ATOM     35  C   UNL     1       1.540   8.137  20.417  0.00  0.00    +0.000 A 
ATOM     36  C   UNL     1       0.870   9.337  20.147  0.00  0.00    +0.000 A 
ENDBRANCH  29  30
ENDBRANCH   7  29
TORSDOF 7
ENDMDL
MODEL 6
REMARK VINA RESULT:      -6.7      2.898      6.574
REMARK  Name = 
REMARK  10 active torsions:
REMARK  status: ('A' for Active; 'I' for Inactive)
REMARK    1  A    between atoms: C_1  and  O_2
REMARK    2  A    between atoms: O_2  and  C_3
REMARK    3  A    between atoms: C_3  and  C_5
REMARK    4  A    between atoms: C_5  and  C_6
REMARK    5  A    between atoms: C_5  and  C_7
REMARK    6  A    between atoms: C_5  and  C_8
REMARK    7  A    between atoms: C_8  and  N_9
REMARK    8  A    between atoms: N_14  and  C_15
REMARK    9  A    between atoms: N_24  and  C_25
REMARK   10  A    between atoms: C_25  and  C_26
REMARK                            x       y       z     vdW  Elec       q    Type
REMARK                         _______ _______ _______ _____ _____    ______ ____
ROOT
ATOM      1  N   UNL     1       1.255  13.457  18.549  0.00  0.00    +0.000 N 
ATOM      2  C   UNL     1       2.325  12.612  18.424  0.00  0.00    +0.000 A 
ATOM      3  O   UNL     1       3.499  12.974  18.368  0.00  0.00    +0.000 OA
ATOM      4  N   UNL     1       2.042  11.293  18.365  0.00  0.00    +0.000 N 
ATOM      5  C   UNL     1       0.846  10.736  18.698  0.00  0.00    +0.000 A 
ATOM      6  N   UNL     1       0.679   9.466  18.888  0.00  0.00    +0.000 NA
ATOM      7  N   UNL     1      -0.206  11.622  18.827  0.00  0.00    +0.000 N 
ATOM      8  C   UNL     1      -0.031  13.002  18.804  0.00  0.00    +0.000 A 
ATOM      9  O   UNL     1      -0.960  13.784  19.013  0.00  0.00    +0.000 OA
ATOM     10  H   UNL     1       2.847  10.713  18.195  0.00  0.00    +0.000 HD
ENDROOT
BRANCH   6  11
ATOM     11  C   UNL     1       1.718   8.514  18.798  0.00  0.00    +0.000 A 
ATOM     12  C   UNL     1       1.876   7.619  19.861  0.00  0.00    +0.000 A 
ATOM     13  C   UNL     1       2.841   6.606  19.847  0.00  0.00    +0.000 A 
ATOM     14  C   UNL     1       3.615   6.475  18.689  0.00  0.00    +0.000 A 
ATOM     15  N   UNL     1       4.587   5.559  18.355  0.00  0.00    +0.000 N 
ATOM     16  C   UNL     1       5.038   5.793  17.086  0.00  0.00    +0.000 A 
ATOM     17  C   UNL     1       4.396   6.914  16.606  0.00  0.00    +0.000 A 
ATOM     18  C   UNL     1       3.514   7.366  17.623  0.00  0.00    +0.000 A 
ATOM     19  C   UNL     1       2.617   8.445  17.725  0.00  0.00    +0.000 A 
ATOM     20  H   UNL     1       4.898   4.806  18.954  0.00  0.00    +0.000 HD
ENDBRANCH   6  11
BRANCH   1  21
ATOM     21  C   UNL     1       1.500  14.894  18.385  0.00  0.00    +0.000 C 
BRANCH  21  22
ATOM     22  C   UNL     1       1.703  15.644  19.735  0.00  0.00    +0.000 C 
ATOM     23  C   UNL     1       1.990  14.651  20.871  0.00  0.00    +0.000 C 
ATOM     24  C   UNL     1       0.485  16.511  20.102  0.00  0.00    +0.000 C 
BRANCH  22  25
ATOM     25  C   UNL     1       2.911  16.566  19.567  0.00  0.00    +0.000 C 
ATOM     26  O   UNL     1       2.849  17.773  19.372  0.00  0.00    +0.000 OA
BRANCH  25  28
ATOM     27  C   UNL     1       5.053  16.201  18.678  0.00  0.00    +0.000 C 
ATOM     28  O   UNL     1       4.078  15.865  19.663  0.00  0.00    +0.000 OA
ENDBRANCH  25  28
ENDBRANCH  22  25
ENDBRANCH  21  22
ENDBRANCH   1  21
BRANCH   7  29
ATOM     29  C   UNL     1      -1.560  11.119  19.058  0.00  0.00    +0.000 C 
BRANCH  29  30
ATOM     30  C   UNL     1      -2.324  10.773  17.787  0.00  0.00    +0.000 A 
ATOM     31  C   UNL     1      -3.455  11.512  17.410  0.00  0.00    +0.000 A 
ATOM     32  C   UNL     1      -4.078  11.292  16.177  0.00  0.00    +0.000 A 
ATOM     33  C   UNL     1      -3.579  10.324  15.310  0.00  0.00    +0.000 A 
ATOM     34 CL   UNL     1      -4.301  10.103  13.766  0.00  0.00    +0.000 Cl
ATOM     35  C   UNL     1      -2.487   9.543  15.687  0.00  0.00    +0.000 A 
ATOM     36  C   UNL     1      -1.863   9.764  16.921  0.00  0.00    +0.000 A 
ENDBRANCH  29  30
ENDBRANCH   7  29
TORSDOF 7
ENDMDL
MODEL 7
REMARK VINA RESULT:      -6.6      3.557      7.870
REMARK  Name = 
REMARK  10 active torsions:
REMARK  status: ('A' for Active; 'I' for Inactive)
REMARK    1  A    between atoms: C_1  and  O_2
REMARK    2  A    between atoms: O_2  and  C_3
REMARK    3  A    between atoms: C_3  and  C_5
REMARK    4  A    between atoms: C_5  and  C_6
REMARK    5  A    between atoms: C_5  and  C_7
REMARK    6  A    between atoms: C_5  and  C_8
REMARK    7  A    between atoms: C_8  and  N_9
REMARK    8  A    between atoms: N_14  and  C_15
REMARK    9  A    between atoms: N_24  and  C_25
REMARK   10  A    between atoms: C_25  and  C_26
REMARK                            x       y       z     vdW  Elec       q    Type
REMARK                         _______ _______ _______ _____ _____    ______ ____
ROOT
ATOM      1  N   UNL     1      -1.096  13.453  23.066  0.00  0.00    +0.000 N 
ATOM      2  C   UNL     1      -0.250  14.477  22.734  0.00  0.00    +0.000 A 
ATOM      3  O   UNL     1      -0.137  15.525  23.368  0.00  0.00    +0.000 OA
ATOM      4  N   UNL     1       0.506  14.295  21.629  0.00  0.00    +0.000 N 
ATOM      5  C   UNL     1       0.700  13.102  21.005  0.00  0.00    +0.000 A 
ATOM      6  N   UNL     1       1.624  12.901  20.121  0.00  0.00    +0.000 NA
ATOM      7  N   UNL     1      -0.165  12.091  21.376  0.00  0.00    +0.000 N 
ATOM      8  C   UNL     1      -1.052  12.216  22.440  0.00  0.00    +0.000 A 
ATOM      9  O   UNL     1      -1.753  11.277  22.823  0.00  0.00    +0.000 OA
ATOM     10  H   UNL     1       1.055  15.100  21.376  0.00  0.00    +0.000 HD
ENDROOT
BRANCH   6  11
ATOM     11  C   UNL     1       2.555  13.884  19.720  0.00  0.00    +0.000 A 
ATOM     12  C   UNL     1       2.405  14.446  18.448  0.00  0.00    +0.000 A 
ATOM     13  C   UNL     1       3.242  15.462  17.976  0.00  0.00    +0.000 A 
ATOM     14  C   UNL     1       4.214  15.951  18.856  0.00  0.00    +0.000 A 
ATOM     15  N   UNL     1       5.132  16.966  18.709  0.00  0.00    +0.000 N 
ATOM     16  C   UNL     1       5.849  17.123  19.862  0.00  0.00    +0.000 A 
ATOM     17  C   UNL     1       5.436  16.158  20.754  0.00  0.00    +0.000 A 
ATOM     18  C   UNL     1       4.420  15.397  20.117  0.00  0.00    +0.000 A 
ATOM     19  C   UNL     1       3.638  14.295  20.510  0.00  0.00    +0.000 A 
ATOM     20  H   UNL     1       5.238  17.530  17.876  0.00  0.00    +0.000 HD
ENDBRANCH   6  11
BRANCH   1  21
ATOM     21  C   UNL     1      -2.090  13.706  24.114  0.00  0.00    +0.000 C 
BRANCH  21  22
ATOM     22  C   UNL     1      -3.456  14.210  23.561  0.00  0.00    +0.000 C 
ATOM     23  C   UNL     1      -3.457  14.205  22.026  0.00  0.00    +0.000 C 
ATOM     24  C   UNL     1      -3.799  15.621  24.072  0.00  0.00    +0.000 C 
BRANCH  22  25
ATOM     25  C   UNL     1      -4.533  13.247  24.060  0.00  0.00    +0.000 C 
ATOM     26  O   UNL     1      -4.318  12.134  24.520  0.00  0.00    +0.000 OA
BRANCH  25  28
ATOM     27  C   UNL     1      -6.806  12.854  23.621  0.00  0.00    +0.000 C 
ATOM     28  O   UNL     1      -5.776  13.794  23.927  0.00  0.00    +0.000 OA
ENDBRANCH  25  28
ENDBRANCH  22  25
ENDBRANCH  21  22
ENDBRANCH   1  21
BRANCH   7  29
ATOM     29  C   UNL     1      -0.128  10.805  20.678  0.00  0.00    +0.000 C 
BRANCH  29  30
ATOM     30  C   UNL     1      -0.997  10.748  19.428  0.00  0.00    +0.000 A 
ATOM     31  C   UNL     1      -2.071  11.635  19.263  0.00  0.00    +0.000 A 
ATOM     32  C   UNL     1      -2.786  11.682  18.061  0.00  0.00    +0.000 A 
ATOM     33  C   UNL     1      -2.436  10.837  17.013  0.00  0.00    +0.000 A 
ATOM     34 CL   UNL     1      -3.267  10.945  15.512  0.00  0.00    +0.000 Cl
ATOM     35  C   UNL     1      -1.403   9.912  17.173  0.00  0.00    +0.000 A 
ATOM     36  C   UNL     1      -0.688   9.866  18.376  0.00  0.00    +0.000 A 
ENDBRANCH  29  30
ENDBRANCH   7  29
TORSDOF 7
ENDMDL
MODEL 8
REMARK VINA RESULT:      -6.6      3.092      6.387
REMARK  Name = 
REMARK  10 active torsions:
REMARK  status: ('A' for Active; 'I' for Inactive)
REMARK    1  A    between atoms: C_1  and  O_2
REMARK    2  A    between atoms: O_2  and  C_3
REMARK    3  A    between atoms: C_3  and  C_5
REMARK    4  A    between atoms: C_5  and  C_6
REMARK    5  A    between atoms: C_5  and  C_7
REMARK    6  A    between atoms: C_5  and  C_8
REMARK    7  A    between atoms: C_8  and  N_9
REMARK    8  A    between atoms: N_14  and  C_15
REMARK    9  A    between atoms: N_24  and  C_25
REMARK   10  A    between atoms: C_25  and  C_26
REMARK                            x       y       z     vdW  Elec       q    Type
REMARK                         _______ _______ _______ _____ _____    ______ ____
ROOT
ATOM      1  N   UNL     1       1.083  14.567  20.593  0.00  0.00    +0.000 N 
ATOM      2  C   UNL     1       1.970  13.526  20.657  0.00  0.00    +0.000 A 
ATOM      3  O   UNL     1       3.117  13.610  21.093  0.00  0.00    +0.000 OA
ATOM      4  N   UNL     1       1.527  12.333  20.205  0.00  0.00    +0.000 N 
ATOM      5  C   UNL     1       0.223  12.025  19.968  0.00  0.00    +0.000 A 
ATOM      6  N   UNL     1      -0.204  10.815  19.794  0.00  0.00    +0.000 NA
ATOM      7  N   UNL     1      -0.643  13.100  19.924  0.00  0.00    +0.000 N 
ATOM      8  C   UNL     1      -0.256  14.388  20.278  0.00  0.00    +0.000 A 
ATOM      9  O   UNL     1      -1.058  15.324  20.325  0.00  0.00    +0.000 OA
ATOM     10  H   UNL     1       2.232  11.615  20.195  0.00  0.00    +0.000 HD
ENDROOT
BRANCH   6  11
ATOM     11  C   UNL     1       0.624   9.673  19.854  0.00  0.00    +0.000 A 
ATOM     12  C   UNL     1       0.622   8.926  21.037  0.00  0.00    +0.000 A 
ATOM     13  C   UNL     1       1.367   7.751  21.180  0.00  0.00    +0.000 A 
ATOM     14  C   UNL     1       2.079   7.304  20.061  0.00  0.00    +0.000 A 
ATOM     15  N   UNL     1       2.843   6.175  19.874  0.00  0.00    +0.000 N 
ATOM     16  C   UNL     1       3.309   6.130  18.590  0.00  0.00    +0.000 A 
ATOM     17  C   UNL     1       2.893   7.274  17.946  0.00  0.00    +0.000 A 
ATOM     18  C   UNL     1       2.136   8.034  18.877  0.00  0.00    +0.000 A 
ATOM     19  C   UNL     1       1.472   9.273  18.811  0.00  0.00    +0.000 A 
ATOM     20  H   UNL     1       3.011   5.469  20.579  0.00  0.00    +0.000 HD
ENDBRANCH   6  11
BRANCH   1  21
ATOM     21  C   UNL     1       1.597  15.915  20.856  0.00  0.00    +0.000 C 
BRANCH  21  22
ATOM     22  C   UNL     1       2.138  16.629  19.581  0.00  0.00    +0.000 C 
ATOM     23  C   UNL     1       1.303  17.877  19.261  0.00  0.00    +0.000 C 
ATOM     24  C   UNL     1       2.155  15.692  18.360  0.00  0.00    +0.000 C 
BRANCH  22  25
ATOM     25  C   UNL     1       3.576  17.057  19.874  0.00  0.00    +0.000 C 
ATOM     26  O   UNL     1       4.429  17.273  19.023  0.00  0.00    +0.000 OA
BRANCH  25  28
ATOM     27  C   UNL     1       4.337  18.422  21.626  0.00  0.00    +0.000 C 
ATOM     28  O   UNL     1       3.788  17.170  21.217  0.00  0.00    +0.000 OA
ENDBRANCH  25  28
ENDBRANCH  22  25
ENDBRANCH  21  22
ENDBRANCH   1  21
BRANCH   7  29
ATOM     29  C   UNL     1      -2.043  12.896  19.552  0.00  0.00    +0.000 C 
BRANCH  29  30
ATOM     30  C   UNL     1      -3.017  12.969  20.721  0.00  0.00    +0.000 A 
ATOM     31  C   UNL     1      -4.357  13.328  20.511  0.00  0.00    +0.000 A 
ATOM     32  C   UNL     1      -5.289  13.264  21.553  0.00  0.00    +0.000 A 
ATOM     33  C   UNL     1      -4.888  12.845  22.818  0.00  0.00    +0.000 A 
ATOM     34 CL   UNL     1      -6.047  12.697  24.079  0.00  0.00    +0.000 Cl
ATOM     35  C   UNL     1      -3.550  12.533  23.060  0.00  0.00    +0.000 A 
ATOM     36  C   UNL     1      -2.618  12.597  22.017  0.00  0.00    +0.000 A 
ENDBRANCH  29  30
ENDBRANCH   7  29
TORSDOF 7
ENDMDL
MODEL 9
REMARK VINA RESULT:      -6.6      2.380      3.142
REMARK  Name = 
REMARK  10 active torsions:
REMARK  status: ('A' for Active; 'I' for Inactive)
REMARK    1  A    between atoms: C_1  and  O_2
REMARK    2  A    between atoms: O_2  and  C_3
REMARK    3  A    between atoms: C_3  and  C_5
REMARK    4  A    between atoms: C_5  and  C_6
REMARK    5  A    between atoms: C_5  and  C_7
REMARK    6  A    between atoms: C_5  and  C_8
REMARK    7  A    between atoms: C_8  and  N_9
REMARK    8  A    between atoms: N_14  and  C_15
REMARK    9  A    between atoms: N_24  and  C_25
REMARK   10  A    between atoms: C_25  and  C_26
REMARK                            x       y       z     vdW  Elec       q    Type
REMARK                         _______ _______ _______ _____ _____    ______ ____
ROOT
ATOM      1  N   UNL     1       2.252  13.865  19.953  0.00  0.00    +0.000 N 
ATOM      2  C   UNL     1       1.319  14.342  20.834  0.00  0.00    +0.000 A 
ATOM      3  O   UNL     1       1.432  15.385  21.476  0.00  0.00    +0.000 OA
ATOM      4  N   UNL     1       0.204  13.596  20.987  0.00  0.00    +0.000 N 
ATOM      5  C   UNL     1      -0.185  12.594  20.153  0.00  0.00    +0.000 A 
ATOM      6  N   UNL     1      -1.371  12.076  20.163  0.00  0.00    +0.000 NA
ATOM      7  N   UNL     1       0.780  12.149  19.270  0.00  0.00    +0.000 N 
ATOM      8  C   UNL     1       2.002  12.793  19.108  0.00  0.00    +0.000 A 
ATOM      9  O   UNL     1       2.819  12.444  18.253  0.00  0.00    +0.000 OA
ATOM     10  H   UNL     1      -0.419  13.939  21.699  0.00  0.00    +0.000 HD
ENDROOT
BRANCH   6  11
ATOM     11  C   UNL     1      -2.408  12.505  21.020  0.00  0.00    +0.000 A 
ATOM     12  C   UNL     1      -3.421  13.300  20.473  0.00  0.00    +0.000 A 
ATOM     13  C   UNL     1      -4.518  13.733  21.224  0.00  0.00    +0.000 A 
ATOM     14  C   UNL     1      -4.605  13.287  22.548  0.00  0.00    +0.000 A 
ATOM     15  N   UNL     1      -5.574  13.490  23.504  0.00  0.00    +0.000 N 
ATOM     16  C   UNL     1      -5.255  12.813  24.648  0.00  0.00    +0.000 A 
ATOM     17  C   UNL     1      -4.032  12.209  24.458  0.00  0.00    +0.000 A 
ATOM     18  C   UNL     1      -3.602  12.525  23.141  0.00  0.00    +0.000 A 
ATOM     19  C   UNL     1      -2.455  12.210  22.390  0.00  0.00    +0.000 A 
ATOM     20  H   UNL     1      -6.413  14.039  23.367  0.00  0.00    +0.000 HD
ENDBRANCH   6  11
BRANCH   1  21
ATOM     21  C   UNL     1       3.565  14.519  19.932  0.00  0.00    +0.000 C 
BRANCH  21  22
ATOM     22  C   UNL     1       3.709  15.580  18.801  0.00  0.00    +0.000 C 
ATOM     23  C   UNL     1       2.351  15.856  18.138  0.00  0.00    +0.000 C 
ATOM     24  C   UNL     1       4.727  15.147  17.730  0.00  0.00    +0.000 C 
BRANCH  22  25
ATOM     25  C   UNL     1       4.215  16.869  19.447  0.00  0.00    +0.000 C 
ATOM     26  O   UNL     1       3.506  17.707  19.988  0.00  0.00    +0.000 OA
BRANCH  25  28
ATOM     27  C   UNL     1       6.235  17.319  20.557  0.00  0.00    +0.000 C 
ATOM     28  O   UNL     1       5.572  16.967  19.343  0.00  0.00    +0.000 OA
ENDBRANCH  25  28
ENDBRANCH  22  25
ENDBRANCH  21  22
ENDBRANCH   1  21
BRANCH   7  29
ATOM     29  C   UNL     1       0.510  10.993  18.415  0.00  0.00    +0.000 C 
BRANCH  29  30
ATOM     30  C   UNL     1       1.210   9.713  18.855  0.00  0.00    +0.000 A 
ATOM     31  C   UNL     1       1.031   9.212  20.153  0.00  0.00    +0.000 A 
ATOM     32  C   UNL     1       1.556   7.968  20.521  0.00  0.00    +0.000 A 
ATOM     33  C   UNL     1       2.273   7.216  19.595  0.00  0.00    +0.000 A 
ATOM     34 CL   UNL     1       2.856   5.657  20.025  0.00  0.00    +0.000 Cl
ATOM     35  C   UNL     1       2.506   7.719  18.314  0.00  0.00    +0.000 A 
ATOM     36  C   UNL     1       1.979   8.964  17.947  0.00  0.00    +0.000 A 
ENDBRANCH  29  30
ENDBRANCH   7  29
TORSDOF 7
ENDMDL
