MODEL 1
REMARK VINA RESULT:      -8.1      0.000      0.000
REMARK  Name = 
REMARK  2 active torsions:
REMARK  status: ('A' for Active; 'I' for Inactive)
REMARK    1  A    between atoms: C_1  and  N_2
REMARK    2  A    between atoms: C_7  and  C_9
REMARK                            x       y       z     vdW  Elec       q    Type
REMARK                         _______ _______ _______ _____ _____    ______ ____
ROOT
ATOM      1  C   UNL     1       7.351   4.144  11.653  0.00  0.00    +0.000 C 
ATOM      2  N   UNL     1       7.059   4.515  13.011  0.00  0.00    +0.000 N 
ATOM      3  N   UNL     1       7.827   5.380  13.682  0.00  0.00    +0.000 NA
ATOM      4  N   UNL     1       7.215   5.531  14.847  0.00  0.00    +0.000 NA
ATOM      5  C   UNL     1       6.106   4.730  14.820  0.00  0.00    +0.000 A 
ATOM      6  N   UNL     1       5.195   4.613  15.840  0.00  0.00    +0.000 N 
ATOM      7  C   UNL     1       5.180   5.463  16.919  0.00  0.00    +0.000 C 
ATOM      8  O   UNL     1       5.917   6.432  17.078  0.00  0.00    +0.000 OA
ATOM      9  N   UNL     1       5.986   4.040  13.677  0.00  0.00    +0.000 NA
ATOM     10  H   UNL     1       4.469   3.936  15.675  0.00  0.00    +0.000 HD
ENDROOT
BRANCH   7  11
ATOM     11  C   UNL     1       4.144   5.206  17.959  0.00  0.00    +0.000 A 
ATOM     12  C   UNL     1       2.972   5.959  18.060  0.00  0.00    +0.000 A 
ATOM     13  C   UNL     1       1.999   5.605  19.003  0.00  0.00    +0.000 A 
ATOM     14  C   UNL     1       2.175   4.498  19.852  0.00  0.00    +0.000 A 
ATOM     15  C   UNL     1       1.192   4.112  20.780  0.00  0.00    +0.000 A 
ATOM     16  C   UNL     1       1.384   3.001  21.604  0.00  0.00    +0.000 A 
ATOM     17  C   UNL     1       2.562   2.265  21.519  0.00  0.00    +0.000 A 
ATOM     18  C   UNL     1       3.547   2.635  20.602  0.00  0.00    +0.000 A 
ATOM     19  C   UNL     1       3.365   3.743  19.760  0.00  0.00    +0.000 A 
ATOM     20  C   UNL     1       4.335   4.108  18.813  0.00  0.00    +0.000 A 
ENDBRANCH   7  11
TORSDOF 1
ENDMDL
MODEL 2
REMARK VINA RESULT:      -7.6      2.018      3.357
REMARK  Name = 
REMARK  2 active torsions:
REMARK  status: ('A' for Active; 'I' for Inactive)
REMARK    1  A    between atoms: C_1  and  N_2
REMARK    2  A    between atoms: C_7  and  C_9
REMARK                            x       y       z     vdW  Elec       q    Type
REMARK                         _______ _______ _______ _____ _____    ______ ____
ROOT
ATOM      1  C   UNL     1       6.860   3.511  12.103  0.00  0.00    +0.000 C 
ATOM      2  N   UNL     1       6.665   4.244  13.325  0.00  0.00    +0.000 N 
ATOM      3  N   UNL     1       7.598   5.078  13.798  0.00  0.00    +0.000 NA
ATOM      4  N   UNL     1       7.044   5.617  14.873  0.00  0.00    +0.000 NA
ATOM      5  C   UNL     1       5.799   5.063  15.000  0.00  0.00    +0.000 A 
ATOM      6  N   UNL     1       4.898   5.371  15.988  0.00  0.00    +0.000 N 
ATOM      7  C   UNL     1       5.065   6.440  16.835  0.00  0.00    +0.000 C 
ATOM      8  O   UNL     1       5.979   7.257  16.785  0.00  0.00    +0.000 OA
ATOM      9  N   UNL     1       5.530   4.158  14.048  0.00  0.00    +0.000 NA
ATOM     10  H   UNL     1       4.051   4.827  15.963  0.00  0.00    +0.000 HD
ENDROOT
BRANCH   7  11
ATOM     11  C   UNL     1       4.013   6.642  17.871  0.00  0.00    +0.000 A 
ATOM     12  C   UNL     1       3.833   5.768  18.946  0.00  0.00    +0.000 A 
ATOM     13  C   UNL     1       2.886   6.066  19.933  0.00  0.00    +0.000 A 
ATOM     14  C   UNL     1       2.109   7.237  19.866  0.00  0.00    +0.000 A 
ATOM     15  C   UNL     1       1.178   7.566  20.867  0.00  0.00    +0.000 A 
ATOM     16  C   UNL     1       0.427   8.741  20.787  0.00  0.00    +0.000 A 
ATOM     17  C   UNL     1       0.590   9.599  19.703  0.00  0.00    +0.000 A 
ATOM     18  C   UNL     1       1.511   9.287  18.703  0.00  0.00    +0.000 A 
ATOM     19  C   UNL     1       2.280   8.115  18.774  0.00  0.00    +0.000 A 
ATOM     20  C   UNL     1       3.232   7.805  17.789  0.00  0.00    +0.000 A 
ENDBRANCH   7  11
TORSDOF 1
ENDMDL
MODEL 3
REMARK VINA RESULT:      -7.4      5.249      7.265
REMARK  Name = 
REMARK  2 active torsions:
REMARK  status: ('A' for Active; 'I' for Inactive)
REMARK    1  A    between atoms: C_1  and  N_2
REMARK    2  A    between atoms: C_7  and  C_9
REMARK                            x       y       z     vdW  Elec       q    Type
REMARK                         _______ _______ _______ _____ _____    ______ ____
ROOT
ATOM      1  C   UNL     1      -0.308  12.388  21.890  0.00  0.00    +0.000 C 
ATOM      2  N   UNL     1       0.142  11.572  20.795  0.00  0.00    +0.000 N 
ATOM      3  N   UNL     1       0.176  12.038  19.542  0.00  0.00    +0.000 NA
ATOM      4  N   UNL     1       0.708  11.052  18.836  0.00  0.00    +0.000 NA
ATOM      5  C   UNL     1       0.956  10.027  19.709  0.00  0.00    +0.000 A 
ATOM      6  N   UNL     1       1.520   8.823  19.370  0.00  0.00    +0.000 N 
ATOM      7  C   UNL     1       2.104   8.599  18.146  0.00  0.00    +0.000 C 
ATOM      8  O   UNL     1       2.239   9.430  17.254  0.00  0.00    +0.000 OA
ATOM      9  N   UNL     1       0.581  10.307  20.966  0.00  0.00    +0.000 NA
ATOM     10  H   UNL     1       1.579   8.162  20.127  0.00  0.00    +0.000 HD
ENDROOT
BRANCH   7  11
ATOM     11  C   UNL     1       2.662   7.237  17.912  0.00  0.00    +0.000 A 
ATOM     12  C   UNL     1       3.990   7.018  17.538  0.00  0.00    +0.000 A 
ATOM     13  C   UNL     1       4.471   5.708  17.422  0.00  0.00    +0.000 A 
ATOM     14  C   UNL     1       3.642   4.602  17.679  0.00  0.00    +0.000 A 
ATOM     15  C   UNL     1       4.121   3.282  17.600  0.00  0.00    +0.000 A 
ATOM     16  C   UNL     1       3.284   2.199  17.872  0.00  0.00    +0.000 A 
ATOM     17  C   UNL     1       1.954   2.418  18.221  0.00  0.00    +0.000 A 
ATOM     18  C   UNL     1       1.464   3.721  18.306  0.00  0.00    +0.000 A 
ATOM     19  C   UNL     1       2.296   4.821  18.044  0.00  0.00    +0.000 A 
ATOM     20  C   UNL     1       1.823   6.138  18.156  0.00  0.00    +0.000 A 
ENDBRANCH   7  11
TORSDOF 1
ENDMDL
MODEL 4
REMARK VINA RESULT:      -7.4      3.302      4.512
REMARK  Name = 
REMARK  2 active torsions:
REMARK  status: ('A' for Active; 'I' for Inactive)
REMARK    1  A    between atoms: C_1  and  N_2
REMARK    2  A    between atoms: C_7  and  C_9
REMARK                            x       y       z     vdW  Elec       q    Type
REMARK                         _______ _______ _______ _____ _____    ______ ____
ROOT
ATOM      1  C   UNL     1       7.178   4.730  14.130  0.00  0.00    +0.000 C 
ATOM      2  N   UNL     1       6.169   4.943  15.131  0.00  0.00    +0.000 N 
ATOM      3  N   UNL     1       5.815   3.977  15.987  0.00  0.00    +0.000 NA
ATOM      4  N   UNL     1       4.935   4.554  16.791  0.00  0.00    +0.000 NA
ATOM      5  C   UNL     1       4.794   5.847  16.365  0.00  0.00    +0.000 A 
ATOM      6  N   UNL     1       3.977   6.783  16.948  0.00  0.00    +0.000 N 
ATOM      7  C   UNL     1       3.376   6.583  18.167  0.00  0.00    +0.000 C 
ATOM      8  O   UNL     1       3.528   5.602  18.888  0.00  0.00    +0.000 OA
ATOM      9  N   UNL     1       5.541   6.128  15.287  0.00  0.00    +0.000 NA
ATOM     10  H   UNL     1       3.952   7.670  16.471  0.00  0.00    +0.000 HD
ENDROOT
BRANCH   7  11
ATOM     11  C   UNL     1       2.502   7.681  18.669  0.00  0.00    +0.000 A 
ATOM     12  C   UNL     1       1.982   8.674  17.834  0.00  0.00    +0.000 A 
ATOM     13  C   UNL     1       1.094   9.623  18.355  0.00  0.00    +0.000 A 
ATOM     14  C   UNL     1       0.709   9.596  19.707  0.00  0.00    +0.000 A 
ATOM     15  C   UNL     1      -0.207  10.522  20.236  0.00  0.00    +0.000 A 
ATOM     16  C   UNL     1      -0.586  10.468  21.579  0.00  0.00    +0.000 A 
ATOM     17  C   UNL     1      -0.049   9.493  22.414  0.00  0.00    +0.000 A 
ATOM     18  C   UNL     1       0.860   8.565  21.905  0.00  0.00    +0.000 A 
ATOM     19  C   UNL     1       1.243   8.601  20.555  0.00  0.00    +0.000 A 
ATOM     20  C   UNL     1       2.134   7.655  20.023  0.00  0.00    +0.000 A 
ENDBRANCH   7  11
TORSDOF 1
ENDMDL
MODEL 5
REMARK VINA RESULT:      -7.3      4.337      6.045
REMARK  Name = 
REMARK  2 active torsions:
REMARK  status: ('A' for Active; 'I' for Inactive)
REMARK    1  A    between atoms: C_1  and  N_2
REMARK    2  A    between atoms: C_7  and  C_9
REMARK                            x       y       z     vdW  Elec       q    Type
REMARK                         _______ _______ _______ _____ _____    ______ ____
ROOT
ATOM      1  C   UNL     1       3.544   1.588  18.290  0.00  0.00    +0.000 C 
ATOM      2  N   UNL     1       3.544   3.026  18.310  0.00  0.00    +0.000 N 
ATOM      3  N   UNL     1       4.400   3.737  17.568  0.00  0.00    +0.000 NA
ATOM      4  N   UNL     1       4.057   4.998  17.784  0.00  0.00    +0.000 NA
ATOM      5  C   UNL     1       3.010   4.980  18.665  0.00  0.00    +0.000 A 
ATOM      6  N   UNL     1       2.357   6.092  19.134  0.00  0.00    +0.000 N 
ATOM      7  C   UNL     1       2.542   7.341  18.594  0.00  0.00    +0.000 C 
ATOM      8  O   UNL     1       3.248   7.605  17.625  0.00  0.00    +0.000 OA
ATOM      9  N   UNL     1       2.672   3.741  19.051  0.00  0.00    +0.000 NA
ATOM     10  H   UNL     1       1.646   5.899  19.821  0.00  0.00    +0.000 HD
ENDROOT
BRANCH   7  11
ATOM     11  C   UNL     1       1.778   8.459  19.216  0.00  0.00    +0.000 A 
ATOM     12  C   UNL     1       1.362   9.583  18.498  0.00  0.00    +0.000 A 
ATOM     13  C   UNL     1       0.570  10.553  19.123  0.00  0.00    +0.000 A 
ATOM     14  C   UNL     1       0.177  10.417  20.467  0.00  0.00    +0.000 A 
ATOM     15  C   UNL     1      -0.646  11.366  21.098  0.00  0.00    +0.000 A 
ATOM     16  C   UNL     1      -1.034  11.204  22.429  0.00  0.00    +0.000 A 
ATOM     17  C   UNL     1      -0.600  10.096  23.151  0.00  0.00    +0.000 A 
ATOM     18  C   UNL     1       0.216   9.144  22.539  0.00  0.00    +0.000 A 
ATOM     19  C   UNL     1       0.607   9.288  21.198  0.00  0.00    +0.000 A 
ATOM     20  C   UNL     1       1.403   8.322  20.562  0.00  0.00    +0.000 A 
ENDBRANCH   7  11
TORSDOF 1
ENDMDL
MODEL 6
REMARK VINA RESULT:      -7.3      5.091      7.840
REMARK  Name = 
REMARK  2 active torsions:
REMARK  status: ('A' for Active; 'I' for Inactive)
REMARK    1  A    between atoms: C_1  and  N_2
REMARK    2  A    between atoms: C_7  and  C_9
REMARK                            x       y       z     vdW  Elec       q    Type
REMARK                         _______ _______ _______ _____ _____    ______ ____
ROOT
ATOM      1  C   UNL     1      -0.858  10.772  23.039  0.00  0.00    +0.000 C 
ATOM      2  N   UNL     1      -0.247  10.277  21.835  0.00  0.00    +0.000 N 
ATOM      3  N   UNL     1      -0.177  11.023  20.727  0.00  0.00    +0.000 NA
ATOM      4  N   UNL     1       0.506  10.279  19.870  0.00  0.00    +0.000 NA
ATOM      5  C   UNL     1       0.803   9.106  20.511  0.00  0.00    +0.000 A 
ATOM      6  N   UNL     1       1.517   8.070  19.963  0.00  0.00    +0.000 N 
ATOM      7  C   UNL     1       2.206   8.190  18.780  0.00  0.00    +0.000 C 
ATOM      8  O   UNL     1       2.311   9.215  18.113  0.00  0.00    +0.000 OA
ATOM      9  N   UNL     1       0.313   9.052  21.757  0.00  0.00    +0.000 NA
ATOM     10  H   UNL     1       1.595   7.259  20.554  0.00  0.00    +0.000 HD
ENDROOT
BRANCH   7  11
ATOM     11  C   UNL     1       2.923   6.976  18.298  0.00  0.00    +0.000 A 
ATOM     12  C   UNL     1       2.595   5.686  18.724  0.00  0.00    +0.000 A 
ATOM     13  C   UNL     1       3.249   4.583  18.163  0.00  0.00    +0.000 A 
ATOM     14  C   UNL     1       4.232   4.745  17.170  0.00  0.00    +0.000 A 
ATOM     15  C   UNL     1       4.872   3.645  16.574  0.00  0.00    +0.000 A 
ATOM     16  C   UNL     1       5.836   3.830  15.580  0.00  0.00    +0.000 A 
ATOM     17  C   UNL     1       6.179   5.116  15.174  0.00  0.00    +0.000 A 
ATOM     18  C   UNL     1       5.551   6.219  15.754  0.00  0.00    +0.000 A 
ATOM     19  C   UNL     1       4.573   6.049  16.748  0.00  0.00    +0.000 A 
ATOM     20  C   UNL     1       3.913   7.148  17.318  0.00  0.00    +0.000 A 
ENDBRANCH   7  11
TORSDOF 1
ENDMDL
MODEL 7
REMARK VINA RESULT:      -7.1      2.812      7.293
REMARK  Name = 
REMARK  2 active torsions:
REMARK  status: ('A' for Active; 'I' for Inactive)
REMARK    1  A    between atoms: C_1  and  N_2
REMARK    2  A    between atoms: C_7  and  C_9
REMARK                            x       y       z     vdW  Elec       q    Type
REMARK                         _______ _______ _______ _____ _____    ______ ____
ROOT
ATOM      1  C   UNL     1       1.403   2.508  21.716  0.00  0.00    +0.000 C 
ATOM      2  N   UNL     1       2.102   3.367  20.800  0.00  0.00    +0.000 N 
ATOM      3  N   UNL     1       2.258   4.673  21.044  0.00  0.00    +0.000 NA
ATOM      4  N   UNL     1       3.002   5.111  20.040  0.00  0.00    +0.000 NA
ATOM      5  C   UNL     1       3.247   4.036  19.228  0.00  0.00    +0.000 A 
ATOM      6  N   UNL     1       3.997   4.073  18.080  0.00  0.00    +0.000 N 
ATOM      7  C   UNL     1       4.774   5.153  17.738  0.00  0.00    +0.000 C 
ATOM      8  O   UNL     1       4.932   6.165  18.415  0.00  0.00    +0.000 OA
ATOM      9  N   UNL     1       2.664   2.909  19.661  0.00  0.00    +0.000 NA
ATOM     10  H   UNL     1       4.028   3.202  17.574  0.00  0.00    +0.000 HD
ENDROOT
BRANCH   7  11
ATOM     11  C   UNL     1       5.522   5.058  16.452  0.00  0.00    +0.000 A 
ATOM     12  C   UNL     1       6.830   5.526  16.303  0.00  0.00    +0.000 A 
ATOM     13  C   UNL     1       7.506   5.323  15.094  0.00  0.00    +0.000 A 
ATOM     14  C   UNL     1       6.894   4.650  14.021  0.00  0.00    +0.000 A 
ATOM     15  C   UNL     1       7.573   4.410  12.814  0.00  0.00    +0.000 A 
ATOM     16  C   UNL     1       6.950   3.728  11.766  0.00  0.00    +0.000 A 
ATOM     17  C   UNL     1       5.639   3.283  11.907  0.00  0.00    +0.000 A 
ATOM     18  C   UNL     1       4.952   3.512  13.101  0.00  0.00    +0.000 A 
ATOM     19  C   UNL     1       5.568   4.188  14.166  0.00  0.00    +0.000 A 
ATOM     20  C   UNL     1       4.899   4.398  15.382  0.00  0.00    +0.000 A 
ENDBRANCH   7  11
TORSDOF 1
ENDMDL
MODEL 8
REMARK VINA RESULT:      -7.1      3.177      4.775
REMARK  Name = 
REMARK  2 active torsions:
REMARK  status: ('A' for Active; 'I' for Inactive)
REMARK    1  A    between atoms: C_1  and  N_2
REMARK    2  A    between atoms: C_7  and  C_9
REMARK                            x       y       z     vdW  Elec       q    Type
REMARK                         _______ _______ _______ _____ _____    ______ ____
ROOT
ATOM      1  C   UNL     1       7.227   4.939  14.009  0.00  0.00    +0.000 C 
ATOM      2  N   UNL     1       6.252   4.955  15.067  0.00  0.00    +0.000 N 
ATOM      3  N   UNL     1       6.004   3.869  15.807  0.00  0.00    +0.000 NA
ATOM      4  N   UNL     1       5.125   4.278  16.710  0.00  0.00    +0.000 NA
ATOM      5  C   UNL     1       4.878   5.600  16.454  0.00  0.00    +0.000 A 
ATOM      6  N   UNL     1       4.028   6.396  17.179  0.00  0.00    +0.000 N 
ATOM      7  C   UNL     1       3.498   6.006  18.385  0.00  0.00    +0.000 C 
ATOM      8  O   UNL     1       3.748   4.958  18.973  0.00  0.00    +0.000 OA
ATOM      9  N   UNL     1       5.555   6.063  15.393  0.00  0.00    +0.000 NA
ATOM     10  H   UNL     1       3.921   7.330  16.818  0.00  0.00    +0.000 HD
ENDROOT
BRANCH   7  11
ATOM     11  C   UNL     1       2.576   6.968  19.053  0.00  0.00    +0.000 A 
ATOM     12  C   UNL     1       2.082   6.770  20.345  0.00  0.00    +0.000 A 
ATOM     13  C   UNL     1       1.292   7.757  20.945  0.00  0.00    +0.000 A 
ATOM     14  C   UNL     1       0.987   8.954  20.273  0.00  0.00    +0.000 A 
ATOM     15  C   UNL     1       0.223   9.969  20.877  0.00  0.00    +0.000 A 
ATOM     16  C   UNL     1      -0.057  11.155  20.195  0.00  0.00    +0.000 A 
ATOM     17  C   UNL     1       0.415  11.342  18.899  0.00  0.00    +0.000 A 
ATOM     18  C   UNL     1       1.176  10.345  18.287  0.00  0.00    +0.000 A 
ATOM     19  C   UNL     1       1.474   9.151  18.963  0.00  0.00    +0.000 A 
ATOM     20  C   UNL     1       2.263   8.154  18.369  0.00  0.00    +0.000 A 
ENDBRANCH   7  11
TORSDOF 1
ENDMDL
MODEL 9
REMARK VINA RESULT:      -7.1      4.885      7.638
REMARK  Name = 
REMARK  2 active torsions:
REMARK  status: ('A' for Active; 'I' for Inactive)
REMARK    1  A    between atoms: C_1  and  N_2
REMARK    2  A    between atoms: C_7  and  C_9
REMARK                            x       y       z     vdW  Elec       q    Type
REMARK                         _______ _______ _______ _____ _____    ______ ____
ROOT
ATOM      1  C   UNL     1      -0.255  11.717  21.279  0.00  0.00    +0.000 C 
ATOM      2  N   UNL     1       0.344  10.411  21.206  0.00  0.00    +0.000 N 
ATOM      3  N   UNL     1       0.185   9.512  22.183  0.00  0.00    +0.000 NA
ATOM      4  N   UNL     1       0.801   8.428  21.737  0.00  0.00    +0.000 NA
ATOM      5  C   UNL     1       1.316   8.739  20.508  0.00  0.00    +0.000 A 
ATOM      6  N   UNL     1       2.019   7.875  19.707  0.00  0.00    +0.000 N 
ATOM      7  C   UNL     1       2.092   6.526  19.960  0.00  0.00    +0.000 C 
ATOM      8  O   UNL     1       1.516   5.935  20.869  0.00  0.00    +0.000 OA
ATOM      9  N   UNL     1       1.072  10.007  20.145  0.00  0.00    +0.000 NA
ATOM     10  H   UNL     1       2.373   8.286  18.859  0.00  0.00    +0.000 HD
ENDROOT
BRANCH   7  11
ATOM     11  C   UNL     1       2.906   5.712  19.013  0.00  0.00    +0.000 A 
ATOM     12  C   UNL     1       2.861   4.315  18.986  0.00  0.00    +0.000 A 
ATOM     13  C   UNL     1       3.583   3.617  18.011  0.00  0.00    +0.000 A 
ATOM     14  C   UNL     1       4.354   4.295  17.050  0.00  0.00    +0.000 A 
ATOM     15  C   UNL     1       5.057   3.609  16.045  0.00  0.00    +0.000 A 
ATOM     16  C   UNL     1       5.806   4.303  15.093  0.00  0.00    +0.000 A 
ATOM     17  C   UNL     1       5.870   5.693  15.136  0.00  0.00    +0.000 A 
ATOM     18  C   UNL     1       5.176   6.390  16.126  0.00  0.00    +0.000 A 
ATOM     19  C   UNL     1       4.411   5.706  17.084  0.00  0.00    +0.000 A 
ATOM     20  C   UNL     1       3.685   6.396  18.067  0.00  0.00    +0.000 A 
ENDBRANCH   7  11
TORSDOF 1
ENDMDL
