MODEL 1
REMARK VINA RESULT:      -7.5      0.000      0.000
REMARK  Name = 
REMARK  9 active torsions:
REMARK  status: ('A' for Active; 'I' for Inactive)
REMARK    1  A    between atoms: C_1  and  C_2
REMARK    2  A    between atoms: C_2  and  C_3
REMARK    3  A    between atoms: C_2  and  N_4
REMARK    4  A    between atoms: C_9  and  C_10
REMARK    5  A    between atoms: C_16  and  O_17
REMARK    6  A    between atoms: O_17  and  C_18
REMARK    7  A    between atoms: C_18  and  C_19
REMARK    8  A    between atoms: C_22  and  C_23
REMARK    9  A    between atoms: C_23  and  O_25
REMARK                            x       y       z     vdW  Elec       q    Type
REMARK                         _______ _______ _______ _____ _____    ______ ____
ROOT
ATOM      1  C   UNL     1       3.021   5.846  18.334  0.00  0.00    +0.000 A 
ATOM      2  C   UNL     1       2.057   4.825  18.417  0.00  0.00    +0.000 A 
ATOM      3  C   UNL     1       2.389   3.582  18.950  0.00  0.00    +0.000 A 
ATOM      4 BR   UNL     1       1.086   2.217  19.041  0.00  0.00    +0.000 Br
ATOM      5  C   UNL     1       3.668   3.345  19.431  0.00  0.00    +0.000 A 
ATOM      6  C   UNL     1       4.635   4.349  19.345  0.00  0.00    +0.000 A 
ATOM      7  C   UNL     1       4.338   5.591  18.760  0.00  0.00    +0.000 A 
ENDROOT
BRANCH   1  13
ATOM      8  N   UNL     1       1.175   9.317  20.423  0.00  0.00    +0.000 N 
ATOM      9  C   UNL     1       1.086  10.296  19.462  0.00  0.00    +0.000 C 
ATOM     10  O   UNL     1       0.620  11.415  19.582  0.00  0.00    +0.000 OA
ATOM     11  S   UNL     1       1.691   9.699  17.929  0.00  0.00    +0.000 S 
ATOM     12  C   UNL     1       2.002   8.125  18.564  0.00  0.00    +0.000 C 
ATOM     13  C   UNL     1       2.545   7.143  17.831  0.00  0.00    +0.000 C 
ATOM     14  C   UNL     1       1.612   8.076  19.998  0.00  0.00    +0.000 C 
ATOM     15  O   UNL     1       1.628   7.062  20.683  0.00  0.00    +0.000 OA
BRANCH   8  17
ATOM     16  C   UNL     1      -0.646   8.609  21.982  0.00  0.00    +0.000 C 
ATOM     17  C   UNL     1       0.595   9.472  21.757  0.00  0.00    +0.000 C 
ATOM     18  C   UNL     1       1.650   9.231  22.839  0.00  0.00    +0.000 C 
ENDBRANCH   8  17
ENDBRANCH   1  13
BRANCH   7  19
ATOM     19  O   UNL     1       5.279   6.580  18.588  0.00  0.00    +0.000 OA
BRANCH  19  20
ATOM     20  C   UNL     1       6.526   6.127  18.046  0.00  0.00    +0.000 C 
BRANCH  20  21
ATOM     21  C   UNL     1       6.306   5.486  16.700  0.00  0.00    +0.000 A 
ATOM     22  C   UNL     1       6.847   4.229  16.407  0.00  0.00    +0.000 A 
ATOM     23  C   UNL     1       6.627   3.642  15.159  0.00  0.00    +0.000 A 
ATOM     24  C   UNL     1       5.867   4.309  14.190  0.00  0.00    +0.000 A 
ATOM     25  C   UNL     1       5.294   5.552  14.491  0.00  0.00    +0.000 A 
ATOM     26  C   UNL     1       5.526   6.142  15.735  0.00  0.00    +0.000 A 
BRANCH  24  27
ATOM     27  C   UNL     1       5.672   3.642  12.878  0.00  0.00    +0.000 C 
ATOM     28  O   UNL     1       4.599   3.616  12.301  0.00  0.00    +0.000 OA
BRANCH  27  29
ATOM     29  O   UNL     1       6.776   3.027  12.404  0.00  0.00    +0.000 OA
ATOM     30  H   UNL     1       7.613   3.502  12.560  0.00  0.00    +0.000 HD
ENDBRANCH  27  29
ENDBRANCH  24  27
ENDBRANCH  20  21
ENDBRANCH  19  20
ENDBRANCH   7  19
TORSDOF 7
ENDMDL
MODEL 2
REMARK VINA RESULT:      -7.3      2.759      7.627
REMARK  Name = 
REMARK  9 active torsions:
REMARK  status: ('A' for Active; 'I' for Inactive)
REMARK    1  A    between atoms: C_1  and  C_2
REMARK    2  A    between atoms: C_2  and  C_3
REMARK    3  A    between atoms: C_2  and  N_4
REMARK    4  A    between atoms: C_9  and  C_10
REMARK    5  A    between atoms: C_16  and  O_17
REMARK    6  A    between atoms: O_17  and  C_18
REMARK    7  A    between atoms: C_18  and  C_19
REMARK    8  A    between atoms: C_22  and  C_23
REMARK    9  A    between atoms: C_23  and  O_25
REMARK                            x       y       z     vdW  Elec       q    Type
REMARK                         _______ _______ _______ _____ _____    ______ ____
ROOT
ATOM      1  C   UNL     1       2.775   4.370  18.450  0.00  0.00    +0.000 A 
ATOM      2  C   UNL     1       2.954   3.260  19.295  0.00  0.00    +0.000 A 
ATOM      3  C   UNL     1       2.334   3.212  20.540  0.00  0.00    +0.000 A 
ATOM      4 BR   UNL     1       2.596   1.720  21.668  0.00  0.00    +0.000 Br
ATOM      5  C   UNL     1       1.509   4.249  20.952  0.00  0.00    +0.000 A 
ATOM      6  C   UNL     1       1.332   5.360  20.125  0.00  0.00    +0.000 A 
ATOM      7  C   UNL     1       1.993   5.455  18.889  0.00  0.00    +0.000 A 
ENDROOT
BRANCH   1  13
ATOM      8  N   UNL     1       6.793   5.647  17.019  0.00  0.00    +0.000 N 
ATOM      9  C   UNL     1       6.874   5.166  15.734  0.00  0.00    +0.000 C 
ATOM     10  O   UNL     1       7.795   5.301  14.946  0.00  0.00    +0.000 OA
ATOM     11  S   UNL     1       5.388   4.347  15.296  0.00  0.00    +0.000 S 
ATOM     12  C   UNL     1       4.641   4.703  16.810  0.00  0.00    +0.000 C 
ATOM     13  C   UNL     1       3.409   4.283  17.126  0.00  0.00    +0.000 C 
ATOM     14  C   UNL     1       5.578   5.487  17.659  0.00  0.00    +0.000 C 
ATOM     15  O   UNL     1       5.286   5.964  18.748  0.00  0.00    +0.000 OA
BRANCH   8  17
ATOM     16  C   UNL     1       7.499   8.004  17.460  0.00  0.00    +0.000 C 
ATOM     17  C   UNL     1       7.817   6.516  17.599  0.00  0.00    +0.000 C 
ATOM     18  C   UNL     1       8.093   6.133  19.054  0.00  0.00    +0.000 C 
ENDBRANCH   8  17
ENDBRANCH   1  13
BRANCH   7  19
ATOM     19  O   UNL     1       1.906   6.563  18.078  0.00  0.00    +0.000 OA
BRANCH  19  20
ATOM     20  C   UNL     1       2.528   7.739  18.609  0.00  0.00    +0.000 C 
BRANCH  20  21
ATOM     21  C   UNL     1       1.482   8.758  18.983  0.00  0.00    +0.000 A 
ATOM     22  C   UNL     1       0.809   9.490  17.998  0.00  0.00    +0.000 A 
ATOM     23  C   UNL     1      -0.165  10.423  18.359  0.00  0.00    +0.000 A 
ATOM     24  C   UNL     1      -0.473  10.636  19.709  0.00  0.00    +0.000 A 
ATOM     25  C   UNL     1       0.173   9.880  20.696  0.00  0.00    +0.000 A 
ATOM     26  C   UNL     1       1.155   8.957  20.333  0.00  0.00    +0.000 A 
BRANCH  24  27
ATOM     27  C   UNL     1      -1.511  11.647  20.034  0.00  0.00    +0.000 C 
ATOM     28  O   UNL     1      -2.176  12.211  19.183  0.00  0.00    +0.000 OA
BRANCH  27  29
ATOM     29  O   UNL     1      -1.619  11.920  21.352  0.00  0.00    +0.000 OA
ATOM     30  H   UNL     1      -2.521  12.123  21.659  0.00  0.00    +0.000 HD
ENDBRANCH  27  29
ENDBRANCH  24  27
ENDBRANCH  20  21
ENDBRANCH  19  20
ENDBRANCH   7  19
TORSDOF 7
ENDMDL
MODEL 3
REMARK VINA RESULT:      -7.1      4.054      6.722
REMARK  Name = 
REMARK  9 active torsions:
REMARK  status: ('A' for Active; 'I' for Inactive)
REMARK    1  A    between atoms: C_1  and  C_2
REMARK    2  A    between atoms: C_2  and  C_3
REMARK    3  A    between atoms: C_2  and  N_4
REMARK    4  A    between atoms: C_9  and  C_10
REMARK    5  A    between atoms: C_16  and  O_17
REMARK    6  A    between atoms: O_17  and  C_18
REMARK    7  A    between atoms: C_18  and  C_19
REMARK    8  A    between atoms: C_22  and  C_23
REMARK    9  A    between atoms: C_23  and  O_25
REMARK                            x       y       z     vdW  Elec       q    Type
REMARK                         _______ _______ _______ _____ _____    ______ ____
ROOT
ATOM      1  C   UNL     1      -0.412  11.341  19.178  0.00  0.00    +0.000 A 
ATOM      2  C   UNL     1      -1.695  11.782  18.809  0.00  0.00    +0.000 A 
ATOM      3  C   UNL     1      -2.453  11.060  17.890  0.00  0.00    +0.000 A 
ATOM      4 BR   UNL     1      -4.170  11.673  17.394  0.00  0.00    +0.000 Br
ATOM      5  C   UNL     1      -1.960   9.882  17.348  0.00  0.00    +0.000 A 
ATOM      6  C   UNL     1      -0.684   9.441  17.702  0.00  0.00    +0.000 A 
ATOM      7  C   UNL     1       0.120  10.182  18.583  0.00  0.00    +0.000 A 
ENDROOT
BRANCH   1  13
ATOM      8  N   UNL     1       2.518  14.681  18.884  0.00  0.00    +0.000 N 
ATOM      9  C   UNL     1       2.676  15.121  20.176  0.00  0.00    +0.000 C 
ATOM     10  O   UNL     1       3.407  16.011  20.574  0.00  0.00    +0.000 OA
ATOM     11  S   UNL     1       1.706  14.155  21.270  0.00  0.00    +0.000 S 
ATOM     12  C   UNL     1       1.140  13.129  20.004  0.00  0.00    +0.000 C 
ATOM     13  C   UNL     1       0.268  12.133  20.214  0.00  0.00    +0.000 C 
ATOM     14  C   UNL     1       1.737  13.554  18.709  0.00  0.00    +0.000 C 
ATOM     15  O   UNL     1       1.593  12.951  17.654  0.00  0.00    +0.000 OA
BRANCH   8  17
ATOM     16  C   UNL     1       3.081  16.666  17.472  0.00  0.00    +0.000 C 
ATOM     17  C   UNL     1       3.328  15.188  17.776  0.00  0.00    +0.000 C 
ATOM     18  C   UNL     1       4.812  14.904  18.015  0.00  0.00    +0.000 C 
ENDBRANCH   8  17
ENDBRANCH   1  13
BRANCH   7  19
ATOM     19  O   UNL     1       1.411   9.824  18.899  0.00  0.00    +0.000 OA
BRANCH  19  20
ATOM     20  C   UNL     1       2.157   9.266  17.810  0.00  0.00    +0.000 C 
BRANCH  20  21
ATOM     21  C   UNL     1       2.723   7.924  18.201  0.00  0.00    +0.000 A 
ATOM     22  C   UNL     1       2.235   7.238  19.319  0.00  0.00    +0.000 A 
ATOM     23  C   UNL     1       2.762   5.992  19.663  0.00  0.00    +0.000 A 
ATOM     24  C   UNL     1       3.784   5.421  18.895  0.00  0.00    +0.000 A 
ATOM     25  C   UNL     1       4.251   6.088  17.755  0.00  0.00    +0.000 A 
ATOM     26  C   UNL     1       3.731   7.340  17.420  0.00  0.00    +0.000 A 
BRANCH  24  27
ATOM     27  C   UNL     1       4.312   4.098  19.313  0.00  0.00    +0.000 C 
ATOM     28  O   UNL     1       3.686   3.328  20.020  0.00  0.00    +0.000 OA
BRANCH  27  29
ATOM     29  O   UNL     1       5.564   3.843  18.879  0.00  0.00    +0.000 OA
ATOM     30  H   UNL     1       5.748   4.117  17.962  0.00  0.00    +0.000 HD
ENDBRANCH  27  29
ENDBRANCH  24  27
ENDBRANCH  20  21
ENDBRANCH  19  20
ENDBRANCH   7  19
TORSDOF 7
ENDMDL
MODEL 4
REMARK VINA RESULT:      -7.1      2.714      7.578
REMARK  Name = 
REMARK  9 active torsions:
REMARK  status: ('A' for Active; 'I' for Inactive)
REMARK    1  A    between atoms: C_1  and  C_2
REMARK    2  A    between atoms: C_2  and  C_3
REMARK    3  A    between atoms: C_2  and  N_4
REMARK    4  A    between atoms: C_9  and  C_10
REMARK    5  A    between atoms: C_16  and  O_17
REMARK    6  A    between atoms: O_17  and  C_18
REMARK    7  A    between atoms: C_18  and  C_19
REMARK    8  A    between atoms: C_22  and  C_23
REMARK    9  A    between atoms: C_23  and  O_25
REMARK                            x       y       z     vdW  Elec       q    Type
REMARK                         _______ _______ _______ _____ _____    ______ ____
ROOT
ATOM      1  C   UNL     1       2.875   4.108  18.478  0.00  0.00    +0.000 A 
ATOM      2  C   UNL     1       3.256   3.048  19.320  0.00  0.00    +0.000 A 
ATOM      3  C   UNL     1       2.680   2.904  20.580  0.00  0.00    +0.000 A 
ATOM      4 BR   UNL     1       3.214   1.483  21.704  0.00  0.00    +0.000 Br
ATOM      5  C   UNL     1       1.703   3.791  21.008  0.00  0.00    +0.000 A 
ATOM      6  C   UNL     1       1.325   4.852  20.184  0.00  0.00    +0.000 A 
ATOM      7  C   UNL     1       1.932   5.049  18.933  0.00  0.00    +0.000 A 
ENDROOT
BRANCH   1  13
ATOM      8  N   UNL     1       6.813   5.616  17.051  0.00  0.00    +0.000 N 
ATOM      9  C   UNL     1       6.887   5.213  15.739  0.00  0.00    +0.000 C 
ATOM     10  O   UNL     1       7.786   5.427  14.945  0.00  0.00    +0.000 OA
ATOM     11  S   UNL     1       5.424   4.363  15.282  0.00  0.00    +0.000 S 
ATOM     12  C   UNL     1       4.695   4.605  16.827  0.00  0.00    +0.000 C 
ATOM     13  C   UNL     1       3.485   4.120  17.140  0.00  0.00    +0.000 C 
ATOM     14  C   UNL     1       5.619   5.374  17.703  0.00  0.00    +0.000 C 
ATOM     15  O   UNL     1       5.331   5.777  18.822  0.00  0.00    +0.000 OA
BRANCH   8  17
ATOM     16  C   UNL     1       7.473   7.975  17.553  0.00  0.00    +0.000 C 
ATOM     17  C   UNL     1       7.816   6.489  17.662  0.00  0.00    +0.000 C 
ATOM     18  C   UNL     1       8.083   6.079  19.112  0.00  0.00    +0.000 C 
ENDBRANCH   8  17
ENDBRANCH   1  13
BRANCH   7  19
ATOM     19  O   UNL     1       1.644   6.122  18.122  0.00  0.00    +0.000 OA
BRANCH  19  20
ATOM     20  C   UNL     1       2.468   7.274  18.343  0.00  0.00    +0.000 C 
BRANCH  20  21
ATOM     21  C   UNL     1       1.751   8.265  19.224  0.00  0.00    +0.000 A 
ATOM     22  C   UNL     1       1.695   8.083  20.611  0.00  0.00    +0.000 A 
ATOM     23  C   UNL     1       1.036   9.014  21.416  0.00  0.00    +0.000 A 
ATOM     24  C   UNL     1       0.423  10.134  20.842  0.00  0.00    +0.000 A 
ATOM     25  C   UNL     1       0.506  10.339  19.458  0.00  0.00    +0.000 A 
ATOM     26  C   UNL     1       1.155   9.400  18.654  0.00  0.00    +0.000 A 
BRANCH  24  27
ATOM     27  C   UNL     1      -0.271  11.087  21.745  0.00  0.00    +0.000 C 
ATOM     28  O   UNL     1      -0.257  10.979  22.958  0.00  0.00    +0.000 OA
BRANCH  27  29
ATOM     29  O   UNL     1      -0.958  12.055  21.101  0.00  0.00    +0.000 OA
ATOM     30  H   UNL     1      -1.393  12.707  21.679  0.00  0.00    +0.000 HD
ENDBRANCH  27  29
ENDBRANCH  24  27
ENDBRANCH  20  21
ENDBRANCH  19  20
ENDBRANCH   7  19
TORSDOF 7
ENDMDL
MODEL 5
REMARK VINA RESULT:      -7.0      4.077      6.554
REMARK  Name = 
REMARK  9 active torsions:
REMARK  status: ('A' for Active; 'I' for Inactive)
REMARK    1  A    between atoms: C_1  and  C_2
REMARK    2  A    between atoms: C_2  and  C_3
REMARK    3  A    between atoms: C_2  and  N_4
REMARK    4  A    between atoms: C_9  and  C_10
REMARK    5  A    between atoms: C_16  and  O_17
REMARK    6  A    between atoms: O_17  and  C_18
REMARK    7  A    between atoms: C_18  and  C_19
REMARK    8  A    between atoms: C_22  and  C_23
REMARK    9  A    between atoms: C_23  and  O_25
REMARK                            x       y       z     vdW  Elec       q    Type
REMARK                         _______ _______ _______ _____ _____    ______ ____
ROOT
ATOM      1  C   UNL     1       5.363   6.113  16.566  0.00  0.00    +0.000 A 
ATOM      2  C   UNL     1       5.138   5.382  15.385  0.00  0.00    +0.000 A 
ATOM      3  C   UNL     1       6.204   4.804  14.699  0.00  0.00    +0.000 A 
ATOM      4 BR   UNL     1       5.887   3.838  13.107  0.00  0.00    +0.000 Br
ATOM      5  C   UNL     1       7.497   4.920  15.188  0.00  0.00    +0.000 A 
ATOM      6  C   UNL     1       7.731   5.651  16.354  0.00  0.00    +0.000 A 
ATOM      7  C   UNL     1       6.679   6.289  17.031  0.00  0.00    +0.000 A 
ENDROOT
BRANCH   1  13
ATOM      8  N   UNL     1       2.748   4.247  19.648  0.00  0.00    +0.000 N 
ATOM      9  C   UNL     1       1.881   5.246  20.021  0.00  0.00    +0.000 C 
ATOM     10  O   UNL     1       0.970   5.177  20.829  0.00  0.00    +0.000 OA
ATOM     11  S   UNL     1       2.200   6.702  19.101  0.00  0.00    +0.000 S 
ATOM     12  C   UNL     1       3.450   5.952  18.178  0.00  0.00    +0.000 C 
ATOM     13  C   UNL     1       4.162   6.611  17.254  0.00  0.00    +0.000 C 
ATOM     14  C   UNL     1       3.603   4.534  18.601  0.00  0.00    +0.000 C 
ATOM     15  O   UNL     1       4.346   3.729  18.055  0.00  0.00    +0.000 OA
BRANCH   8  17
ATOM     16  C   UNL     1       2.439   2.770  21.642  0.00  0.00    +0.000 C 
ATOM     17  C   UNL     1       2.614   2.870  20.127  0.00  0.00    +0.000 C 
ATOM     18  C   UNL     1       1.493   2.144  19.382  0.00  0.00    +0.000 C 
ENDBRANCH   8  17
ENDBRANCH   1  13
BRANCH   7  19
ATOM     19  O   UNL     1       6.875   7.080  18.140  0.00  0.00    +0.000 OA
BRANCH  19  20
ATOM     20  C   UNL     1       8.246   7.396  18.411  0.00  0.00    +0.000 C 
BRANCH  20  21
ATOM     21  C   UNL     1       8.461   8.886  18.342  0.00  0.00    +0.000 A 
ATOM     22  C   UNL     1       7.753   9.671  17.425  0.00  0.00    +0.000 A 
ATOM     23  C   UNL     1       7.955  11.052  17.379  0.00  0.00    +0.000 A 
ATOM     24  C   UNL     1       8.869  11.661  18.247  0.00  0.00    +0.000 A 
ATOM     25  C   UNL     1       9.554  10.884  19.192  0.00  0.00    +0.000 A 
ATOM     26  C   UNL     1       9.359   9.502  19.227  0.00  0.00    +0.000 A 
BRANCH  24  27
ATOM     27  C   UNL     1       9.050  13.132  18.148  0.00  0.00    +0.000 C 
ATOM     28  O   UNL     1       8.423  13.923  18.831  0.00  0.00    +0.000 OA
BRANCH  27  29
ATOM     29  O   UNL     1       9.934  13.515  17.204  0.00  0.00    +0.000 OA
ATOM     30  H   UNL     1      10.568  12.829  16.928  0.00  0.00    +0.000 HD
ENDBRANCH  27  29
ENDBRANCH  24  27
ENDBRANCH  20  21
ENDBRANCH  19  20
ENDBRANCH   7  19
TORSDOF 7
ENDMDL
MODEL 6
REMARK VINA RESULT:      -6.9      4.201      6.987
REMARK  Name = 
REMARK  9 active torsions:
REMARK  status: ('A' for Active; 'I' for Inactive)
REMARK    1  A    between atoms: C_1  and  C_2
REMARK    2  A    between atoms: C_2  and  C_3
REMARK    3  A    between atoms: C_2  and  N_4
REMARK    4  A    between atoms: C_9  and  C_10
REMARK    5  A    between atoms: C_16  and  O_17
REMARK    6  A    between atoms: O_17  and  C_18
REMARK    7  A    between atoms: C_18  and  C_19
REMARK    8  A    between atoms: C_22  and  C_23
REMARK    9  A    between atoms: C_23  and  O_25
REMARK                            x       y       z     vdW  Elec       q    Type
REMARK                         _______ _______ _______ _____ _____    ______ ____
ROOT
ATOM      1  C   UNL     1      -1.204  11.337  19.231  0.00  0.00    +0.000 A 
ATOM      2  C   UNL     1      -2.472  11.718  18.755  0.00  0.00    +0.000 A 
ATOM      3  C   UNL     1      -3.048  11.057  17.673  0.00  0.00    +0.000 A 
ATOM      4 BR   UNL     1      -4.745  11.591  17.038  0.00  0.00    +0.000 Br
ATOM      5  C   UNL     1      -2.389   9.997  17.068  0.00  0.00    +0.000 A 
ATOM      6  C   UNL     1      -1.127   9.617  17.527  0.00  0.00    +0.000 A 
ATOM      7  C   UNL     1      -0.502  10.305  18.580  0.00  0.00    +0.000 A 
ENDROOT
BRANCH   1  13
ATOM      8  N   UNL     1       1.169  15.077  19.684  0.00  0.00    +0.000 N 
ATOM      9  C   UNL     1       1.175  15.324  21.036  0.00  0.00    +0.000 C 
ATOM     10  O   UNL     1       1.728  16.239  21.622  0.00  0.00    +0.000 OA
ATOM     11  S   UNL     1       0.304  14.065  21.888  0.00  0.00    +0.000 S 
ATOM     12  C   UNL     1      -0.012  13.180  20.441  0.00  0.00    +0.000 C 
ATOM     13  C   UNL     1      -0.725  12.045  20.427  0.00  0.00    +0.000 C 
ATOM     14  C   UNL     1       0.590  13.888  19.279  0.00  0.00    +0.000 C 
ATOM     15  O   UNL     1       0.610  13.446  18.138  0.00  0.00    +0.000 OA
BRANCH   8  17
ATOM     16  C   UNL     1       1.536  17.336  18.679  0.00  0.00    +0.000 C 
ATOM     17  C   UNL     1       1.955  15.867  18.736  0.00  0.00    +0.000 C 
ATOM     18  C   UNL     1       3.452  15.720  19.019  0.00  0.00    +0.000 C 
ENDBRANCH   8  17
ENDBRANCH   1  13
BRANCH   7  19
ATOM     19  O   UNL     1       0.771  10.013  19.014  0.00  0.00    +0.000 OA
BRANCH  19  20
ATOM     20  C   UNL     1       1.676   9.614  17.977  0.00  0.00    +0.000 C 
BRANCH  20  21
ATOM     21  C   UNL     1       2.333   8.306  18.335  0.00  0.00    +0.000 A 
ATOM     22  C   UNL     1       2.005   7.638  19.520  0.00  0.00    +0.000 A 
ATOM     23  C   UNL     1       2.615   6.422  19.834  0.00  0.00    +0.000 A 
ATOM     24  C   UNL     1       3.562   5.863  18.967  0.00  0.00    +0.000 A 
ATOM     25  C   UNL     1       3.868   6.510  17.762  0.00  0.00    +0.000 A 
ATOM     26  C   UNL     1       3.266   7.732  17.457  0.00  0.00    +0.000 A 
BRANCH  24  27
ATOM     27  C   UNL     1       4.185   4.573  19.355  0.00  0.00    +0.000 C 
ATOM     28  O   UNL     1       5.390   4.391  19.352  0.00  0.00    +0.000 OA
BRANCH  27  29
ATOM     29  O   UNL     1       3.297   3.605  19.666  0.00  0.00    +0.000 OA
ATOM     30  H   UNL     1       3.391   3.229  20.560  0.00  0.00    +0.000 HD
ENDBRANCH  27  29
ENDBRANCH  24  27
ENDBRANCH  20  21
ENDBRANCH  19  20
ENDBRANCH   7  19
TORSDOF 7
ENDMDL
MODEL 7
REMARK VINA RESULT:      -6.9      4.335      7.175
REMARK  Name = 
REMARK  9 active torsions:
REMARK  status: ('A' for Active; 'I' for Inactive)
REMARK    1  A    between atoms: C_1  and  C_2
REMARK    2  A    between atoms: C_2  and  C_3
REMARK    3  A    between atoms: C_2  and  N_4
REMARK    4  A    between atoms: C_9  and  C_10
REMARK    5  A    between atoms: C_16  and  O_17
REMARK    6  A    between atoms: O_17  and  C_18
REMARK    7  A    between atoms: C_18  and  C_19
REMARK    8  A    between atoms: C_22  and  C_23
REMARK    9  A    between atoms: C_23  and  O_25
REMARK                            x       y       z     vdW  Elec       q    Type
REMARK                         _______ _______ _______ _____ _____    ______ ____
ROOT
ATOM      1  C   UNL     1      -1.464  11.335  19.295  0.00  0.00    +0.000 A 
ATOM      2  C   UNL     1      -2.736  11.684  18.809  0.00  0.00    +0.000 A 
ATOM      3  C   UNL     1      -3.251  11.069  17.671  0.00  0.00    +0.000 A 
ATOM      4 BR   UNL     1      -4.956  11.559  17.022  0.00  0.00    +0.000 Br
ATOM      5  C   UNL     1      -2.524  10.084  17.018  0.00  0.00    +0.000 A 
ATOM      6  C   UNL     1      -1.256   9.737  17.487  0.00  0.00    +0.000 A 
ATOM      7  C   UNL     1      -0.694  10.384  18.600  0.00  0.00    +0.000 A 
ENDROOT
BRANCH   1  13
ATOM      8  N   UNL     1       0.154  15.402  20.106  0.00  0.00    +0.000 N 
ATOM      9  C   UNL     1       0.205  15.491  21.477  0.00  0.00    +0.000 C 
ATOM     10  O   UNL     1       0.607  16.426  22.148  0.00  0.00    +0.000 OA
ATOM     11  S   UNL     1      -0.341  13.992  22.203  0.00  0.00    +0.000 S 
ATOM     12  C   UNL     1      -0.576  13.232  20.672  0.00  0.00    +0.000 C 
ATOM     13  C   UNL     1      -1.051  11.985  20.548  0.00  0.00    +0.000 C 
ATOM     14  C   UNL     1      -0.207  14.175  19.583  0.00  0.00    +0.000 C 
ATOM     15  O   UNL     1      -0.179  13.879  18.395  0.00  0.00    +0.000 OA
BRANCH   8  17
ATOM     16  C   UNL     1       1.997  16.020  18.534  0.00  0.00    +0.000 C 
ATOM     17  C   UNL     1       0.703  16.439  19.231  0.00  0.00    +0.000 C 
ATOM     18  C   UNL     1      -0.348  16.914  18.227  0.00  0.00    +0.000 C 
ENDBRANCH   8  17
ENDBRANCH   1  13
BRANCH   7  19
ATOM     19  O   UNL     1       0.581  10.126  19.050  0.00  0.00    +0.000 OA
BRANCH  19  20
ATOM     20  C   UNL     1       1.504   9.729  18.029  0.00  0.00    +0.000 C 
BRANCH  20  21
ATOM     21  C   UNL     1       2.157   8.421  18.398  0.00  0.00    +0.000 A 
ATOM     22  C   UNL     1       1.868   7.793  19.615  0.00  0.00    +0.000 A 
ATOM     23  C   UNL     1       2.473   6.578  19.940  0.00  0.00    +0.000 A 
ATOM     24  C   UNL     1       3.377   5.980  19.053  0.00  0.00    +0.000 A 
ATOM     25  C   UNL     1       3.644   6.588  17.818  0.00  0.00    +0.000 A 
ATOM     26  C   UNL     1       3.046   7.810  17.502  0.00  0.00    +0.000 A 
BRANCH  24  27
ATOM     27  C   UNL     1       3.998   4.692  19.453  0.00  0.00    +0.000 C 
ATOM     28  O   UNL     1       3.348   3.738  19.844  0.00  0.00    +0.000 OA
BRANCH  27  29
ATOM     29  O   UNL     1       5.346   4.688  19.393  0.00  0.00    +0.000 OA
ATOM     30  H   UNL     1       5.722   4.979  18.543  0.00  0.00    +0.000 HD
ENDBRANCH  27  29
ENDBRANCH  24  27
ENDBRANCH  20  21
ENDBRANCH  19  20
ENDBRANCH   7  19
TORSDOF 7
ENDMDL
MODEL 8
REMARK VINA RESULT:      -6.9      3.995      6.639
REMARK  Name = 
REMARK  9 active torsions:
REMARK  status: ('A' for Active; 'I' for Inactive)
REMARK    1  A    between atoms: C_1  and  C_2
REMARK    2  A    between atoms: C_2  and  C_3
REMARK    3  A    between atoms: C_2  and  N_4
REMARK    4  A    between atoms: C_9  and  C_10
REMARK    5  A    between atoms: C_16  and  O_17
REMARK    6  A    between atoms: O_17  and  C_18
REMARK    7  A    between atoms: C_18  and  C_19
REMARK    8  A    between atoms: C_22  and  C_23
REMARK    9  A    between atoms: C_23  and  O_25
REMARK                            x       y       z     vdW  Elec       q    Type
REMARK                         _______ _______ _______ _____ _____    ______ ____
ROOT
ATOM      1  C   UNL     1      -0.011  11.278  20.738  0.00  0.00    +0.000 A 
ATOM      2  C   UNL     1      -0.994  12.092  21.329  0.00  0.00    +0.000 A 
ATOM      3  C   UNL     1      -1.578  11.729  22.540  0.00  0.00    +0.000 A 
ATOM      4 BR   UNL     1      -2.907  12.826  23.313  0.00  0.00    +0.000 Br
ATOM      5  C   UNL     1      -1.175  10.572  23.192  0.00  0.00    +0.000 A 
ATOM      6  C   UNL     1      -0.207   9.753  22.609  0.00  0.00    +0.000 A 
ATOM      7  C   UNL     1       0.354  10.070  21.361  0.00  0.00    +0.000 A 
ENDROOT
BRANCH   1  13
ATOM      8  N   UNL     1       3.349  14.122  20.075  0.00  0.00    +0.000 N 
ATOM      9  C   UNL     1       3.563  14.099  18.717  0.00  0.00    +0.000 C 
ATOM     10  O   UNL     1       4.378  14.746  18.081  0.00  0.00    +0.000 OA
ATOM     11  S   UNL     1       2.418  13.024  17.939  0.00  0.00    +0.000 S 
ATOM     12  C   UNL     1       1.619  12.657  19.424  0.00  0.00    +0.000 C 
ATOM     13  C   UNL     1       0.596  11.795  19.502  0.00  0.00    +0.000 C 
ATOM     14  C   UNL     1       2.263  13.403  20.538  0.00  0.00    +0.000 C 
ATOM     15  O   UNL     1       1.848  13.416  21.690  0.00  0.00    +0.000 OA
BRANCH   8  17
ATOM     16  C   UNL     1       3.147  16.175  21.486  0.00  0.00    +0.000 C 
ATOM     17  C   UNL     1       4.044  15.054  20.964  0.00  0.00    +0.000 C 
ATOM     18  C   UNL     1       4.730  14.303  22.107  0.00  0.00    +0.000 C 
ENDBRANCH   8  17
ENDBRANCH   1  13
BRANCH   7  19
ATOM     19  O   UNL     1       1.255   9.254  20.716  0.00  0.00    +0.000 OA
BRANCH  19  20
ATOM     20  C   UNL     1       1.451   7.977  21.336  0.00  0.00    +0.000 C 
BRANCH  20  21
ATOM     21  C   UNL     1       1.878   6.960  20.310  0.00  0.00    +0.000 A 
ATOM     22  C   UNL     1       2.356   7.362  19.057  0.00  0.00    +0.000 A 
ATOM     23  C   UNL     1       2.758   6.409  18.119  0.00  0.00    +0.000 A 
ATOM     24  C   UNL     1       2.683   5.044  18.423  0.00  0.00    +0.000 A 
ATOM     25  C   UNL     1       2.238   4.638  19.688  0.00  0.00    +0.000 A 
ATOM     26  C   UNL     1       1.825   5.593  20.620  0.00  0.00    +0.000 A 
BRANCH  24  27
ATOM     27  C   UNL     1       3.115   4.075  17.385  0.00  0.00    +0.000 C 
ATOM     28  O   UNL     1       4.250   4.041  16.943  0.00  0.00    +0.000 OA
BRANCH  27  29
ATOM     29  O   UNL     1       2.129   3.267  16.941  0.00  0.00    +0.000 OA
ATOM     30  H   UNL     1       1.284   3.345  17.419  0.00  0.00    +0.000 HD
ENDBRANCH  27  29
ENDBRANCH  24  27
ENDBRANCH  20  21
ENDBRANCH  19  20
ENDBRANCH   7  19
TORSDOF 7
ENDMDL
MODEL 9
REMARK VINA RESULT:      -6.9      4.644      7.111
REMARK  Name = 
REMARK  9 active torsions:
REMARK  status: ('A' for Active; 'I' for Inactive)
REMARK    1  A    between atoms: C_1  and  C_2
REMARK    2  A    between atoms: C_2  and  C_3
REMARK    3  A    between atoms: C_2  and  N_4
REMARK    4  A    between atoms: C_9  and  C_10
REMARK    5  A    between atoms: C_16  and  O_17
REMARK    6  A    between atoms: O_17  and  C_18
REMARK    7  A    between atoms: C_18  and  C_19
REMARK    8  A    between atoms: C_22  and  C_23
REMARK    9  A    between atoms: C_23  and  O_25
REMARK                            x       y       z     vdW  Elec       q    Type
REMARK                         _______ _______ _______ _____ _____    ______ ____
ROOT
ATOM      1  C   UNL     1      -0.046  11.258  19.164  0.00  0.00    +0.000 A 
ATOM      2  C   UNL     1      -1.350  11.690  18.862  0.00  0.00    +0.000 A 
ATOM      3  C   UNL     1      -2.135  10.985  17.953  0.00  0.00    +0.000 A 
ATOM      4 BR   UNL     1      -3.879  11.588  17.548  0.00  0.00    +0.000 Br
ATOM      5  C   UNL     1      -1.649   9.832  17.355  0.00  0.00    +0.000 A 
ATOM      6  C   UNL     1      -0.353   9.399  17.641  0.00  0.00    +0.000 A 
ATOM      7  C   UNL     1       0.477  10.126  18.512  0.00  0.00    +0.000 A 
ENDROOT
BRANCH   1  13
ATOM      8  N   UNL     1       2.807  14.662  18.855  0.00  0.00    +0.000 N 
ATOM      9  C   UNL     1       3.016  15.061  20.153  0.00  0.00    +0.000 C 
ATOM     10  O   UNL     1       3.747  15.952  20.549  0.00  0.00    +0.000 OA
ATOM     11  S   UNL     1       2.113  14.041  21.256  0.00  0.00    +0.000 S 
ATOM     12  C   UNL     1       1.509  13.047  19.981  0.00  0.00    +0.000 C 
ATOM     13  C   UNL     1       0.666  12.027  20.196  0.00  0.00    +0.000 C 
ATOM     14  C   UNL     1       2.039  13.526  18.677  0.00  0.00    +0.000 C 
ATOM     15  O   UNL     1       1.859  12.956  17.609  0.00  0.00    +0.000 OA
BRANCH   8  17
ATOM     16  C   UNL     1       3.269  16.703  17.487  0.00  0.00    +0.000 C 
ATOM     17  C   UNL     1       3.557  15.222  17.730  0.00  0.00    +0.000 C 
ATOM     18  C   UNL     1       5.056  14.960  17.894  0.00  0.00    +0.000 C 
ENDBRANCH   8  17
ENDBRANCH   1  13
BRANCH   7  19
ATOM     19  O   UNL     1       1.784   9.778  18.763  0.00  0.00    +0.000 OA
BRANCH  19  20
ATOM     20  C   UNL     1       2.281   8.705  17.952  0.00  0.00    +0.000 C 
BRANCH  20  21
ATOM     21  C   UNL     1       2.201   7.403  18.707  0.00  0.00    +0.000 A 
ATOM     22  C   UNL     1       2.441   6.184  18.061  0.00  0.00    +0.000 A 
ATOM     23  C   UNL     1       2.373   4.986  18.775  0.00  0.00    +0.000 A 
ATOM     24  C   UNL     1       2.061   4.994  20.140  0.00  0.00    +0.000 A 
ATOM     25  C   UNL     1       1.855   6.214  20.798  0.00  0.00    +0.000 A 
ATOM     26  C   UNL     1       1.910   7.410  20.079  0.00  0.00    +0.000 A 
BRANCH  24  27
ATOM     27  C   UNL     1       1.994   3.690  20.847  0.00  0.00    +0.000 C 
ATOM     28  O   UNL     1       2.224   3.569  22.037  0.00  0.00    +0.000 OA
BRANCH  27  29
ATOM     29  O   UNL     1       1.704   2.644  20.045  0.00  0.00    +0.000 OA
ATOM     30  H   UNL     1       1.553   2.870  19.109  0.00  0.00    +0.000 HD
ENDBRANCH  27  29
ENDBRANCH  24  27
ENDBRANCH  20  21
ENDBRANCH  19  20
ENDBRANCH   7  19
TORSDOF 7
ENDMDL
