MODEL 1
REMARK VINA RESULT:      -8.7      0.000      0.000
REMARK  Name = 
REMARK  4 active torsions:
REMARK  status: ('A' for Active; 'I' for Inactive)
REMARK    1  A    between atoms: C_1  and  S_2
REMARK    2  A    between atoms: S_2  and  C_5
REMARK    3  A    between atoms: C_8  and  C_9
REMARK    4  A    between atoms: C_16  and  C_17
REMARK                            x       y       z     vdW  Elec       q    Type
REMARK                         _______ _______ _______ _____ _____    ______ ____
ROOT
ATOM      1  C   UNL     1       3.816   6.470  17.429  0.00  0.00    +0.000 A 
ATOM      2  S   UNL     1       4.801   7.307  16.217  0.00  0.00    +0.000 S 
ATOM      3  C   UNL     1       5.458   5.778  15.762  0.00  0.00    +0.000 A 
ATOM      4  N   UNL     1       6.288   5.377  14.844  0.00  0.00    +0.000 NA
ATOM      5  C   UNL     1       6.290   4.027  15.073  0.00  0.00    +0.000 A 
ATOM      6  N   UNL     1       5.513   3.593  16.082  0.00  0.00    +0.000 NA
ATOM      7  N   UNL     1       4.958   4.749  16.516  0.00  0.00    +0.000 N 
ATOM      8  C   UNL     1       4.019   5.128  17.480  0.00  0.00    +0.000 A 
ENDROOT
BRANCH   8   9
ATOM      9  C   UNL     1       3.332   4.184  18.379  0.00  0.00    +0.000 A 
ATOM     10  C   UNL     1       3.911   3.772  19.591  0.00  0.00    +0.000 A 
ATOM     11  C   UNL     1       3.228   2.902  20.456  0.00  0.00    +0.000 A 
ATOM     12  C   UNL     1       1.957   2.437  20.115  0.00  0.00    +0.000 A 
ATOM     13  F   UNL     1       1.305   1.621  20.947  0.00  0.00    +0.000 F 
ATOM     14  C   UNL     1       1.384   2.833  18.913  0.00  0.00    +0.000 A 
ATOM     15  F   UNL     1       0.162   2.394  18.581  0.00  0.00    +0.000 F 
ATOM     16  C   UNL     1       2.060   3.694  18.044  0.00  0.00    +0.000 A 
ENDBRANCH   8   9
BRANCH   1  20
ATOM     17  C   UNL     1       1.276   8.980  19.744  0.00  0.00    +0.000 A 
ATOM     18  C   UNL     1       1.558   9.310  18.418  0.00  0.00    +0.000 A 
ATOM     19  C   UNL     1       2.360   8.463  17.658  0.00  0.00    +0.000 A 
ATOM     20  C   UNL     1       2.916   7.307  18.225  0.00  0.00    +0.000 A 
ATOM     21  C   UNL     1       2.624   6.985  19.559  0.00  0.00    +0.000 A 
ATOM     22  C   UNL     1       1.810   7.826  20.324  0.00  0.00    +0.000 A 
BRANCH  17  24
ATOM     23  C   UNL     1      -0.376   8.969  21.968  0.00  0.00    +0.000 C 
ATOM     24  S   UNL     1       0.247  10.057  20.714  0.00  0.00    +0.000 S 
ATOM     25  O   UNL     1      -0.865  10.473  19.878  0.00  0.00    +0.000 OA
ATOM     26  O   UNL     1       1.110  11.034  21.346  0.00  0.00    +0.000 OA
ENDBRANCH  17  24
ENDBRANCH   1  20
TORSDOF 3
ENDMDL
MODEL 2
REMARK VINA RESULT:      -8.5      0.526      1.294
REMARK  Name = 
REMARK  4 active torsions:
REMARK  status: ('A' for Active; 'I' for Inactive)
REMARK    1  A    between atoms: C_1  and  S_2
REMARK    2  A    between atoms: S_2  and  C_5
REMARK    3  A    between atoms: C_8  and  C_9
REMARK    4  A    between atoms: C_16  and  C_17
REMARK                            x       y       z     vdW  Elec       q    Type
REMARK                         _______ _______ _______ _____ _____    ______ ____
ROOT
ATOM      1  C   UNL     1       3.866   6.508  17.434  0.00  0.00    +0.000 A 
ATOM      2  S   UNL     1       4.947   7.381  16.334  0.00  0.00    +0.000 S 
ATOM      3  C   UNL     1       5.577   5.859  15.821  0.00  0.00    +0.000 A 
ATOM      4  N   UNL     1       6.444   5.484  14.926  0.00  0.00    +0.000 NA
ATOM      5  C   UNL     1       6.387   4.124  15.070  0.00  0.00    +0.000 A 
ATOM      6  N   UNL     1       5.538   3.658  16.004  0.00  0.00    +0.000 NA
ATOM      7  N   UNL     1       4.999   4.805  16.478  0.00  0.00    +0.000 N 
ATOM      8  C   UNL     1       4.020   5.159  17.410  0.00  0.00    +0.000 A 
ENDROOT
BRANCH   8   9
ATOM      9  C   UNL     1       3.250   4.188  18.208  0.00  0.00    +0.000 A 
ATOM     10  C   UNL     1       1.959   3.785  17.828  0.00  0.00    +0.000 A 
ATOM     11  C   UNL     1       1.252   2.830  18.576  0.00  0.00    +0.000 A 
ATOM     12  C   UNL     1       1.833   2.269  19.714  0.00  0.00    +0.000 A 
ATOM     13  F   UNL     1       1.164   1.350  20.415  0.00  0.00    +0.000 F 
ATOM     14  C   UNL     1       3.106   2.670  20.101  0.00  0.00    +0.000 A 
ATOM     15  F   UNL     1       3.672   2.131  21.189  0.00  0.00    +0.000 F 
ATOM     16  C   UNL     1       3.813   3.624  19.364  0.00  0.00    +0.000 A 
ENDBRANCH   8   9
BRANCH   1  20
ATOM     17  C   UNL     1       1.278   8.968  19.752  0.00  0.00    +0.000 A 
ATOM     18  C   UNL     1       1.578   9.320  18.435  0.00  0.00    +0.000 A 
ATOM     19  C   UNL     1       2.395   8.490  17.673  0.00  0.00    +0.000 A 
ATOM     20  C   UNL     1       2.950   7.327  18.230  0.00  0.00    +0.000 A 
ATOM     21  C   UNL     1       2.640   6.983  19.554  0.00  0.00    +0.000 A 
ATOM     22  C   UNL     1       1.811   7.808  20.321  0.00  0.00    +0.000 A 
BRANCH  17  24
ATOM     23  C   UNL     1      -0.417   8.910  21.942  0.00  0.00    +0.000 C 
ATOM     24  S   UNL     1       0.230  10.024  20.724  0.00  0.00    +0.000 S 
ATOM     25  O   UNL     1      -0.864  10.459  19.875  0.00  0.00    +0.000 OA
ATOM     26  O   UNL     1       1.081  10.987  21.394  0.00  0.00    +0.000 OA
ENDBRANCH  17  24
ENDBRANCH   1  20
TORSDOF 3
ENDMDL
MODEL 3
REMARK VINA RESULT:      -8.4      0.718      1.344
REMARK  Name = 
REMARK  4 active torsions:
REMARK  status: ('A' for Active; 'I' for Inactive)
REMARK    1  A    between atoms: C_1  and  S_2
REMARK    2  A    between atoms: S_2  and  C_5
REMARK    3  A    between atoms: C_8  and  C_9
REMARK    4  A    between atoms: C_16  and  C_17
REMARK                            x       y       z     vdW  Elec       q    Type
REMARK                         _______ _______ _______ _____ _____    ______ ____
ROOT
ATOM      1  C   UNL     1       3.854   6.502  17.419  0.00  0.00    +0.000 A 
ATOM      2  S   UNL     1       4.874   7.281  16.197  0.00  0.00    +0.000 S 
ATOM      3  C   UNL     1       5.505   5.726  15.799  0.00  0.00    +0.000 A 
ATOM      4  N   UNL     1       6.340   5.280  14.906  0.00  0.00    +0.000 NA
ATOM      5  C   UNL     1       6.311   3.939  15.176  0.00  0.00    +0.000 A 
ATOM      6  N   UNL     1       5.510   3.551  16.185  0.00  0.00    +0.000 NA
ATOM      7  N   UNL     1       4.972   4.731  16.576  0.00  0.00    +0.000 N 
ATOM      8  C   UNL     1       4.028   5.158  17.513  0.00  0.00    +0.000 A 
ENDROOT
BRANCH   8   9
ATOM      9  C   UNL     1       3.309   4.256  18.429  0.00  0.00    +0.000 A 
ATOM     10  C   UNL     1       3.823   3.933  19.696  0.00  0.00    +0.000 A 
ATOM     11  C   UNL     1       3.108   3.103  20.575  0.00  0.00    +0.000 A 
ATOM     12  C   UNL     1       1.869   2.588  20.191  0.00  0.00    +0.000 A 
ATOM     13  F   UNL     1       1.186   1.810  21.035  0.00  0.00    +0.000 F 
ATOM     14  C   UNL     1       1.360   2.895  18.936  0.00  0.00    +0.000 A 
ATOM     15  F   UNL     1       0.168   2.408  18.563  0.00  0.00    +0.000 F 
ATOM     16  C   UNL     1       2.068   3.716  18.054  0.00  0.00    +0.000 A 
ENDBRANCH   8   9
BRANCH   1  20
ATOM     17  C   UNL     1       1.178   8.978  19.616  0.00  0.00    +0.000 A 
ATOM     18  C   UNL     1       1.731   7.846  20.217  0.00  0.00    +0.000 A 
ATOM     19  C   UNL     1       2.634   7.063  19.503  0.00  0.00    +0.000 A 
ATOM     20  C   UNL     1       2.960   7.380  18.175  0.00  0.00    +0.000 A 
ATOM     21  C   UNL     1       2.399   8.521  17.582  0.00  0.00    +0.000 A 
ATOM     22  C   UNL     1       1.500   9.318  18.299  0.00  0.00    +0.000 A 
BRANCH  17  24
ATOM     23  C   UNL     1       0.962  11.461  20.825  0.00  0.00    +0.000 C 
ATOM     24  S   UNL     1       0.030   9.981  20.529  0.00  0.00    +0.000 S 
ATOM     25  O   UNL     1      -0.207   9.329  21.803  0.00  0.00    +0.000 OA
ATOM     26  O   UNL     1      -1.068  10.306  19.641  0.00  0.00    +0.000 OA
ENDBRANCH  17  24
ENDBRANCH   1  20
TORSDOF 3
ENDMDL
MODEL 4
REMARK VINA RESULT:      -8.4      0.865      1.847
REMARK  Name = 
REMARK  4 active torsions:
REMARK  status: ('A' for Active; 'I' for Inactive)
REMARK    1  A    between atoms: C_1  and  S_2
REMARK    2  A    between atoms: S_2  and  C_5
REMARK    3  A    between atoms: C_8  and  C_9
REMARK    4  A    between atoms: C_16  and  C_17
REMARK                            x       y       z     vdW  Elec       q    Type
REMARK                         _______ _______ _______ _____ _____    ______ ____
ROOT
ATOM      1  C   UNL     1       3.883   6.511  17.407  0.00  0.00    +0.000 A 
ATOM      2  S   UNL     1       4.957   7.339  16.267  0.00  0.00    +0.000 S 
ATOM      3  C   UNL     1       5.523   5.793  15.750  0.00  0.00    +0.000 A 
ATOM      4  N   UNL     1       6.351   5.383  14.834  0.00  0.00    +0.000 NA
ATOM      5  C   UNL     1       6.256   4.027  14.992  0.00  0.00    +0.000 A 
ATOM      6  N   UNL     1       5.421   3.597  15.956  0.00  0.00    +0.000 NA
ATOM      7  N   UNL     1       4.932   4.764  16.435  0.00  0.00    +0.000 N 
ATOM      8  C   UNL     1       3.993   5.158  17.392  0.00  0.00    +0.000 A 
ENDROOT
BRANCH   8   9
ATOM      9  C   UNL     1       3.218   4.219  18.222  0.00  0.00    +0.000 A 
ATOM     10  C   UNL     1       1.919   3.821  17.863  0.00  0.00    +0.000 A 
ATOM     11  C   UNL     1       1.206   2.896  18.642  0.00  0.00    +0.000 A 
ATOM     12  C   UNL     1       1.790   2.360  19.791  0.00  0.00    +0.000 A 
ATOM     13  F   UNL     1       1.114   1.469  20.523  0.00  0.00    +0.000 F 
ATOM     14  C   UNL     1       3.070   2.756  20.158  0.00  0.00    +0.000 A 
ATOM     15  F   UNL     1       3.638   2.240  21.257  0.00  0.00    +0.000 F 
ATOM     16  C   UNL     1       3.783   3.680  19.389  0.00  0.00    +0.000 A 
ENDBRANCH   8   9
BRANCH   1  20
ATOM     17  C   UNL     1       1.291   8.919  19.774  0.00  0.00    +0.000 A 
ATOM     18  C   UNL     1       1.865   7.771  20.320  0.00  0.00    +0.000 A 
ATOM     19  C   UNL     1       2.741   7.010  19.550  0.00  0.00    +0.000 A 
ATOM     20  C   UNL     1       3.018   7.366  18.222  0.00  0.00    +0.000 A 
ATOM     21  C   UNL     1       2.435   8.524  17.684  0.00  0.00    +0.000 A 
ATOM     22  C   UNL     1       1.564   9.298  18.457  0.00  0.00    +0.000 A 
BRANCH  17  24
ATOM     23  C   UNL     1      -0.888  10.613  19.537  0.00  0.00    +0.000 C 
ATOM     24  S   UNL     1       0.178   9.895  20.758  0.00  0.00    +0.000 S 
ATOM     25  O   UNL     1       0.952  10.959  21.372  0.00  0.00    +0.000 OA
ATOM     26  O   UNL     1      -0.605   8.982  21.565  0.00  0.00    +0.000 OA
ENDBRANCH  17  24
ENDBRANCH   1  20
TORSDOF 3
ENDMDL
MODEL 5
REMARK VINA RESULT:      -8.4      3.380      4.642
REMARK  Name = 
REMARK  4 active torsions:
REMARK  status: ('A' for Active; 'I' for Inactive)
REMARK    1  A    between atoms: C_1  and  S_2
REMARK    2  A    between atoms: S_2  and  C_5
REMARK    3  A    between atoms: C_8  and  C_9
REMARK    4  A    between atoms: C_16  and  C_17
REMARK                            x       y       z     vdW  Elec       q    Type
REMARK                         _______ _______ _______ _____ _____    ______ ____
ROOT
ATOM      1  C   UNL     1       2.460   5.307  19.082  0.00  0.00    +0.000 A 
ATOM      2  S   UNL     1       1.215   4.118  19.505  0.00  0.00    +0.000 S 
ATOM      3  C   UNL     1       2.311   2.872  19.035  0.00  0.00    +0.000 A 
ATOM      4  N   UNL     1       2.278   1.571  19.054  0.00  0.00    +0.000 NA
ATOM      5  C   UNL     1       3.523   1.277  18.567  0.00  0.00    +0.000 A 
ATOM      6  N   UNL     1       4.302   2.327  18.250  0.00  0.00    +0.000 NA
ATOM      7  N   UNL     1       3.504   3.369  18.578  0.00  0.00    +0.000 N 
ATOM      8  C   UNL     1       3.604   4.763  18.593  0.00  0.00    +0.000 A 
ENDROOT
BRANCH   8   9
ATOM      9  C   UNL     1       4.804   5.508  18.175  0.00  0.00    +0.000 A 
ATOM     10  C   UNL     1       4.804   6.312  17.023  0.00  0.00    +0.000 A 
ATOM     11  C   UNL     1       5.944   7.047  16.657  0.00  0.00    +0.000 A 
ATOM     12  C   UNL     1       7.094   6.984  17.443  0.00  0.00    +0.000 A 
ATOM     13  F   UNL     1       8.171   7.696  17.100  0.00  0.00    +0.000 F 
ATOM     14  C   UNL     1       7.104   6.183  18.579  0.00  0.00    +0.000 A 
ATOM     15  F   UNL     1       8.204   6.122  19.341  0.00  0.00    +0.000 F 
ATOM     16  C   UNL     1       5.976   5.445  18.946  0.00  0.00    +0.000 A 
ENDBRANCH   8   9
BRANCH   1  20
ATOM     17  C   UNL     1       1.358   9.365  19.738  0.00  0.00    +0.000 A 
ATOM     18  C   UNL     1       1.364   8.465  20.804  0.00  0.00    +0.000 A 
ATOM     19  C   UNL     1       1.761   7.149  20.587  0.00  0.00    +0.000 A 
ATOM     20  C   UNL     1       2.116   6.713  19.302  0.00  0.00    +0.000 A 
ATOM     21  C   UNL     1       2.108   7.627  18.238  0.00  0.00    +0.000 A 
ATOM     22  C   UNL     1       1.720   8.954  18.452  0.00  0.00    +0.000 A 
BRANCH  17  24
ATOM     23  C   UNL     1      -0.894  10.978  19.744  0.00  0.00    +0.000 C 
ATOM     24  S   UNL     1       0.857  11.048  20.015  0.00  0.00    +0.000 S 
ATOM     25  O   UNL     1       1.449  11.861  18.969  0.00  0.00    +0.000 OA
ATOM     26  O   UNL     1       1.088  11.347  21.413  0.00  0.00    +0.000 OA
ENDBRANCH  17  24
ENDBRANCH   1  20
TORSDOF 3
ENDMDL
MODEL 6
REMARK VINA RESULT:      -8.3      0.866      1.615
REMARK  Name = 
REMARK  4 active torsions:
REMARK  status: ('A' for Active; 'I' for Inactive)
REMARK    1  A    between atoms: C_1  and  S_2
REMARK    2  A    between atoms: S_2  and  C_5
REMARK    3  A    between atoms: C_8  and  C_9
REMARK    4  A    between atoms: C_16  and  C_17
REMARK                            x       y       z     vdW  Elec       q    Type
REMARK                         _______ _______ _______ _____ _____    ______ ____
ROOT
ATOM      1  C   UNL     1       3.772   6.610  17.516  0.00  0.00    +0.000 A 
ATOM      2  S   UNL     1       4.892   7.430  16.415  0.00  0.00    +0.000 S 
ATOM      3  C   UNL     1       5.532   5.885  15.989  0.00  0.00    +0.000 A 
ATOM      4  N   UNL     1       6.426   5.469  15.141  0.00  0.00    +0.000 NA
ATOM      5  C   UNL     1       6.358   4.117  15.341  0.00  0.00    +0.000 A 
ATOM      6  N   UNL     1       5.477   3.695  16.266  0.00  0.00    +0.000 NA
ATOM      7  N   UNL     1       4.928   4.863  16.673  0.00  0.00    +0.000 N 
ATOM      8  C   UNL     1       3.921   5.260  17.556  0.00  0.00    +0.000 A 
ENDROOT
BRANCH   8   9
ATOM      9  C   UNL     1       3.121   4.327  18.370  0.00  0.00    +0.000 A 
ATOM     10  C   UNL     1       1.835   3.925  17.974  0.00  0.00    +0.000 A 
ATOM     11  C   UNL     1       1.100   3.005  18.739  0.00  0.00    +0.000 A 
ATOM     12  C   UNL     1       1.648   2.479  19.910  0.00  0.00    +0.000 A 
ATOM     13  F   UNL     1       0.951   1.594  20.628  0.00  0.00    +0.000 F 
ATOM     14  C   UNL     1       2.915   2.881  20.312  0.00  0.00    +0.000 A 
ATOM     15  F   UNL     1       3.450   2.376  21.433  0.00  0.00    +0.000 F 
ATOM     16  C   UNL     1       3.651   3.799  19.559  0.00  0.00    +0.000 A 
ENDBRANCH   8   9
BRANCH   1  20
ATOM     17  C   UNL     1       1.121   9.177  19.638  0.00  0.00    +0.000 A 
ATOM     18  C   UNL     1       1.447   9.457  18.310  0.00  0.00    +0.000 A 
ATOM     19  C   UNL     1       2.285   8.591  17.613  0.00  0.00    +0.000 A 
ATOM     20  C   UNL     1       2.835   7.465  18.246  0.00  0.00    +0.000 A 
ATOM     21  C   UNL     1       2.499   7.194  19.581  0.00  0.00    +0.000 A 
ATOM     22  C   UNL     1       1.648   8.054  20.282  0.00  0.00    +0.000 A 
BRANCH  17  24
ATOM     23  C   UNL     1       1.045  11.732  20.704  0.00  0.00    +0.000 C 
ATOM     24  S   UNL     1       0.046  10.278  20.526  0.00  0.00    +0.000 S 
ATOM     25  O   UNL     1      -0.172   9.711  21.845  0.00  0.00    +0.000 OA
ATOM     26  O   UNL     1      -1.069  10.595  19.657  0.00  0.00    +0.000 OA
ENDBRANCH  17  24
ENDBRANCH   1  20
TORSDOF 3
ENDMDL
MODEL 7
REMARK VINA RESULT:      -8.0      1.185      1.668
REMARK  Name = 
REMARK  4 active torsions:
REMARK  status: ('A' for Active; 'I' for Inactive)
REMARK    1  A    between atoms: C_1  and  S_2
REMARK    2  A    between atoms: S_2  and  C_5
REMARK    3  A    between atoms: C_8  and  C_9
REMARK    4  A    between atoms: C_16  and  C_17
REMARK                            x       y       z     vdW  Elec       q    Type
REMARK                         _______ _______ _______ _____ _____    ______ ____
ROOT
ATOM      1  C   UNL     1       4.152   6.531  17.548  0.00  0.00    +0.000 A 
ATOM      2  S   UNL     1       5.487   7.470  16.855  0.00  0.00    +0.000 S 
ATOM      3  C   UNL     1       6.092   6.010  16.162  0.00  0.00    +0.000 A 
ATOM      4  N   UNL     1       7.086   5.716  15.376  0.00  0.00    +0.000 NA
ATOM      5  C   UNL     1       6.904   4.368  15.228  0.00  0.00    +0.000 A 
ATOM      6  N   UNL     1       5.859   3.832  15.884  0.00  0.00    +0.000 NA
ATOM      7  N   UNL     1       5.323   4.922  16.480  0.00  0.00    +0.000 N 
ATOM      8  C   UNL     1       4.210   5.202  17.278  0.00  0.00    +0.000 A 
ENDROOT
BRANCH   8   9
ATOM      9  C   UNL     1       3.232   4.189  17.714  0.00  0.00    +0.000 A 
ATOM     10  C   UNL     1       1.851   4.446  17.695  0.00  0.00    +0.000 A 
ATOM     11  C   UNL     1       0.929   3.459  18.077  0.00  0.00    +0.000 A 
ATOM     12  C   UNL     1       1.382   2.203  18.481  0.00  0.00    +0.000 A 
ATOM     13  F   UNL     1       0.501   1.261  18.831  0.00  0.00    +0.000 F 
ATOM     14  C   UNL     1       2.747   1.945  18.512  0.00  0.00    +0.000 A 
ATOM     15  F   UNL     1       3.189   0.739  18.895  0.00  0.00    +0.000 F 
ATOM     16  C   UNL     1       3.671   2.925  18.139  0.00  0.00    +0.000 A 
ENDBRANCH   8   9
BRANCH   1  20
ATOM     17  C   UNL     1       1.343   8.800  19.800  0.00  0.00    +0.000 A 
ATOM     18  C   UNL     1       1.662   9.184  18.497  0.00  0.00    +0.000 A 
ATOM     19  C   UNL     1       2.553   8.414  17.755  0.00  0.00    +0.000 A 
ATOM     20  C   UNL     1       3.162   7.283  18.320  0.00  0.00    +0.000 A 
ATOM     21  C   UNL     1       2.833   6.907  19.631  0.00  0.00    +0.000 A 
ATOM     22  C   UNL     1       1.929   7.670  20.377  0.00  0.00    +0.000 A 
BRANCH  17  24
ATOM     23  C   UNL     1      -0.838  10.479  19.490  0.00  0.00    +0.000 C 
ATOM     24  S   UNL     1       0.199   9.778  20.746  0.00  0.00    +0.000 S 
ATOM     25  O   UNL     1       0.951  10.853  21.369  0.00  0.00    +0.000 OA
ATOM     26  O   UNL     1      -0.600   8.869  21.541  0.00  0.00    +0.000 OA
ENDBRANCH  17  24
ENDBRANCH   1  20
TORSDOF 3
ENDMDL
MODEL 8
REMARK VINA RESULT:      -8.0      1.235      1.821
REMARK  Name = 
REMARK  4 active torsions:
REMARK  status: ('A' for Active; 'I' for Inactive)
REMARK    1  A    between atoms: C_1  and  S_2
REMARK    2  A    between atoms: S_2  and  C_5
REMARK    3  A    between atoms: C_8  and  C_9
REMARK    4  A    between atoms: C_16  and  C_17
REMARK                            x       y       z     vdW  Elec       q    Type
REMARK                         _______ _______ _______ _____ _____    ______ ____
ROOT
ATOM      1  C   UNL     1       3.419   6.721  17.778  0.00  0.00    +0.000 A 
ATOM      2  S   UNL     1       4.533   7.351  16.552  0.00  0.00    +0.000 S 
ATOM      3  C   UNL     1       5.045   5.731  16.252  0.00  0.00    +0.000 A 
ATOM      4  N   UNL     1       5.864   5.174  15.409  0.00  0.00    +0.000 NA
ATOM      5  C   UNL     1       5.717   3.855  15.744  0.00  0.00    +0.000 A 
ATOM      6  N   UNL     1       4.860   3.587  16.746  0.00  0.00    +0.000 NA
ATOM      7  N   UNL     1       4.411   4.824  17.060  0.00  0.00    +0.000 N 
ATOM      8  C   UNL     1       3.480   5.375  17.944  0.00  0.00    +0.000 A 
ENDROOT
BRANCH   8   9
ATOM      9  C   UNL     1       2.664   4.582  18.881  0.00  0.00    +0.000 A 
ATOM     10  C   UNL     1       1.554   3.841  18.442  0.00  0.00    +0.000 A 
ATOM     11  C   UNL     1       0.808   3.060  19.340  0.00  0.00    +0.000 A 
ATOM     12  C   UNL     1       1.168   3.014  20.687  0.00  0.00    +0.000 A 
ATOM     13  F   UNL     1       0.465   2.259  21.536  0.00  0.00    +0.000 F 
ATOM     14  C   UNL     1       2.259   3.753  21.130  0.00  0.00    +0.000 A 
ATOM     15  F   UNL     1       2.613   3.710  22.422  0.00  0.00    +0.000 F 
ATOM     16  C   UNL     1       3.002   4.537  20.243  0.00  0.00    +0.000 A 
ENDBRANCH   8   9
BRANCH   1  20
ATOM     17  C   UNL     1       1.063   9.657  19.765  0.00  0.00    +0.000 A 
ATOM     18  C   UNL     1       1.445   9.853  18.437  0.00  0.00    +0.000 A 
ATOM     19  C   UNL     1       2.184   8.870  17.784  0.00  0.00    +0.000 A 
ATOM     20  C   UNL     1       2.580   7.707  18.461  0.00  0.00    +0.000 A 
ATOM     21  C   UNL     1       2.189   7.520  19.796  0.00  0.00    +0.000 A 
ATOM     22  C   UNL     1       1.437   8.499  20.453  0.00  0.00    +0.000 A 
BRANCH  17  24
ATOM     23  C   UNL     1      -0.870  11.582  19.284  0.00  0.00    +0.000 C 
ATOM     24  S   UNL     1       0.114  10.908  20.597  0.00  0.00    +0.000 S 
ATOM     25  O   UNL     1       1.038  11.933  21.048  0.00  0.00    +0.000 OA
ATOM     26  O   UNL     1      -0.770  10.238  21.529  0.00  0.00    +0.000 OA
ENDBRANCH  17  24
ENDBRANCH   1  20
TORSDOF 3
ENDMDL
MODEL 9
REMARK VINA RESULT:      -8.0      3.351      4.659
REMARK  Name = 
REMARK  4 active torsions:
REMARK  status: ('A' for Active; 'I' for Inactive)
REMARK    1  A    between atoms: C_1  and  S_2
REMARK    2  A    between atoms: S_2  and  C_5
REMARK    3  A    between atoms: C_8  and  C_9
REMARK    4  A    between atoms: C_16  and  C_17
REMARK                            x       y       z     vdW  Elec       q    Type
REMARK                         _______ _______ _______ _____ _____    ______ ____
ROOT
ATOM      1  C   UNL     1       2.421   5.324  19.018  0.00  0.00    +0.000 A 
ATOM      2  S   UNL     1       1.200   4.108  19.434  0.00  0.00    +0.000 S 
ATOM      3  C   UNL     1       2.343   2.885  19.017  0.00  0.00    +0.000 A 
ATOM      4  N   UNL     1       2.345   1.585  19.062  0.00  0.00    +0.000 NA
ATOM      5  C   UNL     1       3.610   1.316  18.611  0.00  0.00    +0.000 A 
ATOM      6  N   UNL     1       4.367   2.382  18.293  0.00  0.00    +0.000 NA
ATOM      7  N   UNL     1       3.532   3.407  18.580  0.00  0.00    +0.000 N 
ATOM      8  C   UNL     1       3.592   4.803  18.569  0.00  0.00    +0.000 A 
ENDROOT
BRANCH   8   9
ATOM      9  C   UNL     1       4.781   5.574  18.165  0.00  0.00    +0.000 A 
ATOM     10  C   UNL     1       4.762   6.420  17.043  0.00  0.00    +0.000 A 
ATOM     11  C   UNL     1       5.890   7.178  16.692  0.00  0.00    +0.000 A 
ATOM     12  C   UNL     1       7.050   7.096  17.463  0.00  0.00    +0.000 A 
ATOM     13  F   UNL     1       8.117   7.829  17.134  0.00  0.00    +0.000 F 
ATOM     14  C   UNL     1       7.080   6.253  18.567  0.00  0.00    +0.000 A 
ATOM     15  F   UNL     1       8.189   6.174  19.315  0.00  0.00    +0.000 F 
ATOM     16  C   UNL     1       5.962   5.492  18.920  0.00  0.00    +0.000 A 
ENDBRANCH   8   9
BRANCH   1  20
ATOM     17  C   UNL     1       1.395   9.423  19.525  0.00  0.00    +0.000 A 
ATOM     18  C   UNL     1       1.690   8.932  18.252  0.00  0.00    +0.000 A 
ATOM     19  C   UNL     1       1.989   7.582  18.091  0.00  0.00    +0.000 A 
ATOM     20  C   UNL     1       2.033   6.723  19.200  0.00  0.00    +0.000 A 
ATOM     21  C   UNL     1       1.733   7.228  20.474  0.00  0.00    +0.000 A 
ATOM     22  C   UNL     1       1.421   8.582  20.640  0.00  0.00    +0.000 A 
BRANCH  17  24
ATOM     23  C   UNL     1       2.074  11.924  18.546  0.00  0.00    +0.000 C 
ATOM     24  S   UNL     1       1.008  11.145  19.730  0.00  0.00    +0.000 S 
ATOM     25  O   UNL     1       1.439  11.537  21.060  0.00  0.00    +0.000 OA
ATOM     26  O   UNL     1      -0.363  11.338  19.304  0.00  0.00    +0.000 OA
ENDBRANCH  17  24
ENDBRANCH   1  20
TORSDOF 3
ENDMDL
