MODEL 1
REMARK VINA RESULT:      -7.7      0.000      0.000
REMARK  Name = 
REMARK  5 active torsions:
REMARK  status: ('A' for Active; 'I' for Inactive)
REMARK    1  A    between atoms: C_2  and  C_23
REMARK    2  A    between atoms: N_3  and  C_4
REMARK    3  A    between atoms: C_4  and  C_5
REMARK    4  A    between atoms: C_4  and  C_11
REMARK    5  A    between atoms: C_21  and  O_22
REMARK                            x       y       z     vdW  Elec       q    Type
REMARK                         _______ _______ _______ _____ _____    ______ ____
ROOT
ATOM      1  C   UNL     1       2.086   5.893  18.712  0.00  0.00    +0.000 C 
ENDROOT
BRANCH   1   2
ATOM      2  C   UNL     1       1.776   7.308  19.183  0.00  0.00    +0.000 A 
ATOM      3  C   UNL     1       1.217   7.470  20.460  0.00  0.00    +0.000 A 
ATOM      4  C   UNL     1       0.952   8.743  20.977  0.00  0.00    +0.000 A 
ATOM      5 CL   UNL     1       0.258   8.824  22.561  0.00  0.00    +0.000 Cl
ATOM      6  C   UNL     1       1.227   9.907  20.223  0.00  0.00    +0.000 A 
ATOM      7  C   UNL     1       1.075  11.231  20.693  0.00  0.00    +0.000 A 
ATOM      8  C   UNL     1       1.333  12.312  19.858  0.00  0.00    +0.000 A 
ATOM      9  C   UNL     1       1.721  12.046  18.560  0.00  0.00    +0.000 A 
ATOM     10  N   UNL     1       1.937  10.801  18.083  0.00  0.00    +0.000 NA
ATOM     11  C   UNL     1       1.712   9.756  18.911  0.00  0.00    +0.000 A 
ATOM     12  C   UNL     1       2.008   8.474  18.439  0.00  0.00    +0.000 A 
BRANCH  12  13
ATOM     13  O   UNL     1       2.588   8.400  17.187  0.00  0.00    +0.000 OA
ATOM     14  H   UNL     1       3.265   7.690  17.292  0.00  0.00    +0.000 HD
ENDBRANCH  12  13
ENDBRANCH   1   2
BRANCH   1  15
ATOM     15  C   UNL     1       1.905   4.793  19.755  0.00  0.00    +0.000 A 
ATOM     16  C   UNL     1       2.740   4.645  20.872  0.00  0.00    +0.000 A 
ATOM     17  C   UNL     1       2.528   3.603  21.783  0.00  0.00    +0.000 A 
ATOM     18  C   UNL     1       1.496   2.686  21.583  0.00  0.00    +0.000 A 
ATOM     19  C   UNL     1       0.678   2.802  20.463  0.00  0.00    +0.000 A 
ATOM     20  C   UNL     1       0.883   3.843  19.556  0.00  0.00    +0.000 A 
ENDBRANCH   1  15
BRANCH   1  23
ATOM     21  O   UNL     1       2.961   3.835  16.969  0.00  0.00    +0.000 OA
ATOM     22  C   UNL     1       3.715   4.761  17.244  0.00  0.00    +0.000 C 
ATOM     23  N   UNL     1       3.397   5.773  18.115  0.00  0.00    +0.000 N 
ATOM     24  H   UNL     1       4.028   6.539  18.291  0.00  0.00    +0.000 HD
BRANCH  22  25
ATOM     25  C   UNL     1       5.072   4.801  16.656  0.00  0.00    +0.000 A 
ATOM     26  C   UNL     1       5.332   4.822  15.290  0.00  0.00    +0.000 A 
ATOM     27  C   UNL     1       6.653   4.868  14.843  0.00  0.00    +0.000 A 
ATOM     28  C   UNL     1       7.665   4.890  15.786  0.00  0.00    +0.000 A 
ATOM     29  N   UNL     1       7.455   4.853  17.121  0.00  0.00    +0.000 NA
ATOM     30  C   UNL     1       6.156   4.803  17.525  0.00  0.00    +0.000 A 
ENDBRANCH  22  25
ENDBRANCH   1  23
TORSDOF 5
ENDMDL
MODEL 2
REMARK VINA RESULT:      -7.7      4.008      6.807
REMARK  Name = 
REMARK  5 active torsions:
REMARK  status: ('A' for Active; 'I' for Inactive)
REMARK    1  A    between atoms: C_2  and  C_23
REMARK    2  A    between atoms: N_3  and  C_4
REMARK    3  A    between atoms: C_4  and  C_5
REMARK    4  A    between atoms: C_4  and  C_11
REMARK    5  A    between atoms: C_21  and  O_22
REMARK                            x       y       z     vdW  Elec       q    Type
REMARK                         _______ _______ _______ _____ _____    ______ ____
ROOT
ATOM      1  C   UNL     1       0.377  10.759  19.713  0.00  0.00    +0.000 C 
ENDROOT
BRANCH   1   2
ATOM      2  C   UNL     1      -0.992  10.936  19.068  0.00  0.00    +0.000 A 
ATOM      3  C   UNL     1      -1.217  10.332  17.821  0.00  0.00    +0.000 A 
ATOM      4  C   UNL     1      -2.464  10.412  17.194  0.00  0.00    +0.000 A 
ATOM      5 CL   UNL     1      -2.626   9.632  15.656  0.00  0.00    +0.000 Cl
ATOM      6  C   UNL     1      -3.536  11.115  17.789  0.00  0.00    +0.000 A 
ATOM      7  C   UNL     1      -4.850  11.177  17.274  0.00  0.00    +0.000 A 
ATOM      8  C   UNL     1      -5.826  11.932  17.914  0.00  0.00    +0.000 A 
ATOM      9  C   UNL     1      -5.462  12.628  19.049  0.00  0.00    +0.000 A 
ATOM     10  N   UNL     1      -4.235  12.554  19.612  0.00  0.00    +0.000 NA
ATOM     11  C   UNL     1      -3.301  11.793  18.999  0.00  0.00    +0.000 A 
ATOM     12  C   UNL     1      -2.058  11.658  19.624  0.00  0.00    +0.000 A 
BRANCH  12  13
ATOM     13  O   UNL     1      -1.926  12.253  20.865  0.00  0.00    +0.000 OA
ATOM     14  H   UNL     1      -1.360  13.039  20.680  0.00  0.00    +0.000 HD
ENDBRANCH  12  13
ENDBRANCH   1   2
BRANCH   1  15
ATOM     15  C   UNL     1       1.323  11.951  19.595  0.00  0.00    +0.000 A 
ATOM     16  C   UNL     1       1.511  12.890  20.620  0.00  0.00    +0.000 A 
ATOM     17  C   UNL     1       2.384  13.971  20.440  0.00  0.00    +0.000 A 
ATOM     18  C   UNL     1       3.062  14.141  19.233  0.00  0.00    +0.000 A 
ATOM     19  C   UNL     1       2.862  13.235  18.197  0.00  0.00    +0.000 A 
ATOM     20  C   UNL     1       1.999  12.152  18.375  0.00  0.00    +0.000 A 
ENDBRANCH   1  15
BRANCH   1  23
ATOM     21  O   UNL     1       1.368   8.676  21.362  0.00  0.00    +0.000 OA
ATOM     22  C   UNL     1       1.463   8.586  20.143  0.00  0.00    +0.000 C 
ATOM     23  N   UNL     1       1.057   9.563  19.270  0.00  0.00    +0.000 N 
ATOM     24  H   UNL     1       1.117   9.441  18.272  0.00  0.00    +0.000 HD
BRANCH  22  25
ATOM     25  C   UNL     1       2.085   7.385  19.544  0.00  0.00    +0.000 A 
ATOM     26  C   UNL     1       2.677   7.355  18.286  0.00  0.00    +0.000 A 
ATOM     27  C   UNL     1       3.244   6.168  17.821  0.00  0.00    +0.000 A 
ATOM     28  C   UNL     1       3.193   5.053  18.637  0.00  0.00    +0.000 A 
ATOM     29  N   UNL     1       2.611   5.035  19.858  0.00  0.00    +0.000 NA
ATOM     30  C   UNL     1       2.063   6.208  20.281  0.00  0.00    +0.000 A 
ENDBRANCH  22  25
ENDBRANCH   1  23
TORSDOF 5
ENDMDL
MODEL 3
REMARK VINA RESULT:      -7.7      4.030      6.950
REMARK  Name = 
REMARK  5 active torsions:
REMARK  status: ('A' for Active; 'I' for Inactive)
REMARK    1  A    between atoms: C_2  and  C_23
REMARK    2  A    between atoms: N_3  and  C_4
REMARK    3  A    between atoms: C_4  and  C_5
REMARK    4  A    between atoms: C_4  and  C_11
REMARK    5  A    between atoms: C_21  and  O_22
REMARK                            x       y       z     vdW  Elec       q    Type
REMARK                         _______ _______ _______ _____ _____    ______ ____
ROOT
ATOM      1  C   UNL     1       0.275  10.802  19.768  0.00  0.00    +0.000 C 
ENDROOT
BRANCH   1   2
ATOM      2  C   UNL     1      -1.081  10.986  19.098  0.00  0.00    +0.000 A 
ATOM      3  C   UNL     1      -1.282  10.392  17.842  0.00  0.00    +0.000 A 
ATOM      4  C   UNL     1      -2.517  10.478  17.192  0.00  0.00    +0.000 A 
ATOM      5 CL   UNL     1      -2.650   9.711  15.645  0.00  0.00    +0.000 Cl
ATOM      6  C   UNL     1      -3.599  11.178  17.772  0.00  0.00    +0.000 A 
ATOM      7  C   UNL     1      -4.903  11.245  17.232  0.00  0.00    +0.000 A 
ATOM      8  C   UNL     1      -5.891  11.995  17.860  0.00  0.00    +0.000 A 
ATOM      9  C   UNL     1      -5.548  12.682  19.007  0.00  0.00    +0.000 A 
ATOM     10  N   UNL     1      -4.333  12.602  19.593  0.00  0.00    +0.000 NA
ATOM     11  C   UNL     1      -3.388  11.845  18.992  0.00  0.00    +0.000 A 
ATOM     12  C   UNL     1      -2.156  11.704  19.640  0.00  0.00    +0.000 A 
BRANCH  12  13
ATOM     13  O   UNL     1      -2.049  12.289  20.888  0.00  0.00    +0.000 OA
ATOM     14  H   UNL     1      -1.253  12.866  20.800  0.00  0.00    +0.000 HD
ENDBRANCH  12  13
ENDBRANCH   1   2
BRANCH   1  15
ATOM     15  C   UNL     1       1.267  11.947  19.579  0.00  0.00    +0.000 A 
ATOM     16  C   UNL     1       1.962  12.175  18.383  0.00  0.00    +0.000 A 
ATOM     17  C   UNL     1       2.873  13.235  18.281  0.00  0.00    +0.000 A 
ATOM     18  C   UNL     1       3.116  14.065  19.375  0.00  0.00    +0.000 A 
ATOM     19  C   UNL     1       2.458  13.833  20.578  0.00  0.00    +0.000 A 
ATOM     20  C   UNL     1       1.545  12.782  20.680  0.00  0.00    +0.000 A 
ENDBRANCH   1  15
BRANCH   1  23
ATOM     21  O   UNL     1       1.326   8.880  21.568  0.00  0.00    +0.000 OA
ATOM     22  C   UNL     1       1.352   8.663  20.362  0.00  0.00    +0.000 C 
ATOM     23  N   UNL     1       0.913   9.554  19.416  0.00  0.00    +0.000 N 
ATOM     24  H   UNL     1       0.915   9.329  18.434  0.00  0.00    +0.000 HD
BRANCH  22  25
ATOM     25  C   UNL     1       1.923   7.395  19.858  0.00  0.00    +0.000 A 
ATOM     26  C   UNL     1       1.879   6.188  20.548  0.00  0.00    +0.000 A 
ATOM     27  C   UNL     1       2.443   5.048  19.975  0.00  0.00    +0.000 A 
ATOM     28  C   UNL     1       3.032   5.163  18.728  0.00  0.00    +0.000 A 
ATOM     29  N   UNL     1       3.112   6.321  18.033  0.00  0.00    +0.000 NA
ATOM     30  C   UNL     1       2.557   7.415  18.622  0.00  0.00    +0.000 A 
ENDBRANCH  22  25
ENDBRANCH   1  23
TORSDOF 5
ENDMDL
MODEL 4
REMARK VINA RESULT:      -7.6      3.508      6.153
REMARK  Name = 
REMARK  5 active torsions:
REMARK  status: ('A' for Active; 'I' for Inactive)
REMARK    1  A    between atoms: C_2  and  C_23
REMARK    2  A    between atoms: N_3  and  C_4
REMARK    3  A    between atoms: C_4  and  C_5
REMARK    4  A    between atoms: C_4  and  C_11
REMARK    5  A    between atoms: C_21  and  O_22
REMARK                            x       y       z     vdW  Elec       q    Type
REMARK                         _______ _______ _______ _____ _____    ______ ____
ROOT
ATOM      1  C   UNL     1       6.102   5.021  17.774  0.00  0.00    +0.000 C 
ENDROOT
BRANCH   1   2
ATOM      2  C   UNL     1       4.866   4.851  18.648  0.00  0.00    +0.000 A 
ATOM      3  C   UNL     1       3.994   5.943  18.778  0.00  0.00    +0.000 A 
ATOM      4  C   UNL     1       2.815   5.842  19.523  0.00  0.00    +0.000 A 
ATOM      5 CL   UNL     1       1.817   7.254  19.618  0.00  0.00    +0.000 Cl
ATOM      6  C   UNL     1       2.470   4.640  20.181  0.00  0.00    +0.000 A 
ATOM      7  C   UNL     1       1.264   4.418  20.883  0.00  0.00    +0.000 A 
ATOM      8  C   UNL     1       1.035   3.211  21.533  0.00  0.00    +0.000 A 
ATOM      9  C   UNL     1       2.029   2.255  21.486  0.00  0.00    +0.000 A 
ATOM     10  N   UNL     1       3.173   2.398  20.781  0.00  0.00    +0.000 NA
ATOM     11  C   UNL     1       3.373   3.563  20.127  0.00  0.00    +0.000 A 
ATOM     12  C   UNL     1       4.522   3.679  19.337  0.00  0.00    +0.000 A 
BRANCH  12  13
ATOM     13  O   UNL     1       5.311   2.549  19.232  0.00  0.00    +0.000 OA
ATOM     14  H   UNL     1       4.948   2.093  18.437  0.00  0.00    +0.000 HD
ENDBRANCH  12  13
ENDBRANCH   1   2
BRANCH   1  15
ATOM     15  C   UNL     1       6.834   6.354  17.916  0.00  0.00    +0.000 A 
ATOM     16  C   UNL     1       6.542   7.481  17.134  0.00  0.00    +0.000 A 
ATOM     17  C   UNL     1       7.264   8.669  17.304  0.00  0.00    +0.000 A 
ATOM     18  C   UNL     1       8.297   8.742  18.238  0.00  0.00    +0.000 A 
ATOM     19  C   UNL     1       8.619   7.623  19.000  0.00  0.00    +0.000 A 
ATOM     20  C   UNL     1       7.897   6.439  18.838  0.00  0.00    +0.000 A 
ENDBRANCH   1  15
BRANCH   1  23
ATOM     21  O   UNL     1       8.041   4.527  15.765  0.00  0.00    +0.000 OA
ATOM     22  C   UNL     1       6.848   4.491  15.483  0.00  0.00    +0.000 C 
ATOM     23  N   UNL     1       5.844   4.765  16.376  0.00  0.00    +0.000 N 
ATOM     24  H   UNL     1       4.872   4.692  16.119  0.00  0.00    +0.000 HD
BRANCH  22  25
ATOM     25  C   UNL     1       6.432   4.181  14.097  0.00  0.00    +0.000 A 
ATOM     26  C   UNL     1       5.167   3.723  13.745  0.00  0.00    +0.000 A 
ATOM     27  C   UNL     1       4.878   3.469  12.404  0.00  0.00    +0.000 A 
ATOM     28  C   UNL     1       5.873   3.682  11.466  0.00  0.00    +0.000 A 
ATOM     29  N   UNL     1       7.120   4.109  11.770  0.00  0.00    +0.000 NA
ATOM     30  C   UNL     1       7.371   4.343  13.087  0.00  0.00    +0.000 A 
ENDBRANCH  22  25
ENDBRANCH   1  23
TORSDOF 5
ENDMDL
MODEL 5
REMARK VINA RESULT:      -7.5      4.290      7.544
REMARK  Name = 
REMARK  5 active torsions:
REMARK  status: ('A' for Active; 'I' for Inactive)
REMARK    1  A    between atoms: C_2  and  C_23
REMARK    2  A    between atoms: N_3  and  C_4
REMARK    3  A    between atoms: C_4  and  C_5
REMARK    4  A    between atoms: C_4  and  C_11
REMARK    5  A    between atoms: C_21  and  O_22
REMARK                            x       y       z     vdW  Elec       q    Type
REMARK                         _______ _______ _______ _____ _____    ______ ____
ROOT
ATOM      1  C   UNL     1       0.191  11.807  19.403  0.00  0.00    +0.000 C 
ENDROOT
BRANCH   1   2
ATOM      2  C   UNL     1      -1.233  11.731  18.866  0.00  0.00    +0.000 A 
ATOM      3  C   UNL     1      -1.416  11.299  17.544  0.00  0.00    +0.000 A 
ATOM      4  C   UNL     1      -2.698  11.158  17.001  0.00  0.00    +0.000 A 
ATOM      5 CL   UNL     1      -2.805  10.620  15.358  0.00  0.00    +0.000 Cl
ATOM      6  C   UNL     1      -3.849  11.460  17.763  0.00  0.00    +0.000 A 
ATOM      7  C   UNL     1      -5.180  11.267  17.331  0.00  0.00    +0.000 A 
ATOM      8  C   UNL     1      -6.248  11.635  18.141  0.00  0.00    +0.000 A 
ATOM      9  C   UNL     1      -5.962  12.209  19.363  0.00  0.00    +0.000 A 
ATOM     10  N   UNL     1      -4.708  12.360  19.844  0.00  0.00    +0.000 NA
ATOM     11  C   UNL     1      -3.677  11.971  19.062  0.00  0.00    +0.000 A 
ATOM     12  C   UNL     1      -2.386  12.059  19.592  0.00  0.00    +0.000 A 
BRANCH  12  13
ATOM     13  O   UNL     1      -2.291  12.460  20.912  0.00  0.00    +0.000 OA
ATOM     14  H   UNL     1      -2.122  11.617  21.394  0.00  0.00    +0.000 HD
ENDBRANCH  12  13
ENDBRANCH   1   2
BRANCH   1  15
ATOM     15  C   UNL     1       0.971  13.067  19.035  0.00  0.00    +0.000 A 
ATOM     16  C   UNL     1       2.216  13.041  18.389  0.00  0.00    +0.000 A 
ATOM     17  C   UNL     1       2.887  14.235  18.095  0.00  0.00    +0.000 A 
ATOM     18  C   UNL     1       2.338  15.464  18.458  0.00  0.00    +0.000 A 
ATOM     19  C   UNL     1       1.119  15.504  19.127  0.00  0.00    +0.000 A 
ATOM     20  C   UNL     1       0.444  14.317  19.416  0.00  0.00    +0.000 A 
ENDBRANCH   1  15
BRANCH   1  23
ATOM     21  O   UNL     1       0.333   9.392  20.881  0.00  0.00    +0.000 OA
ATOM     22  C   UNL     1       0.950   9.498  19.828  0.00  0.00    +0.000 C 
ATOM     23  N   UNL     1       0.980  10.643  19.072  0.00  0.00    +0.000 N 
ATOM     24  H   UNL     1       1.469  10.684  18.192  0.00  0.00    +0.000 HD
BRANCH  22  25
ATOM     25  C   UNL     1       1.756   8.360  19.333  0.00  0.00    +0.000 A 
ATOM     26  C   UNL     1       2.364   8.318  18.083  0.00  0.00    +0.000 A 
ATOM     27  C   UNL     1       3.110   7.196  17.719  0.00  0.00    +0.000 A 
ATOM     28  C   UNL     1       3.217   6.157  18.627  0.00  0.00    +0.000 A 
ATOM     29  N   UNL     1       2.627   6.152  19.844  0.00  0.00    +0.000 NA
ATOM     30  C   UNL     1       1.902   7.258  20.165  0.00  0.00    +0.000 A 
ENDBRANCH  22  25
ENDBRANCH   1  23
TORSDOF 5
ENDMDL
MODEL 6
REMARK VINA RESULT:      -7.5      3.027      7.586
REMARK  Name = 
REMARK  5 active torsions:
REMARK  status: ('A' for Active; 'I' for Inactive)
REMARK    1  A    between atoms: C_2  and  C_23
REMARK    2  A    between atoms: N_3  and  C_4
REMARK    3  A    between atoms: C_4  and  C_5
REMARK    4  A    between atoms: C_4  and  C_11
REMARK    5  A    between atoms: C_21  and  O_22
REMARK                            x       y       z     vdW  Elec       q    Type
REMARK                         _______ _______ _______ _____ _____    ______ ____
ROOT
ATOM      1  C   UNL     1       0.506  10.615  19.408  0.00  0.00    +0.000 C 
ENDROOT
BRANCH   1   2
ATOM      2  C   UNL     1       1.316   9.345  19.179  0.00  0.00    +0.000 A 
ATOM      3  C   UNL     1       1.171   8.295  20.099  0.00  0.00    +0.000 A 
ATOM      4  C   UNL     1       1.845   7.083  19.923  0.00  0.00    +0.000 A 
ATOM      5 CL   UNL     1       1.595   5.859  21.123  0.00  0.00    +0.000 Cl
ATOM      6  C   UNL     1       2.706   6.880  18.820  0.00  0.00    +0.000 A 
ATOM      7  C   UNL     1       3.359   5.666  18.515  0.00  0.00    +0.000 A 
ATOM      8  C   UNL     1       4.221   5.580  17.427  0.00  0.00    +0.000 A 
ATOM      9  C   UNL     1       4.427   6.719  16.676  0.00  0.00    +0.000 A 
ATOM     10  N   UNL     1       3.782   7.886  16.894  0.00  0.00    +0.000 NA
ATOM     11  C   UNL     1       2.923   7.952  17.935  0.00  0.00    +0.000 A 
ATOM     12  C   UNL     1       2.200   9.136  18.112  0.00  0.00    +0.000 A 
BRANCH  12  13
ATOM     13  O   UNL     1       2.372  10.109  17.145  0.00  0.00    +0.000 OA
ATOM     14  H   UNL     1       2.190   9.628  16.304  0.00  0.00    +0.000 HD
ENDBRANCH  12  13
ENDBRANCH   1   2
BRANCH   1  15
ATOM     15  C   UNL     1      -0.871  10.650  18.750  0.00  0.00    +0.000 A 
ATOM     16  C   UNL     1      -1.220   9.854  17.649  0.00  0.00    +0.000 A 
ATOM     17  C   UNL     1      -2.497   9.948  17.082  0.00  0.00    +0.000 A 
ATOM     18  C   UNL     1      -3.434  10.847  17.591  0.00  0.00    +0.000 A 
ATOM     19  C   UNL     1      -3.092  11.665  18.663  0.00  0.00    +0.000 A 
ATOM     20  C   UNL     1      -1.823  11.570  19.235  0.00  0.00    +0.000 A 
ENDBRANCH   1  15
BRANCH   1  23
ATOM     21  O   UNL     1       1.585  12.513  21.217  0.00  0.00    +0.000 OA
ATOM     22  C   UNL     1       1.756  12.655  20.012  0.00  0.00    +0.000 C 
ATOM     23  N   UNL     1       1.231  11.816  19.062  0.00  0.00    +0.000 N 
ATOM     24  H   UNL     1       1.422  11.941  18.080  0.00  0.00    +0.000 HD
BRANCH  22  25
ATOM     25  C   UNL     1       2.534  13.811  19.513  0.00  0.00    +0.000 A 
ATOM     26  C   UNL     1       2.577  14.208  18.182  0.00  0.00    +0.000 A 
ATOM     27  C   UNL     1       3.338  15.320  17.821  0.00  0.00    +0.000 A 
ATOM     28  C   UNL     1       4.029  15.993  18.814  0.00  0.00    +0.000 A 
ATOM     29  N   UNL     1       4.027  15.628  20.116  0.00  0.00    +0.000 NA
ATOM     30  C   UNL     1       3.279  14.535  20.434  0.00  0.00    +0.000 A 
ENDBRANCH  22  25
ENDBRANCH   1  23
TORSDOF 5
ENDMDL
MODEL 7
REMARK VINA RESULT:      -7.5      3.598      6.798
REMARK  Name = 
REMARK  5 active torsions:
REMARK  status: ('A' for Active; 'I' for Inactive)
REMARK    1  A    between atoms: C_2  and  C_23
REMARK    2  A    between atoms: N_3  and  C_4
REMARK    3  A    between atoms: C_4  and  C_5
REMARK    4  A    between atoms: C_4  and  C_11
REMARK    5  A    between atoms: C_21  and  O_22
REMARK                            x       y       z     vdW  Elec       q    Type
REMARK                         _______ _______ _______ _____ _____    ______ ____
ROOT
ATOM      1  C   UNL     1       0.549  11.193  20.156  0.00  0.00    +0.000 C 
ENDROOT
BRANCH   1   2
ATOM      2  C   UNL     1      -0.889  11.412  19.702  0.00  0.00    +0.000 A 
ATOM      3  C   UNL     1      -1.772  12.047  20.590  0.00  0.00    +0.000 A 
ATOM      4  C   UNL     1      -3.092  12.325  20.221  0.00  0.00    +0.000 A 
ATOM      5 CL   UNL     1      -4.093  13.108  21.398  0.00  0.00    +0.000 Cl
ATOM      6  C   UNL     1      -3.584  11.964  18.946  0.00  0.00    +0.000 A 
ATOM      7  C   UNL     1      -4.871  12.278  18.455  0.00  0.00    +0.000 A 
ATOM      8  C   UNL     1      -5.276  11.840  17.200  0.00  0.00    +0.000 A 
ATOM      9  C   UNL     1      -4.390  11.077  16.466  0.00  0.00    +0.000 A 
ATOM     10  N   UNL     1      -3.130  10.799  16.868  0.00  0.00    +0.000 NA
ATOM     11  C   UNL     1      -2.735  11.255  18.077  0.00  0.00    +0.000 A 
ATOM     12  C   UNL     1      -1.407  11.031  18.456  0.00  0.00    +0.000 A 
BRANCH  12  13
ATOM     13  O   UNL     1      -0.592  10.432  17.514  0.00  0.00    +0.000 OA
ATOM     14  H   UNL     1      -0.622   9.478  17.763  0.00  0.00    +0.000 HD
ENDBRANCH  12  13
ENDBRANCH   1   2
BRANCH   1  15
ATOM     15  C   UNL     1       1.520  12.330  19.851  0.00  0.00    +0.000 A 
ATOM     16  C   UNL     1       1.839  13.340  20.770  0.00  0.00    +0.000 A 
ATOM     17  C   UNL     1       2.726  14.365  20.419  0.00  0.00    +0.000 A 
ATOM     18  C   UNL     1       3.290  14.408  19.144  0.00  0.00    +0.000 A 
ATOM     19  C   UNL     1       2.960  13.430  18.211  0.00  0.00    +0.000 A 
ATOM     20  C   UNL     1       2.081  12.403  18.560  0.00  0.00    +0.000 A 
ENDBRANCH   1  15
BRANCH   1  23
ATOM     21  O   UNL     1       1.225   8.936  21.734  0.00  0.00    +0.000 OA
ATOM     22  C   UNL     1       1.360   8.891  20.517  0.00  0.00    +0.000 C 
ATOM     23  N   UNL     1       1.106   9.948  19.680  0.00  0.00    +0.000 N 
ATOM     24  H   UNL     1       1.193   9.864  18.679  0.00  0.00    +0.000 HD
BRANCH  22  25
ATOM     25  C   UNL     1       1.866   7.654  19.882  0.00  0.00    +0.000 A 
ATOM     26  C   UNL     1       2.404   7.596  18.601  0.00  0.00    +0.000 A 
ATOM     27  C   UNL     1       2.860   6.376  18.102  0.00  0.00    +0.000 A 
ATOM     28  C   UNL     1       2.758   5.257  18.909  0.00  0.00    +0.000 A 
ATOM     29  N   UNL     1       2.225   5.268  20.152  0.00  0.00    +0.000 NA
ATOM     30  C   UNL     1       1.784   6.473  20.608  0.00  0.00    +0.000 A 
ENDBRANCH  22  25
ENDBRANCH   1  23
TORSDOF 5
ENDMDL
MODEL 8
REMARK VINA RESULT:      -7.5      3.598      6.873
REMARK  Name = 
REMARK  5 active torsions:
REMARK  status: ('A' for Active; 'I' for Inactive)
REMARK    1  A    between atoms: C_2  and  C_23
REMARK    2  A    between atoms: N_3  and  C_4
REMARK    3  A    between atoms: C_4  and  C_5
REMARK    4  A    between atoms: C_4  and  C_11
REMARK    5  A    between atoms: C_21  and  O_22
REMARK                            x       y       z     vdW  Elec       q    Type
REMARK                         _______ _______ _______ _____ _____    ______ ____
ROOT
ATOM      1  C   UNL     1       0.504  11.167  20.148  0.00  0.00    +0.000 C 
ENDROOT
BRANCH   1   2
ATOM      2  C   UNL     1      -0.934  11.403  19.705  0.00  0.00    +0.000 A 
ATOM      3  C   UNL     1      -1.797  12.067  20.591  0.00  0.00    +0.000 A 
ATOM      4  C   UNL     1      -3.116  12.362  20.230  0.00  0.00    +0.000 A 
ATOM      5 CL   UNL     1      -4.092  13.180  21.403  0.00  0.00    +0.000 Cl
ATOM      6  C   UNL     1      -3.627  11.988  18.966  0.00  0.00    +0.000 A 
ATOM      7  C   UNL     1      -4.913  12.317  18.483  0.00  0.00    +0.000 A 
ATOM      8  C   UNL     1      -5.338  11.865  17.239  0.00  0.00    +0.000 A 
ATOM      9  C   UNL     1      -4.473  11.075  16.509  0.00  0.00    +0.000 A 
ATOM     10  N   UNL     1      -3.214  10.783  16.903  0.00  0.00    +0.000 NA
ATOM     11  C   UNL     1      -2.799  11.251  18.101  0.00  0.00    +0.000 A 
ATOM     12  C   UNL     1      -1.472  11.011  18.471  0.00  0.00    +0.000 A 
BRANCH  12  13
ATOM     13  O   UNL     1      -0.676  10.383  17.530  0.00  0.00    +0.000 OA
ATOM     14  H   UNL     1       0.239  10.577  17.842  0.00  0.00    +0.000 HD
ENDBRANCH  12  13
ENDBRANCH   1   2
BRANCH   1  15
ATOM     15  C   UNL     1       1.499  12.264  19.778  0.00  0.00    +0.000 A 
ATOM     16  C   UNL     1       2.049  12.405  18.496  0.00  0.00    +0.000 A 
ATOM     17  C   UNL     1       2.971  13.425  18.227  0.00  0.00    +0.000 A 
ATOM     18  C   UNL     1       3.372  14.301  19.236  0.00  0.00    +0.000 A 
ATOM     19  C   UNL     1       2.859  14.153  20.521  0.00  0.00    +0.000 A 
ATOM     20  C   UNL     1       1.935  13.143  20.790  0.00  0.00    +0.000 A 
ENDBRANCH   1  15
BRANCH   1  23
ATOM     21  O   UNL     1       1.316   9.032  21.828  0.00  0.00    +0.000 OA
ATOM     22  C   UNL     1       1.348   8.895  20.610  0.00  0.00    +0.000 C 
ATOM     23  N   UNL     1       1.022   9.888  19.721  0.00  0.00    +0.000 N 
ATOM     24  H   UNL     1       1.025   9.730  18.726  0.00  0.00    +0.000 HD
BRANCH  22  25
ATOM     25  C   UNL     1       1.802   7.613  20.029  0.00  0.00    +0.000 A 
ATOM     26  C   UNL     1       1.696   6.383  20.669  0.00  0.00    +0.000 A 
ATOM     27  C   UNL     1       2.149   5.232  20.025  0.00  0.00    +0.000 A 
ATOM     28  C   UNL     1       2.694   5.359  18.760  0.00  0.00    +0.000 A 
ATOM     29  N   UNL     1       2.832   6.537  18.111  0.00  0.00    +0.000 NA
ATOM     30  C   UNL     1       2.385   7.642  18.768  0.00  0.00    +0.000 A 
ENDBRANCH  22  25
ENDBRANCH   1  23
TORSDOF 5
ENDMDL
MODEL 9
REMARK VINA RESULT:      -7.4      4.469      7.687
REMARK  Name = 
REMARK  5 active torsions:
REMARK  status: ('A' for Active; 'I' for Inactive)
REMARK    1  A    between atoms: C_2  and  C_23
REMARK    2  A    between atoms: N_3  and  C_4
REMARK    3  A    between atoms: C_4  and  C_5
REMARK    4  A    between atoms: C_4  and  C_11
REMARK    5  A    between atoms: C_21  and  O_22
REMARK                            x       y       z     vdW  Elec       q    Type
REMARK                         _______ _______ _______ _____ _____    ______ ____
ROOT
ATOM      1  C   UNL     1       0.647  10.906  18.635  0.00  0.00    +0.000 C 
ENDROOT
BRANCH   1   2
ATOM      2  C   UNL     1      -0.856  11.010  18.404  0.00  0.00    +0.000 A 
ATOM      3  C   UNL     1      -1.394  10.379  17.271  0.00  0.00    +0.000 A 
ATOM      4  C   UNL     1      -2.770  10.392  17.023  0.00  0.00    +0.000 A 
ATOM      5 CL   UNL     1      -3.322   9.585  15.594  0.00  0.00    +0.000 Cl
ATOM      6  C   UNL     1      -3.663  11.051  17.898  0.00  0.00    +0.000 A 
ATOM      7  C   UNL     1      -5.070  11.044  17.777  0.00  0.00    +0.000 A 
ATOM      8  C   UNL     1      -5.861  11.761  18.667  0.00  0.00    +0.000 A 
ATOM      9  C   UNL     1      -5.225  12.488  19.653  0.00  0.00    +0.000 A 
ATOM     10  N   UNL     1      -3.888  12.479  19.845  0.00  0.00    +0.000 NA
ATOM     11  C   UNL     1      -3.129  11.756  18.993  0.00  0.00    +0.000 A 
ATOM     12  C   UNL     1      -1.754  11.688  19.239  0.00  0.00    +0.000 A 
BRANCH  12  13
ATOM     13  O   UNL     1      -1.307  12.305  20.393  0.00  0.00    +0.000 OA
ATOM     14  H   UNL     1      -1.353  11.587  21.067  0.00  0.00    +0.000 HD
ENDBRANCH  12  13
ENDBRANCH   1   2
BRANCH   1  15
ATOM     15  C   UNL     1       1.153   9.542  19.097  0.00  0.00    +0.000 A 
ATOM     16  C   UNL     1       0.984   9.059  20.403  0.00  0.00    +0.000 A 
ATOM     17  C   UNL     1       1.488   7.804  20.766  0.00  0.00    +0.000 A 
ATOM     18  C   UNL     1       2.183   7.025  19.840  0.00  0.00    +0.000 A 
ATOM     19  C   UNL     1       2.386   7.505  18.550  0.00  0.00    +0.000 A 
ATOM     20  C   UNL     1       1.879   8.752  18.183  0.00  0.00    +0.000 A 
ENDBRANCH   1  15
BRANCH   1  23
ATOM     21  O   UNL     1       2.800  12.676  18.114  0.00  0.00    +0.000 OA
ATOM     22  C   UNL     1       2.174  12.771  19.164  0.00  0.00    +0.000 C 
ATOM     23  N   UNL     1       1.152  11.929  19.522  0.00  0.00    +0.000 N 
ATOM     24  H   UNL     1       0.635  12.057  20.378  0.00  0.00    +0.000 HD
BRANCH  22  25
ATOM     25  C   UNL     1       2.543  13.815  20.145  0.00  0.00    +0.000 A 
ATOM     26  C   UNL     1       3.635  14.664  20.010  0.00  0.00    +0.000 A 
ATOM     27  C   UNL     1       3.887  15.621  20.993  0.00  0.00    +0.000 A 
ATOM     28  C   UNL     1       3.032  15.689  22.078  0.00  0.00    +0.000 A 
ATOM     29  N   UNL     1       1.970  14.870  22.256  0.00  0.00    +0.000 NA
ATOM     30  C   UNL     1       1.755  13.944  21.282  0.00  0.00    +0.000 A 
ENDBRANCH  22  25
ENDBRANCH   1  23
TORSDOF 5
ENDMDL
