MODEL 1
REMARK VINA RESULT:      -7.8      0.000      0.000
REMARK  Name = 
REMARK  6 active torsions:
REMARK  status: ('A' for Active; 'I' for Inactive)
REMARK    1  A    between atoms: C_1  and  N_2
REMARK    2  A    between atoms: C_4  and  C_5
REMARK    3  A    between atoms: C_7  and  C_8
REMARK    4  A    between atoms: C_12  and  O_13
REMARK    5  A    between atoms: O_13  and  C_14
REMARK    6  A    between atoms: C_14  and  C_15
REMARK                            x       y       z     vdW  Elec       q    Type
REMARK                         _______ _______ _______ _____ _____    ______ ____
ROOT
ATOM      1  C   UNL     1       5.213   5.197  17.697  0.00  0.00    +0.000 A 
ATOM      2  N   UNL     1       5.722   4.438  16.756  0.00  0.00    +0.000 NA
ATOM      3  C   UNL     1       5.755   5.288  15.664  0.00  0.00    +0.000 A 
ATOM      4  N   UNL     1       5.259   6.512  15.918  0.00  0.00    +0.000 NA
ATOM      5  O   UNL     1       4.884   6.447  17.257  0.00  0.00    +0.000 OA
ENDROOT
BRANCH   1   9
ATOM      6  C   UNL     1       3.262   1.971  17.866  0.00  0.00    +0.000 C 
ATOM      7  N   UNL     1       3.363   3.075  18.799  0.00  0.00    +0.000 N 
ATOM      8  C   UNL     1       4.655   3.419  19.379  0.00  0.00    +0.000 C 
ATOM      9  C   UNL     1       5.004   4.896  19.152  0.00  0.00    +0.000 C 
ATOM     10  N   UNL     1       3.943   5.708  19.795  0.00  0.00    +0.000 NA
ATOM     11  C   UNL     1       2.594   5.414  19.257  0.00  0.00    +0.000 C 
ATOM     12  C   UNL     1       2.288   3.946  18.905  0.00  0.00    +0.000 C 
ATOM     13  O   UNL     1       1.146   3.611  18.581  0.00  0.00    +0.000 OA
ATOM     14  H   UNL     1       4.143   6.692  19.607  0.00  0.00    +0.000 HD
ENDBRANCH   1   9
BRANCH   3  15
ATOM     15  C   UNL     1       6.278   4.856  14.370  0.00  0.00    +0.000 A 
ATOM     16  C   UNL     1       7.466   5.351  13.842  0.00  0.00    +0.000 A 
ATOM     17  C   UNL     1       7.878   4.900  12.588  0.00  0.00    +0.000 A 
ATOM     18  C   UNL     1       7.095   3.979  11.901  0.00  0.00    +0.000 A 
ATOM     19  C   UNL     1       5.921   3.558  12.497  0.00  0.00    +0.000 A 
ATOM     20  N   UNL     1       5.504   3.963  13.707  0.00  0.00    +0.000 NA
BRANCH  19  21
ATOM     21  O   UNL     1       5.112   2.704  11.781  0.00  0.00    +0.000 OA
BRANCH  21  22
ATOM     22  C   UNL     1       3.798   3.244  11.551  0.00  0.00    +0.000 C 
BRANCH  22  23
ATOM     23  C   UNL     1       3.570   3.651  10.099  0.00  0.00    +0.000 C 
ATOM     24  F   UNL     1       2.700   2.782   9.517  0.00  0.00    +0.000 F 
ATOM     25  F   UNL     1       2.973   4.871  10.054  0.00  0.00    +0.000 F 
ENDBRANCH  22  23
ENDBRANCH  21  22
ENDBRANCH  19  21
ENDBRANCH   3  15
TORSDOF 5
ENDMDL
MODEL 2
REMARK VINA RESULT:      -7.7      1.079      1.338
REMARK  Name = 
REMARK  6 active torsions:
REMARK  status: ('A' for Active; 'I' for Inactive)
REMARK    1  A    between atoms: C_1  and  N_2
REMARK    2  A    between atoms: C_4  and  C_5
REMARK    3  A    between atoms: C_7  and  C_8
REMARK    4  A    between atoms: C_12  and  O_13
REMARK    5  A    between atoms: O_13  and  C_14
REMARK    6  A    between atoms: C_14  and  C_15
REMARK                            x       y       z     vdW  Elec       q    Type
REMARK                         _______ _______ _______ _____ _____    ______ ____
ROOT
ATOM      1  C   UNL     1       5.879   4.756  18.100  0.00  0.00    +0.000 A 
ATOM      2  N   UNL     1       5.565   4.807  16.827  0.00  0.00    +0.000 NA
ATOM      3  C   UNL     1       6.775   4.556  16.204  0.00  0.00    +0.000 A 
ATOM      4  N   UNL     1       7.798   4.384  17.061  0.00  0.00    +0.000 NA
ATOM      5  O   UNL     1       7.209   4.535  18.314  0.00  0.00    +0.000 OA
ENDROOT
BRANCH   1   9
ATOM      6  C   UNL     1       3.558   1.783  17.971  0.00  0.00    +0.000 C 
ATOM      7  N   UNL     1       3.407   3.085  18.589  0.00  0.00    +0.000 N 
ATOM      8  C   UNL     1       4.335   3.504  19.632  0.00  0.00    +0.000 C 
ATOM      9  C   UNL     1       4.988   4.852  19.303  0.00  0.00    +0.000 C 
ATOM     10  N   UNL     1       3.903   5.854  19.177  0.00  0.00    +0.000 NA
ATOM     11  C   UNL     1       2.915   5.497  18.130  0.00  0.00    +0.000 C 
ATOM     12  C   UNL     1       2.562   4.005  17.985  0.00  0.00    +0.000 C 
ATOM     13  O   UNL     1       1.653   3.653  17.230  0.00  0.00    +0.000 OA
ATOM     14  H   UNL     1       4.326   6.745  18.911  0.00  0.00    +0.000 HD
ENDBRANCH   1   9
BRANCH   3  15
ATOM     15  C   UNL     1       6.893   4.498  14.749  0.00  0.00    +0.000 A 
ATOM     16  C   UNL     1       7.817   5.263  14.044  0.00  0.00    +0.000 A 
ATOM     17  C   UNL     1       7.845   5.161  12.654  0.00  0.00    +0.000 A 
ATOM     18  C   UNL     1       6.951   4.310  12.012  0.00  0.00    +0.000 A 
ATOM     19  C   UNL     1       6.057   3.605  12.794  0.00  0.00    +0.000 A 
ATOM     20  N   UNL     1       6.014   3.670  14.134  0.00  0.00    +0.000 NA
BRANCH  19  21
ATOM     21  O   UNL     1       5.126   2.820  12.151  0.00  0.00    +0.000 OA
BRANCH  21  22
ATOM     22  C   UNL     1       4.822   3.292  10.825  0.00  0.00    +0.000 C 
BRANCH  22  23
ATOM     23  C   UNL     1       3.343   3.610  10.634  0.00  0.00    +0.000 C 
ATOM     24  F   UNL     1       3.181   4.342   9.497  0.00  0.00    +0.000 F 
ATOM     25  F   UNL     1       2.647   2.459  10.444  0.00  0.00    +0.000 F 
ENDBRANCH  22  23
ENDBRANCH  21  22
ENDBRANCH  19  21
ENDBRANCH   3  15
TORSDOF 5
ENDMDL
MODEL 3
REMARK VINA RESULT:      -7.6      6.085      8.320
REMARK  Name = 
REMARK  6 active torsions:
REMARK  status: ('A' for Active; 'I' for Inactive)
REMARK    1  A    between atoms: C_1  and  N_2
REMARK    2  A    between atoms: C_4  and  C_5
REMARK    3  A    between atoms: C_7  and  C_8
REMARK    4  A    between atoms: C_12  and  O_13
REMARK    5  A    between atoms: O_13  and  C_14
REMARK    6  A    between atoms: C_14  and  C_15
REMARK                            x       y       z     vdW  Elec       q    Type
REMARK                         _______ _______ _______ _____ _____    ______ ____
ROOT
ATOM      1  C   UNL     1       3.461   4.552  17.960  0.00  0.00    +0.000 A 
ATOM      2  N   UNL     1       2.547   5.349  18.462  0.00  0.00    +0.000 NA
ATOM      3  C   UNL     1       3.054   6.607  18.182  0.00  0.00    +0.000 A 
ATOM      4  N   UNL     1       4.246   6.582  17.559  0.00  0.00    +0.000 NA
ATOM      5  O   UNL     1       4.523   5.224  17.428  0.00  0.00    +0.000 OA
ENDROOT
BRANCH   1   9
ATOM      6  C   UNL     1       0.744   3.302  20.262  0.00  0.00    +0.000 C 
ATOM      7  N   UNL     1       1.953   2.666  19.779  0.00  0.00    +0.000 N 
ATOM      8  C   UNL     1       2.140   2.454  18.349  0.00  0.00    +0.000 C 
ATOM      9  C   UNL     1       3.461   3.056  17.853  0.00  0.00    +0.000 C 
ATOM     10  N   UNL     1       4.559   2.393  18.597  0.00  0.00    +0.000 NA
ATOM     11  C   UNL     1       4.439   2.565  20.065  0.00  0.00    +0.000 C 
ATOM     12  C   UNL     1       3.018   2.525  20.657  0.00  0.00    +0.000 C 
ATOM     13  O   UNL     1       2.856   2.526  21.880  0.00  0.00    +0.000 OA
ATOM     14  H   UNL     1       5.439   2.822  18.307  0.00  0.00    +0.000 HD
ENDBRANCH   1   9
BRANCH   3  15
ATOM     15  C   UNL     1       2.337   7.824  18.554  0.00  0.00    +0.000 A 
ATOM     16  C   UNL     1       2.316   8.955  17.744  0.00  0.00    +0.000 A 
ATOM     17  C   UNL     1       1.625  10.082  18.188  0.00  0.00    +0.000 A 
ATOM     18  C   UNL     1       0.985  10.048  19.423  0.00  0.00    +0.000 A 
ATOM     19  C   UNL     1       1.076   8.887  20.166  0.00  0.00    +0.000 A 
ATOM     20  N   UNL     1       1.722   7.783  19.761  0.00  0.00    +0.000 NA
BRANCH  19  21
ATOM     21  O   UNL     1       0.504   8.884  21.419  0.00  0.00    +0.000 OA
BRANCH  21  22
ATOM     22  C   UNL     1      -0.380  10.001  21.629  0.00  0.00    +0.000 C 
BRANCH  22  23
ATOM     23  C   UNL     1      -0.464  10.422  23.093  0.00  0.00    +0.000 C 
ATOM     24  F   UNL     1      -1.764  10.654  23.422  0.00  0.00    +0.000 F 
ATOM     25  F   UNL     1      -0.049   9.401  23.887  0.00  0.00    +0.000 F 
ENDBRANCH  22  23
ENDBRANCH  21  22
ENDBRANCH  19  21
ENDBRANCH   3  15
TORSDOF 5
ENDMDL
MODEL 4
REMARK VINA RESULT:      -7.5      6.038      8.105
REMARK  Name = 
REMARK  6 active torsions:
REMARK  status: ('A' for Active; 'I' for Inactive)
REMARK    1  A    between atoms: C_1  and  N_2
REMARK    2  A    between atoms: C_4  and  C_5
REMARK    3  A    between atoms: C_7  and  C_8
REMARK    4  A    between atoms: C_12  and  O_13
REMARK    5  A    between atoms: O_13  and  C_14
REMARK    6  A    between atoms: C_14  and  C_15
REMARK                            x       y       z     vdW  Elec       q    Type
REMARK                         _______ _______ _______ _____ _____    ______ ____
ROOT
ATOM      1  C   UNL     1       3.997   4.262  18.204  0.00  0.00    +0.000 A 
ATOM      2  N   UNL     1       3.156   5.047  18.834  0.00  0.00    +0.000 NA
ATOM      3  C   UNL     1       3.309   6.252  18.171  0.00  0.00    +0.000 A 
ATOM      4  N   UNL     1       4.229   6.216  17.190  0.00  0.00    +0.000 NA
ATOM      5  O   UNL     1       4.697   4.905  17.224  0.00  0.00    +0.000 OA
ENDROOT
BRANCH   1   9
ATOM      6  C   UNL     1       0.621   2.664  18.742  0.00  0.00    +0.000 C 
ATOM      7  N   UNL     1       1.948   2.250  19.149  0.00  0.00    +0.000 N 
ATOM      8  C   UNL     1       2.963   1.976  18.140  0.00  0.00    +0.000 C 
ATOM      9  C   UNL     1       4.239   2.792  18.381  0.00  0.00    +0.000 C 
ATOM     10  N   UNL     1       4.760   2.419  19.718  0.00  0.00    +0.000 NA
ATOM     11  C   UNL     1       3.781   2.669  20.803  0.00  0.00    +0.000 C 
ATOM     12  C   UNL     1       2.301   2.390  20.484  0.00  0.00    +0.000 C 
ATOM     13  O   UNL     1       1.452   2.448  21.377  0.00  0.00    +0.000 OA
ATOM     14  H   UNL     1       5.584   2.993  19.907  0.00  0.00    +0.000 HD
ENDBRANCH   1   9
BRANCH   3  15
ATOM     15  C   UNL     1       2.533   7.435  18.536  0.00  0.00    +0.000 A 
ATOM     16  C   UNL     1       2.314   8.488  17.653  0.00  0.00    +0.000 A 
ATOM     17  C   UNL     1       1.581   9.588  18.094  0.00  0.00    +0.000 A 
ATOM     18  C   UNL     1       1.095   9.608  19.397  0.00  0.00    +0.000 A 
ATOM     19  C   UNL     1       1.377   8.525  20.208  0.00  0.00    +0.000 A 
ATOM     20  N   UNL     1       2.069   7.447  19.810  0.00  0.00    +0.000 NA
BRANCH  19  21
ATOM     21  O   UNL     1       0.958   8.583  21.519  0.00  0.00    +0.000 OA
BRANCH  21  22
ATOM     22  C   UNL     1      -0.184   9.440  21.701  0.00  0.00    +0.000 C 
BRANCH  22  23
ATOM     23  C   UNL     1      -0.551   9.634  23.168  0.00  0.00    +0.000 C 
ATOM     24  F   UNL     1       0.548   9.421  23.942  0.00  0.00    +0.000 F 
ATOM     25  F   UNL     1      -0.918  10.925  23.381  0.00  0.00    +0.000 F 
ENDBRANCH  22  23
ENDBRANCH  21  22
ENDBRANCH  19  21
ENDBRANCH   3  15
TORSDOF 5
ENDMDL
MODEL 5
REMARK VINA RESULT:      -7.1      5.010      7.678
REMARK  Name = 
REMARK  6 active torsions:
REMARK  status: ('A' for Active; 'I' for Inactive)
REMARK    1  A    between atoms: C_1  and  N_2
REMARK    2  A    between atoms: C_4  and  C_5
REMARK    3  A    between atoms: C_7  and  C_8
REMARK    4  A    between atoms: C_12  and  O_13
REMARK    5  A    between atoms: O_13  and  C_14
REMARK    6  A    between atoms: C_14  and  C_15
REMARK                            x       y       z     vdW  Elec       q    Type
REMARK                         _______ _______ _______ _____ _____    ______ ____
ROOT
ATOM      1  C   UNL     1       3.153   5.143  17.923  0.00  0.00    +0.000 A 
ATOM      2  N   UNL     1       2.307   5.696  18.759  0.00  0.00    +0.000 NA
ATOM      3  C   UNL     1       2.578   7.046  18.618  0.00  0.00    +0.000 A 
ATOM      4  N   UNL     1       3.571   7.309  17.749  0.00  0.00    +0.000 NA
ATOM      5  O   UNL     1       3.963   6.050  17.304  0.00  0.00    +0.000 OA
ENDROOT
BRANCH   1   9
ATOM      6  C   UNL     1       0.959   3.161  20.269  0.00  0.00    +0.000 C 
ATOM      7  N   UNL     1       2.145   2.786  19.527  0.00  0.00    +0.000 N 
ATOM      8  C   UNL     1       2.141   2.850  18.071  0.00  0.00    +0.000 C 
ATOM      9  C   UNL     1       3.301   3.700  17.536  0.00  0.00    +0.000 C 
ATOM     10  N   UNL     1       4.562   3.074  17.998  0.00  0.00    +0.000 NA
ATOM     11  C   UNL     1       4.642   2.972  19.475  0.00  0.00    +0.000 C 
ATOM     12  C   UNL     1       3.338   2.641  20.223  0.00  0.00    +0.000 C 
ATOM     13  O   UNL     1       3.358   2.410  21.434  0.00  0.00    +0.000 OA
ATOM     14  H   UNL     1       5.338   3.660  17.687  0.00  0.00    +0.000 HD
ENDBRANCH   1   9
BRANCH   3  15
ATOM     15  C   UNL     1       1.839   8.060  19.366  0.00  0.00    +0.000 A 
ATOM     16  C   UNL     1       1.631   7.973  20.738  0.00  0.00    +0.000 A 
ATOM     17  C   UNL     1       0.894   8.976  21.367  0.00  0.00    +0.000 A 
ATOM     18  C   UNL     1       0.385  10.026  20.611  0.00  0.00    +0.000 A 
ATOM     19  C   UNL     1       0.626  10.019  19.250  0.00  0.00    +0.000 A 
ATOM     20  N   UNL     1       1.342   9.076  18.618  0.00  0.00    +0.000 NA
BRANCH  19  21
ATOM     21  O   UNL     1       0.057  11.020  18.495  0.00  0.00    +0.000 OA
BRANCH  21  22
ATOM     22  C   UNL     1      -1.364  11.131  18.698  0.00  0.00    +0.000 C 
BRANCH  22  23
ATOM     23  C   UNL     1      -2.154  10.069  17.942  0.00  0.00    +0.000 C 
ATOM     24  F   UNL     1      -3.377  10.567  17.610  0.00  0.00    +0.000 F 
ATOM     25  F   UNL     1      -1.532   9.783  16.769  0.00  0.00    +0.000 F 
ENDBRANCH  22  23
ENDBRANCH  21  22
ENDBRANCH  19  21
ENDBRANCH   3  15
TORSDOF 5
ENDMDL
MODEL 6
REMARK VINA RESULT:      -7.1      1.934      2.133
REMARK  Name = 
REMARK  6 active torsions:
REMARK  status: ('A' for Active; 'I' for Inactive)
REMARK    1  A    between atoms: C_1  and  N_2
REMARK    2  A    between atoms: C_4  and  C_5
REMARK    3  A    between atoms: C_7  and  C_8
REMARK    4  A    between atoms: C_12  and  O_13
REMARK    5  A    between atoms: O_13  and  C_14
REMARK    6  A    between atoms: C_14  and  C_15
REMARK                            x       y       z     vdW  Elec       q    Type
REMARK                         _______ _______ _______ _____ _____    ______ ____
ROOT
ATOM      1  C   UNL     1       5.377   4.751  18.599  0.00  0.00    +0.000 A 
ATOM      2  N   UNL     1       5.156   4.816  17.307  0.00  0.00    +0.000 NA
ATOM      3  C   UNL     1       6.412   4.591  16.771  0.00  0.00    +0.000 A 
ATOM      4  N   UNL     1       7.372   4.422  17.699  0.00  0.00    +0.000 NA
ATOM      5  O   UNL     1       6.691   4.546  18.906  0.00  0.00    +0.000 OA
ENDROOT
BRANCH   1   9
ATOM      6  C   UNL     1       2.839   2.022  18.004  0.00  0.00    +0.000 C 
ATOM      7  N   UNL     1       2.744   3.271  18.733  0.00  0.00    +0.000 N 
ATOM      8  C   UNL     1       3.612   3.509  19.880  0.00  0.00    +0.000 C 
ATOM      9  C   UNL     1       4.399   4.818  19.734  0.00  0.00    +0.000 C 
ATOM     10  N   UNL     1       3.414   5.920  19.624  0.00  0.00    +0.000 NA
ATOM     11  C   UNL     1       2.491   5.749  18.476  0.00  0.00    +0.000 C 
ATOM     12  C   UNL     1       2.031   4.314  18.160  0.00  0.00    +0.000 C 
ATOM     13  O   UNL     1       1.163   4.115  17.307  0.00  0.00    +0.000 OA
ATOM     14  H   UNL     1       3.929   6.790  19.479  0.00  0.00    +0.000 HD
ENDBRANCH   1   9
BRANCH   3  15
ATOM     15  C   UNL     1       6.637   4.556  15.328  0.00  0.00    +0.000 A 
ATOM     16  C   UNL     1       7.648   5.287  14.712  0.00  0.00    +0.000 A 
ATOM     17  C   UNL     1       7.776   5.212  13.325  0.00  0.00    +0.000 A 
ATOM     18  C   UNL     1       6.893   4.419  12.600  0.00  0.00    +0.000 A 
ATOM     19  C   UNL     1       5.910   3.743  13.296  0.00  0.00    +0.000 A 
ATOM     20  N   UNL     1       5.768   3.785  14.630  0.00  0.00    +0.000 NA
BRANCH  19  21
ATOM     21  O   UNL     1       4.993   3.019  12.567  0.00  0.00    +0.000 OA
BRANCH  21  22
ATOM     22  C   UNL     1       5.532   2.532  11.323  0.00  0.00    +0.000 C 
BRANCH  22  23
ATOM     23  C   UNL     1       6.499   1.369  11.512  0.00  0.00    +0.000 C 
ATOM     24  F   UNL     1       5.937   0.230  11.023  0.00  0.00    +0.000 F 
ATOM     25  F   UNL     1       7.621   1.583  10.776  0.00  0.00    +0.000 F 
ENDBRANCH  22  23
ENDBRANCH  21  22
ENDBRANCH  19  21
ENDBRANCH   3  15
TORSDOF 5
ENDMDL
MODEL 7
REMARK VINA RESULT:      -7.0      5.608      8.830
REMARK  Name = 
REMARK  6 active torsions:
REMARK  status: ('A' for Active; 'I' for Inactive)
REMARK    1  A    between atoms: C_1  and  N_2
REMARK    2  A    between atoms: C_4  and  C_5
REMARK    3  A    between atoms: C_7  and  C_8
REMARK    4  A    between atoms: C_12  and  O_13
REMARK    5  A    between atoms: O_13  and  C_14
REMARK    6  A    between atoms: C_14  and  C_15
REMARK                            x       y       z     vdW  Elec       q    Type
REMARK                         _______ _______ _______ _____ _____    ______ ____
ROOT
ATOM      1  C   UNL     1       3.988   5.037  18.109  0.00  0.00    +0.000 A 
ATOM      2  N   UNL     1       3.449   6.176  17.744  0.00  0.00    +0.000 NA
ATOM      3  C   UNL     1       2.830   6.605  18.905  0.00  0.00    +0.000 A 
ATOM      4  N   UNL     1       2.961   5.749  19.935  0.00  0.00    +0.000 NA
ATOM      5  O   UNL     1       3.711   4.704  19.403  0.00  0.00    +0.000 OA
ENDROOT
BRANCH   1   9
ATOM      6  C   UNL     1       7.534   5.882  19.086  0.00  0.00    +0.000 C 
ATOM      7  N   UNL     1       6.993   5.287  17.881  0.00  0.00    +0.000 N 
ATOM      8  C   UNL     1       6.278   4.019  17.957  0.00  0.00    +0.000 C 
ATOM      9  C   UNL     1       4.881   4.117  17.330  0.00  0.00    +0.000 C 
ATOM     10  N   UNL     1       5.057   4.499  15.908  0.00  0.00    +0.000 NA
ATOM     11  C   UNL     1       5.779   5.784  15.748  0.00  0.00    +0.000 C 
ATOM     12  C   UNL     1       6.927   6.066  16.735  0.00  0.00    +0.000 C 
ATOM     13  O   UNL     1       7.654   7.050  16.576  0.00  0.00    +0.000 OA
ATOM     14  H   UNL     1       4.129   4.613  15.496  0.00  0.00    +0.000 HD
ENDBRANCH   1   9
BRANCH   3  15
ATOM     15  C   UNL     1       2.103   7.871  18.966  0.00  0.00    +0.000 A 
ATOM     16  C   UNL     1       1.964   8.707  17.863  0.00  0.00    +0.000 A 
ATOM     17  C   UNL     1       1.274   9.909  18.018  0.00  0.00    +0.000 A 
ATOM     18  C   UNL     1       0.752  10.241  19.263  0.00  0.00    +0.000 A 
ATOM     19  C   UNL     1       0.957   9.358  20.306  0.00  0.00    +0.000 A 
ATOM     20  N   UNL     1       1.605   8.189  20.186  0.00  0.00    +0.000 NA
BRANCH  19  21
ATOM     21  O   UNL     1       0.503   9.726  21.553  0.00  0.00    +0.000 OA
BRANCH  21  22
ATOM     22  C   UNL     1      -0.333  10.898  21.517  0.00  0.00    +0.000 C 
BRANCH  22  23
ATOM     23  C   UNL     1      -0.989  11.198  22.860  0.00  0.00    +0.000 C 
ATOM     24  F   UNL     1      -2.200  11.785  22.651  0.00  0.00    +0.000 F 
ATOM     25  F   UNL     1      -1.242  10.036  23.517  0.00  0.00    +0.000 F 
ENDBRANCH  22  23
ENDBRANCH  21  22
ENDBRANCH  19  21
ENDBRANCH   3  15
TORSDOF 5
ENDMDL
MODEL 8
REMARK VINA RESULT:      -7.0      1.146      1.366
REMARK  Name = 
REMARK  6 active torsions:
REMARK  status: ('A' for Active; 'I' for Inactive)
REMARK    1  A    between atoms: C_1  and  N_2
REMARK    2  A    between atoms: C_4  and  C_5
REMARK    3  A    between atoms: C_7  and  C_8
REMARK    4  A    between atoms: C_12  and  O_13
REMARK    5  A    between atoms: O_13  and  C_14
REMARK    6  A    between atoms: C_14  and  C_15
REMARK                            x       y       z     vdW  Elec       q    Type
REMARK                         _______ _______ _______ _____ _____    ______ ____
ROOT
ATOM      1  C   UNL     1       4.740   5.347  17.729  0.00  0.00    +0.000 A 
ATOM      2  N   UNL     1       4.738   5.389  16.417  0.00  0.00    +0.000 NA
ATOM      3  C   UNL     1       5.949   4.800  16.093  0.00  0.00    +0.000 A 
ATOM      4  N   UNL     1       6.676   4.437  17.165  0.00  0.00    +0.000 NA
ATOM      5  O   UNL     1       5.885   4.815  18.246  0.00  0.00    +0.000 OA
ENDROOT
BRANCH   1   9
ATOM      6  C   UNL     1       4.096   2.352  19.933  0.00  0.00    +0.000 C 
ATOM      7  N   UNL     1       3.244   3.464  19.562  0.00  0.00    +0.000 N 
ATOM      8  C   UNL     1       3.629   4.823  19.918  0.00  0.00    +0.000 C 
ATOM      9  C   UNL     1       3.661   5.745  18.693  0.00  0.00    +0.000 C 
ATOM     10  N   UNL     1       2.298   5.756  18.109  0.00  0.00    +0.000 NA
ATOM     11  C   UNL     1       1.833   4.404  17.719  0.00  0.00    +0.000 C 
ATOM     12  C   UNL     1       2.230   3.237  18.641  0.00  0.00    +0.000 C 
ATOM     13  O   UNL     1       1.767   2.110  18.451  0.00  0.00    +0.000 OA
ATOM     14  H   UNL     1       2.322   6.330  17.264  0.00  0.00    +0.000 HD
ENDBRANCH   1   9
BRANCH   3  15
ATOM     15  C   UNL     1       6.366   4.616  14.705  0.00  0.00    +0.000 A 
ATOM     16  C   UNL     1       7.565   5.122  14.213  0.00  0.00    +0.000 A 
ATOM     17  C   UNL     1       7.873   4.919  12.868  0.00  0.00    +0.000 A 
ATOM     18  C   UNL     1       6.978   4.225  12.059  0.00  0.00    +0.000 A 
ATOM     19  C   UNL     1       5.804   3.776  12.632  0.00  0.00    +0.000 A 
ATOM     20  N   UNL     1       5.485   3.945  13.925  0.00  0.00    +0.000 NA
BRANCH  19  21
ATOM     21  O   UNL     1       4.889   3.156  11.811  0.00  0.00    +0.000 OA
BRANCH  21  22
ATOM     22  C   UNL     1       4.203   4.078  10.945  0.00  0.00    +0.000 C 
BRANCH  22  23
ATOM     23  C   UNL     1       3.228   3.389   9.997  0.00  0.00    +0.000 C 
ATOM     24  F   UNL     1       2.534   2.435  10.678  0.00  0.00    +0.000 F 
ATOM     25  F   UNL     1       2.306   4.284   9.557  0.00  0.00    +0.000 F 
ENDBRANCH  22  23
ENDBRANCH  21  22
ENDBRANCH  19  21
ENDBRANCH   3  15
TORSDOF 5
ENDMDL
MODEL 9
REMARK VINA RESULT:      -7.0      1.839      2.400
REMARK  Name = 
REMARK  6 active torsions:
REMARK  status: ('A' for Active; 'I' for Inactive)
REMARK    1  A    between atoms: C_1  and  N_2
REMARK    2  A    between atoms: C_4  and  C_5
REMARK    3  A    between atoms: C_7  and  C_8
REMARK    4  A    between atoms: C_12  and  O_13
REMARK    5  A    between atoms: O_13  and  C_14
REMARK    6  A    between atoms: C_14  and  C_15
REMARK                            x       y       z     vdW  Elec       q    Type
REMARK                         _______ _______ _______ _____ _____    ______ ____
ROOT
ATOM      1  C   UNL     1       3.678   4.923  19.353  0.00  0.00    +0.000 A 
ATOM      2  N   UNL     1       4.488   4.352  18.493  0.00  0.00    +0.000 NA
ATOM      3  C   UNL     1       4.713   5.360  17.572  0.00  0.00    +0.000 A 
ATOM      4  N   UNL     1       4.045   6.497  17.841  0.00  0.00    +0.000 NA
ATOM      5  O   UNL     1       3.347   6.201  19.008  0.00  0.00    +0.000 OA
ENDROOT
BRANCH   1   9
ATOM      6  C   UNL     1       2.833   1.294  18.753  0.00  0.00    +0.000 C 
ATOM      7  N   UNL     1       2.307   2.251  19.704  0.00  0.00    +0.000 N 
ATOM      8  C   UNL     1       3.192   2.856  20.691  0.00  0.00    +0.000 C 
ATOM      9  C   UNL     1       3.134   4.388  20.645  0.00  0.00    +0.000 C 
ATOM     10  N   UNL     1       1.735   4.789  20.927  0.00  0.00    +0.000 NA
ATOM     11  C   UNL     1       0.769   4.211  19.962  0.00  0.00    +0.000 C 
ATOM     12  C   UNL     1       1.041   2.775  19.478  0.00  0.00    +0.000 C 
ATOM     13  O   UNL     1       0.210   2.187  18.783  0.00  0.00    +0.000 OA
ATOM     14  H   UNL     1       1.677   5.805  20.851  0.00  0.00    +0.000 HD
ENDBRANCH   1   9
BRANCH   3  15
ATOM     15  C   UNL     1       5.593   5.168  16.422  0.00  0.00    +0.000 A 
ATOM     16  C   UNL     1       6.916   5.600  16.413  0.00  0.00    +0.000 A 
ATOM     17  C   UNL     1       7.677   5.396  15.262  0.00  0.00    +0.000 A 
ATOM     18  C   UNL     1       7.098   4.774  14.161  0.00  0.00    +0.000 A 
ATOM     19  C   UNL     1       5.773   4.396  14.256  0.00  0.00    +0.000 A 
ATOM     20  N   UNL     1       5.017   4.567  15.352  0.00  0.00    +0.000 NA
BRANCH  19  21
ATOM     21  O   UNL     1       5.183   3.849  13.137  0.00  0.00    +0.000 OA
BRANCH  21  22
ATOM     22  C   UNL     1       6.137   3.246  12.244  0.00  0.00    +0.000 C 
BRANCH  22  23
ATOM     23  C   UNL     1       5.616   1.968  11.596  0.00  0.00    +0.000 C 
ATOM     24  F   UNL     1       4.517   2.256  10.846  0.00  0.00    +0.000 F 
ATOM     25  F   UNL     1       6.545   1.481  10.732  0.00  0.00    +0.000 F 
ENDBRANCH  22  23
ENDBRANCH  21  22
ENDBRANCH  19  21
ENDBRANCH   3  15
TORSDOF 5
ENDMDL
