MODEL 1
REMARK VINA RESULT:      -8.6      0.000      0.000
REMARK  Name = 
REMARK  6 active torsions:
REMARK  status: ('A' for Active; 'I' for Inactive)
REMARK    1  A    between atoms: C_1  and  N_2
REMARK    2  A    between atoms: C_5  and  C_6
REMARK    3  A    between atoms: C_9  and  C_10
REMARK    4  A    between atoms: C_15  and  O_16
REMARK    5  A    between atoms: O_16  and  C_17
REMARK    6  A    between atoms: N_20  and  C_21
REMARK                            x       y       z     vdW  Elec       q    Type
REMARK                         _______ _______ _______ _____ _____    ______ ____
ROOT
ATOM      1  C   UNL     1      -0.668   9.666  21.289  0.00  0.00    +0.000 C 
ATOM      2  N   UNL     1       0.286   8.622  21.579  0.00  0.00    +0.000 N 
ATOM      3  C   UNL     1       1.088   8.249  20.513  0.00  0.00    +0.000 A 
ATOM      4  N   UNL     1       1.396   9.133  19.562  0.00  0.00    +0.000 NA
ATOM      5  C   UNL     1       2.234   8.739  18.582  0.00  0.00    +0.000 A 
ATOM      6  C   UNL     1       2.598   9.802  17.586  0.00  0.00    +0.000 C 
ATOM      7  C   UNL     1       2.774   7.462  18.535  0.00  0.00    +0.000 A 
ATOM      8  C   UNL     1       3.708   7.018  17.510  0.00  0.00    +0.000 A 
ATOM      9  C   UNL     1       4.308   5.825  17.611  0.00  0.00    +0.000 A 
ATOM     10  C   UNL     1       3.957   4.889  18.726  0.00  0.00    +0.000 A 
ATOM     11  O   UNL     1       4.510   3.790  18.776  0.00  0.00    +0.000 OA
ATOM     12  N   UNL     1       2.982   5.306  19.636  0.00  0.00    +0.000 N 
ATOM     13  C   UNL     1       2.404   6.612  19.566  0.00  0.00    +0.000 A 
ATOM     14  N   UNL     1       1.538   6.997  20.529  0.00  0.00    +0.000 NA
ATOM     15  H   UNL     1      -0.080   7.776  21.998  0.00  0.00    +0.000 HD
ENDROOT
BRANCH   9  16
ATOM     16  C   UNL     1       5.283   5.453  16.571  0.00  0.00    +0.000 A 
ATOM     17  C   UNL     1       4.837   4.792  15.421  0.00  0.00    +0.000 A 
ATOM     18  C   UNL     1       5.729   4.506  14.392  0.00  0.00    +0.000 A 
ATOM     19  C   UNL     1       7.049   4.892  14.544  0.00  0.00    +0.000 A 
ATOM     20  N   UNL     1       7.522   5.530  15.633  0.00  0.00    +0.000 NA
ATOM     21  C   UNL     1       6.640   5.793  16.629  0.00  0.00    +0.000 A 
BRANCH  21  22
ATOM     22  O   UNL     1       7.094   6.483  17.741  0.00  0.00    +0.000 OA
ATOM     23  C   UNL     1       7.495   7.818  17.440  0.00  0.00    +0.000 C 
ENDBRANCH  21  22
ENDBRANCH   9  16
BRANCH  12  24
ATOM     24  C   UNL     1       2.609   4.395  20.729  0.00  0.00    +0.000 C 
ATOM     25  C   UNL     1       1.191   3.817  20.658  0.00  0.00    +0.000 C 
ATOM     26  C   UNL     1       1.223   2.632  21.612  0.00  0.00    +0.000 C 
ATOM     27  C   UNL     1       2.669   2.142  21.654  0.00  0.00    +0.000 C 
ATOM     28  C   UNL     1       3.523   3.179  20.925  0.00  0.00    +0.000 C 
ENDBRANCH  12  24
TORSDOF 3
ENDMDL
MODEL 2
REMARK VINA RESULT:      -8.0      0.986      1.141
REMARK  Name = 
REMARK  6 active torsions:
REMARK  status: ('A' for Active; 'I' for Inactive)
REMARK    1  A    between atoms: C_1  and  N_2
REMARK    2  A    between atoms: C_5  and  C_6
REMARK    3  A    between atoms: C_9  and  C_10
REMARK    4  A    between atoms: C_15  and  O_16
REMARK    5  A    between atoms: O_16  and  C_17
REMARK    6  A    between atoms: N_20  and  C_21
REMARK                            x       y       z     vdW  Elec       q    Type
REMARK                         _______ _______ _______ _____ _____    ______ ____
ROOT
ATOM      1  C   UNL     1      -0.252   8.914  21.328  0.00  0.00    +0.000 C 
ATOM      2  N   UNL     1       0.660   7.801  21.454  0.00  0.00    +0.000 N 
ATOM      3  C   UNL     1       1.427   7.544  20.330  0.00  0.00    +0.000 A 
ATOM      4  N   UNL     1       1.759   8.536  19.501  0.00  0.00    +0.000 NA
ATOM      5  C   UNL     1       2.563   8.245  18.459  0.00  0.00    +0.000 A 
ATOM      6  C   UNL     1       2.957   9.418  17.608  0.00  0.00    +0.000 C 
ATOM      7  C   UNL     1       3.046   6.964  18.228  0.00  0.00    +0.000 A 
ATOM      8  C   UNL     1       3.942   6.626  17.132  0.00  0.00    +0.000 A 
ATOM      9  C   UNL     1       4.492   5.407  17.057  0.00  0.00    +0.000 A 
ATOM     10  C   UNL     1       4.118   4.343  18.043  0.00  0.00    +0.000 A 
ATOM     11  O   UNL     1       4.623   3.225  17.931  0.00  0.00    +0.000 OA
ATOM     12  N   UNL     1       3.177   4.672  19.022  0.00  0.00    +0.000 N 
ATOM     13  C   UNL     1       2.655   5.998  19.142  0.00  0.00    +0.000 A 
ATOM     14  N   UNL     1       1.823   6.285  20.166  0.00  0.00    +0.000 NA
ATOM     15  H   UNL     1       0.264   6.922  21.763  0.00  0.00    +0.000 HD
ENDROOT
BRANCH   9  16
ATOM     16  C   UNL     1       5.432   5.140  15.955  0.00  0.00    +0.000 A 
ATOM     17  C   UNL     1       4.943   4.634  14.746  0.00  0.00    +0.000 A 
ATOM     18  C   UNL     1       5.804   4.454  13.667  0.00  0.00    +0.000 A 
ATOM     19  C   UNL     1       7.137   4.786  13.831  0.00  0.00    +0.000 A 
ATOM     20  N   UNL     1       7.651   5.276  14.977  0.00  0.00    +0.000 NA
ATOM     21  C   UNL     1       6.799   5.437  16.019  0.00  0.00    +0.000 A 
BRANCH  21  22
ATOM     22  O   UNL     1       7.296   5.976  17.194  0.00  0.00    +0.000 OA
ATOM     23  C   UNL     1       7.756   4.983  18.109  0.00  0.00    +0.000 C 
ENDBRANCH  21  22
ENDBRANCH   9  16
BRANCH  12  24
ATOM     24  C   UNL     1       2.782   3.637  19.990  0.00  0.00    +0.000 C 
ATOM     25  C   UNL     1       2.752   4.077  21.457  0.00  0.00    +0.000 C 
ATOM     26  C   UNL     1       1.929   3.000  22.152  0.00  0.00    +0.000 C 
ATOM     27  C   UNL     1       0.985   2.423  21.099  0.00  0.00    +0.000 C 
ATOM     28  C   UNL     1       1.418   2.981  19.744  0.00  0.00    +0.000 C 
ENDBRANCH  12  24
TORSDOF 3
ENDMDL
MODEL 3
REMARK VINA RESULT:      -7.6      2.006      4.391
REMARK  Name = 
REMARK  6 active torsions:
REMARK  status: ('A' for Active; 'I' for Inactive)
REMARK    1  A    between atoms: C_1  and  N_2
REMARK    2  A    between atoms: C_5  and  C_6
REMARK    3  A    between atoms: C_9  and  C_10
REMARK    4  A    between atoms: C_15  and  O_16
REMARK    5  A    between atoms: O_16  and  C_17
REMARK    6  A    between atoms: N_20  and  C_21
REMARK                            x       y       z     vdW  Elec       q    Type
REMARK                         _______ _______ _______ _____ _____    ______ ____
ROOT
ATOM      1  C   UNL     1       1.111   2.522  22.122  0.00  0.00    +0.000 C 
ATOM      2  N   UNL     1       1.080   3.623  21.190  0.00  0.00    +0.000 N 
ATOM      3  C   UNL     1       2.025   3.560  20.178  0.00  0.00    +0.000 A 
ATOM      4  N   UNL     1       2.461   2.378  19.739  0.00  0.00    +0.000 NA
ATOM      5  C   UNL     1       3.329   2.370  18.707  0.00  0.00    +0.000 A 
ATOM      6  C   UNL     1       3.723   1.007  18.214  0.00  0.00    +0.000 C 
ATOM      7  C   UNL     1       3.775   3.536  18.102  0.00  0.00    +0.000 A 
ATOM      8  C   UNL     1       4.685   3.558  16.966  0.00  0.00    +0.000 A 
ATOM      9  C   UNL     1       4.953   4.708  16.335  0.00  0.00    +0.000 A 
ATOM     10  C   UNL     1       4.400   6.003  16.845  0.00  0.00    +0.000 A 
ATOM     11  O   UNL     1       4.685   7.045  16.256  0.00  0.00    +0.000 OA
ATOM     12  N   UNL     1       3.612   5.958  17.998  0.00  0.00    +0.000 N 
ATOM     13  C   UNL     1       3.266   4.717  18.620  0.00  0.00    +0.000 A 
ATOM     14  N   UNL     1       2.422   4.725  19.674  0.00  0.00    +0.000 NA
ATOM     15  H   UNL     1       1.116   4.555  21.585  0.00  0.00    +0.000 HD
ENDROOT
BRANCH   9  16
ATOM     16  C   UNL     1       5.840   4.660  15.159  0.00  0.00    +0.000 A 
ATOM     17  C   UNL     1       5.366   4.100  13.967  0.00  0.00    +0.000 A 
ATOM     18  C   UNL     1       6.159   4.121  12.824  0.00  0.00    +0.000 A 
ATOM     19  C   UNL     1       7.412   4.704  12.907  0.00  0.00    +0.000 A 
ATOM     20  N   UNL     1       7.908   5.254  14.033  0.00  0.00    +0.000 NA
ATOM     21  C   UNL     1       7.124   5.217  15.139  0.00  0.00    +0.000 A 
BRANCH  21  22
ATOM     22  O   UNL     1       7.597   5.811  16.297  0.00  0.00    +0.000 OA
ATOM     23  C   UNL     1       7.826   4.874  17.348  0.00  0.00    +0.000 C 
ENDBRANCH  21  22
ENDBRANCH   9  16
BRANCH  12  24
ATOM     24  C   UNL     1       3.072   7.220  18.527  0.00  0.00    +0.000 C 
ATOM     25  C   UNL     1       2.083   7.953  17.616  0.00  0.00    +0.000 C 
ATOM     26  C   UNL     1       1.384   8.939  18.542  0.00  0.00    +0.000 C 
ATOM     27  C   UNL     1       1.432   8.334  19.943  0.00  0.00    +0.000 C 
ATOM     28  C   UNL     1       2.366   7.125  19.885  0.00  0.00    +0.000 C 
ENDBRANCH  12  24
TORSDOF 3
ENDMDL
MODEL 4
REMARK VINA RESULT:      -7.2      4.684      7.681
REMARK  Name = 
REMARK  6 active torsions:
REMARK  status: ('A' for Active; 'I' for Inactive)
REMARK    1  A    between atoms: C_1  and  N_2
REMARK    2  A    between atoms: C_5  and  C_6
REMARK    3  A    between atoms: C_9  and  C_10
REMARK    4  A    between atoms: C_15  and  O_16
REMARK    5  A    between atoms: O_16  and  C_17
REMARK    6  A    between atoms: N_20  and  C_21
REMARK                            x       y       z     vdW  Elec       q    Type
REMARK                         _______ _______ _______ _____ _____    ______ ____
ROOT
ATOM      1  C   UNL     1      -0.010  17.512  18.978  0.00  0.00    +0.000 C 
ATOM      2  N   UNL     1      -0.856  16.344  19.033  0.00  0.00    +0.000 N 
ATOM      3  C   UNL     1      -0.183  15.134  19.042  0.00  0.00    +0.000 A 
ATOM      4  N   UNL     1       1.039  15.048  19.572  0.00  0.00    +0.000 NA
ATOM      5  C   UNL     1       1.624  13.834  19.617  0.00  0.00    +0.000 A 
ATOM      6  C   UNL     1       2.965  13.795  20.291  0.00  0.00    +0.000 C 
ATOM      7  C   UNL     1       1.001  12.691  19.134  0.00  0.00    +0.000 A 
ATOM      8  C   UNL     1       1.593  11.363  19.200  0.00  0.00    +0.000 A 
ATOM      9  C   UNL     1       0.876  10.285  18.857  0.00  0.00    +0.000 A 
ATOM     10  C   UNL     1      -0.510  10.436  18.309  0.00  0.00    +0.000 A 
ATOM     11  O   UNL     1      -1.133   9.425  17.981  0.00  0.00    +0.000 OA
ATOM     12  N   UNL     1      -1.009  11.732  18.164  0.00  0.00    +0.000 N 
ATOM     13  C   UNL     1      -0.268  12.872  18.606  0.00  0.00    +0.000 A 
ATOM     14  N   UNL     1      -0.838  14.094  18.532  0.00  0.00    +0.000 NA
ATOM     15  H   UNL     1      -1.590  16.282  18.337  0.00  0.00    +0.000 HD
ENDROOT
BRANCH   9  16
ATOM     16  C   UNL     1       1.510   8.962  18.994  0.00  0.00    +0.000 A 
ATOM     17  C   UNL     1       2.158   8.397  17.890  0.00  0.00    +0.000 A 
ATOM     18  C   UNL     1       2.833   7.187  18.023  0.00  0.00    +0.000 A 
ATOM     19  C   UNL     1       2.840   6.574  19.264  0.00  0.00    +0.000 A 
ATOM     20  N   UNL     1       2.229   7.082  20.353  0.00  0.00    +0.000 NA
ATOM     21  C   UNL     1       1.570   8.257  20.202  0.00  0.00    +0.000 A 
BRANCH  21  22
ATOM     22  O   UNL     1       0.969   8.819  21.317  0.00  0.00    +0.000 OA
ATOM     23  C   UNL     1      -0.332   8.292  21.569  0.00  0.00    +0.000 C 
ENDBRANCH  21  22
ENDBRANCH   9  16
BRANCH  12  24
ATOM     24  C   UNL     1      -2.362  11.905  17.612  0.00  0.00    +0.000 C 
ATOM     25  C   UNL     1      -2.662  11.116  16.333  0.00  0.00    +0.000 C 
ATOM     26  C   UNL     1      -4.181  11.131  16.234  0.00  0.00    +0.000 C 
ATOM     27  C   UNL     1      -4.711  11.264  17.660  0.00  0.00    +0.000 C 
ATOM     28  C   UNL     1      -3.518  11.573  18.563  0.00  0.00    +0.000 C 
ENDBRANCH  12  24
TORSDOF 3
ENDMDL
MODEL 5
REMARK VINA RESULT:      -7.1      7.169     11.812
REMARK  Name = 
REMARK  6 active torsions:
REMARK  status: ('A' for Active; 'I' for Inactive)
REMARK    1  A    between atoms: C_1  and  N_2
REMARK    2  A    between atoms: C_5  and  C_6
REMARK    3  A    between atoms: C_9  and  C_10
REMARK    4  A    between atoms: C_15  and  O_16
REMARK    5  A    between atoms: O_16  and  C_17
REMARK    6  A    between atoms: N_20  and  C_21
REMARK                            x       y       z     vdW  Elec       q    Type
REMARK                         _______ _______ _______ _____ _____    ______ ____
ROOT
ATOM      1  C   UNL     1      -3.186  10.150  14.467  0.00  0.00    +0.000 C 
ATOM      2  N   UNL     1      -2.674  10.013  15.809  0.00  0.00    +0.000 N 
ATOM      3  C   UNL     1      -3.297  10.807  16.758  0.00  0.00    +0.000 A 
ATOM      4  N   UNL     1      -4.577  11.154  16.607  0.00  0.00    +0.000 NA
ATOM      5  C   UNL     1      -5.156  11.872  17.591  0.00  0.00    +0.000 A 
ATOM      6  C   UNL     1      -6.615  12.166  17.394  0.00  0.00    +0.000 C 
ATOM      7  C   UNL     1      -4.469  12.254  18.735  0.00  0.00    +0.000 A 
ATOM      8  C   UNL     1      -5.076  12.999  19.829  0.00  0.00    +0.000 A 
ATOM      9  C   UNL     1      -4.401  13.200  20.967  0.00  0.00    +0.000 A 
ATOM     10  C   UNL     1      -2.978  12.749  21.098  0.00  0.00    +0.000 A 
ATOM     11  O   UNL     1      -2.378  12.972  22.150  0.00  0.00    +0.000 OA
ATOM     12  N   UNL     1      -2.394  12.127  19.992  0.00  0.00    +0.000 N 
ATOM     13  C   UNL     1      -3.146  11.845  18.809  0.00  0.00    +0.000 A 
ATOM     14  N   UNL     1      -2.559  11.155  17.808  0.00  0.00    +0.000 NA
ATOM     15  H   UNL     1      -1.674  10.122  15.927  0.00  0.00    +0.000 HD
ENDROOT
BRANCH   9  16
ATOM     16  C   UNL     1      -5.085  13.915  22.059  0.00  0.00    +0.000 A 
ATOM     17  C   UNL     1      -4.783  15.262  22.289  0.00  0.00    +0.000 A 
ATOM     18  C   UNL     1      -5.480  15.976  23.261  0.00  0.00    +0.000 A 
ATOM     19  C   UNL     1      -6.463  15.317  23.978  0.00  0.00    +0.000 A 
ATOM     20  N   UNL     1      -6.785  14.022  23.789  0.00  0.00    +0.000 NA
ATOM     21  C   UNL     1      -6.091  13.341  22.844  0.00  0.00    +0.000 A 
BRANCH  21  22
ATOM     22  O   UNL     1      -6.433  12.020  22.605  0.00  0.00    +0.000 OA
ATOM     23  C   UNL     1      -7.829  11.841  22.374  0.00  0.00    +0.000 C 
ENDBRANCH  21  22
ENDBRANCH   9  16
BRANCH  12  24
ATOM     24  C   UNL     1      -0.992  11.691  20.093  0.00  0.00    +0.000 C 
ATOM     25  C   UNL     1      -0.746  10.193  19.885  0.00  0.00    +0.000 C 
ATOM     26  C   UNL     1       0.749  10.095  19.617  0.00  0.00    +0.000 C 
ATOM     27  C   UNL     1       1.173  11.430  19.009  0.00  0.00    +0.000 C 
ATOM     28  C   UNL     1      -0.008  12.390  19.147  0.00  0.00    +0.000 C 
ENDBRANCH  12  24
TORSDOF 3
ENDMDL
MODEL 6
REMARK VINA RESULT:      -7.0      1.905      4.450
REMARK  Name = 
REMARK  6 active torsions:
REMARK  status: ('A' for Active; 'I' for Inactive)
REMARK    1  A    between atoms: C_1  and  N_2
REMARK    2  A    between atoms: C_5  and  C_6
REMARK    3  A    between atoms: C_9  and  C_10
REMARK    4  A    between atoms: C_15  and  O_16
REMARK    5  A    between atoms: O_16  and  C_17
REMARK    6  A    between atoms: N_20  and  C_21
REMARK                            x       y       z     vdW  Elec       q    Type
REMARK                         _______ _______ _______ _____ _____    ______ ____
ROOT
ATOM      1  C   UNL     1       1.047   2.133  22.372  0.00  0.00    +0.000 C 
ATOM      2  N   UNL     1       0.857   3.114  21.330  0.00  0.00    +0.000 N 
ATOM      3  C   UNL     1       1.890   3.198  20.410  0.00  0.00    +0.000 A 
ATOM      4  N   UNL     1       2.633   2.124  20.134  0.00  0.00    +0.000 NA
ATOM      5  C   UNL     1       3.581   2.242  19.183  0.00  0.00    +0.000 A 
ATOM      6  C   UNL     1       4.331   0.979  18.868  0.00  0.00    +0.000 C 
ATOM      7  C   UNL     1       3.803   3.428  18.497  0.00  0.00    +0.000 A 
ATOM      8  C   UNL     1       4.796   3.576  17.442  0.00  0.00    +0.000 A 
ATOM      9  C   UNL     1       4.852   4.701  16.718  0.00  0.00    +0.000 A 
ATOM     10  C   UNL     1       3.962   5.860  17.044  0.00  0.00    +0.000 A 
ATOM     11  O   UNL     1       4.056   6.889  16.373  0.00  0.00    +0.000 OA
ATOM     12  N   UNL     1       3.091   5.721  18.127  0.00  0.00    +0.000 N 
ATOM     13  C   UNL     1       2.982   4.489  18.845  0.00  0.00    +0.000 A 
ATOM     14  N   UNL     1       2.055   4.379  19.821  0.00  0.00    +0.000 NA
ATOM     15  H   UNL     1       0.633   4.055  21.627  0.00  0.00    +0.000 HD
ENDROOT
BRANCH   9  16
ATOM     16  C   UNL     1       5.843   4.772  15.630  0.00  0.00    +0.000 A 
ATOM     17  C   UNL     1       5.491   4.315  14.354  0.00  0.00    +0.000 A 
ATOM     18  C   UNL     1       6.385   4.451  13.296  0.00  0.00    +0.000 A 
ATOM     19  C   UNL     1       7.610   5.043  13.545  0.00  0.00    +0.000 A 
ATOM     20  N   UNL     1       7.990   5.496  14.756  0.00  0.00    +0.000 NA
ATOM     21  C   UNL     1       7.110   5.348  15.777  0.00  0.00    +0.000 A 
BRANCH  21  22
ATOM     22  O   UNL     1       7.462   5.843  17.022  0.00  0.00    +0.000 OA
ATOM     23  C   UNL     1       7.477   7.268  17.069  0.00  0.00    +0.000 C 
ENDBRANCH  21  22
ENDBRANCH   9  16
BRANCH  12  24
ATOM     24  C   UNL     1       2.220   6.854  18.476  0.00  0.00    +0.000 C 
ATOM     25  C   UNL     1       2.237   7.276  19.949  0.00  0.00    +0.000 C 
ATOM     26  C   UNL     1       1.623   8.669  19.945  0.00  0.00    +0.000 C 
ATOM     27  C   UNL     1       1.906   9.268  18.569  0.00  0.00    +0.000 C 
ATOM     28  C   UNL     1       2.462   8.148  17.690  0.00  0.00    +0.000 C 
ENDBRANCH  12  24
TORSDOF 3
ENDMDL
MODEL 7
REMARK VINA RESULT:      -6.8      7.659     11.283
REMARK  Name = 
REMARK  6 active torsions:
REMARK  status: ('A' for Active; 'I' for Inactive)
REMARK    1  A    between atoms: C_1  and  N_2
REMARK    2  A    between atoms: C_5  and  C_6
REMARK    3  A    between atoms: C_9  and  C_10
REMARK    4  A    between atoms: C_15  and  O_16
REMARK    5  A    between atoms: O_16  and  C_17
REMARK    6  A    between atoms: N_20  and  C_21
REMARK                            x       y       z     vdW  Elec       q    Type
REMARK                         _______ _______ _______ _____ _____    ______ ____
ROOT
ATOM      1  C   UNL     1      -3.827  10.090  14.014  0.00  0.00    +0.000 C 
ATOM      2  N   UNL     1      -2.795  10.205  15.017  0.00  0.00    +0.000 N 
ATOM      3  C   UNL     1      -3.198  10.792  16.206  0.00  0.00    +0.000 A 
ATOM      4  N   UNL     1      -4.463  10.679  16.616  0.00  0.00    +0.000 NA
ATOM      5  C   UNL     1      -4.788  11.211  17.812  0.00  0.00    +0.000 A 
ATOM      6  C   UNL     1      -6.208  10.985  18.247  0.00  0.00    +0.000 C 
ATOM      7  C   UNL     1      -3.861  11.862  18.612  0.00  0.00    +0.000 A 
ATOM      8  C   UNL     1      -4.173  12.416  19.922  0.00  0.00    +0.000 A 
ATOM      9  C   UNL     1      -3.198  12.894  20.706  0.00  0.00    +0.000 A 
ATOM     10  C   UNL     1      -1.786  12.956  20.211  0.00  0.00    +0.000 A 
ATOM     11  O   UNL     1      -0.918  13.424  20.948  0.00  0.00    +0.000 OA
ATOM     12  N   UNL     1      -1.538  12.509  18.911  0.00  0.00    +0.000 N 
ATOM     13  C   UNL     1      -2.570  11.928  18.110  0.00  0.00    +0.000 A 
ATOM     14  N   UNL     1      -2.254  11.424  16.897  0.00  0.00    +0.000 NA
ATOM     15  H   UNL     1      -1.932  10.651  14.732  0.00  0.00    +0.000 HD
ENDROOT
BRANCH   9  16
ATOM     16  C   UNL     1      -3.569  13.393  22.041  0.00  0.00    +0.000 A 
ATOM     17  C   UNL     1      -3.568  12.509  23.126  0.00  0.00    +0.000 A 
ATOM     18  C   UNL     1      -3.835  12.980  24.409  0.00  0.00    +0.000 A 
ATOM     19  C   UNL     1      -4.096  14.329  24.569  0.00  0.00    +0.000 A 
ATOM     20  N   UNL     1      -4.107  15.215  23.553  0.00  0.00    +0.000 NA
ATOM     21  C   UNL     1      -3.854  14.737  22.310  0.00  0.00    +0.000 A 
BRANCH  21  22
ATOM     22  O   UNL     1      -3.820  15.636  21.257  0.00  0.00    +0.000 OA
ATOM     23  C   UNL     1      -4.166  16.963  21.649  0.00  0.00    +0.000 C 
ENDBRANCH  21  22
ENDBRANCH   9  16
BRANCH  12  24
ATOM     24  C   UNL     1      -0.161  12.578  18.397  0.00  0.00    +0.000 C 
ATOM     25  C   UNL     1       0.523  13.945  18.509  0.00  0.00    +0.000 C 
ATOM     26  C   UNL     1       2.002  13.637  18.323  0.00  0.00    +0.000 C 
ATOM     27  C   UNL     1       2.213  12.199  18.791  0.00  0.00    +0.000 C 
ATOM     28  C   UNL     1       0.832  11.587  19.017  0.00  0.00    +0.000 C 
ENDBRANCH  12  24
TORSDOF 3
ENDMDL
MODEL 8
REMARK VINA RESULT:      -6.8      5.206      9.600
REMARK  Name = 
REMARK  6 active torsions:
REMARK  status: ('A' for Active; 'I' for Inactive)
REMARK    1  A    between atoms: C_1  and  N_2
REMARK    2  A    between atoms: C_5  and  C_6
REMARK    3  A    between atoms: C_9  and  C_10
REMARK    4  A    between atoms: C_15  and  O_16
REMARK    5  A    between atoms: O_16  and  C_17
REMARK    6  A    between atoms: N_20  and  C_21
REMARK                            x       y       z     vdW  Elec       q    Type
REMARK                         _______ _______ _______ _____ _____    ______ ____
ROOT
ATOM      1  C   UNL     1       4.900  15.397  17.999  0.00  0.00    +0.000 C 
ATOM      2  N   UNL     1       4.190  14.156  17.805  0.00  0.00    +0.000 N 
ATOM      3  C   UNL     1       2.900  14.135  18.309  0.00  0.00    +0.000 A 
ATOM      4  N   UNL     1       2.187  15.261  18.378  0.00  0.00    +0.000 NA
ATOM      5  C   UNL     1       0.914  15.176  18.813  0.00  0.00    +0.000 A 
ATOM      6  C   UNL     1       0.145  16.466  18.797  0.00  0.00    +0.000 C 
ATOM      7  C   UNL     1       0.335  13.972  19.186  0.00  0.00    +0.000 A 
ATOM      8  C   UNL     1      -1.047  13.843  19.627  0.00  0.00    +0.000 A 
ATOM      9  C   UNL     1      -1.585  12.633  19.823  0.00  0.00    +0.000 A 
ATOM     10  C   UNL     1      -0.750  11.397  19.688  0.00  0.00    +0.000 A 
ATOM     11  O   UNL     1      -1.270  10.302  19.900  0.00  0.00    +0.000 OA
ATOM     12  N   UNL     1       0.599  11.563  19.362  0.00  0.00    +0.000 N 
ATOM     13  C   UNL     1       1.146  12.852  19.077  0.00  0.00    +0.000 A 
ATOM     14  N   UNL     1       2.432  12.944  18.673  0.00  0.00    +0.000 NA
ATOM     15  H   UNL     1       4.655  13.312  18.118  0.00  0.00    +0.000 HD
ENDROOT
BRANCH   9  16
ATOM     16  C   UNL     1      -3.003  12.565  20.218  0.00  0.00    +0.000 A 
ATOM     17  C   UNL     1      -3.977  12.357  19.235  0.00  0.00    +0.000 A 
ATOM     18  C   UNL     1      -5.313  12.207  19.599  0.00  0.00    +0.000 A 
ATOM     19  C   UNL     1      -5.636  12.269  20.943  0.00  0.00    +0.000 A 
ATOM     20  N   UNL     1      -4.731  12.468  21.922  0.00  0.00    +0.000 NA
ATOM     21  C   UNL     1      -3.437  12.620  21.548  0.00  0.00    +0.000 A 
BRANCH  21  22
ATOM     22  O   UNL     1      -2.484  12.785  22.540  0.00  0.00    +0.000 OA
ATOM     23  C   UNL     1      -3.028  13.305  23.751  0.00  0.00    +0.000 C 
ENDBRANCH  21  22
ENDBRANCH   9  16
BRANCH  12  24
ATOM     24  C   UNL     1       1.443  10.364  19.242  0.00  0.00    +0.000 C 
ATOM     25  C   UNL     1       1.178   9.259  20.270  0.00  0.00    +0.000 C 
ATOM     26  C   UNL     1       1.845   8.027  19.674  0.00  0.00    +0.000 C 
ATOM     27  C   UNL     1       1.843   8.219  18.159  0.00  0.00    +0.000 C 
ATOM     28  C   UNL     1       1.405   9.656  17.882  0.00  0.00    +0.000 C 
ENDBRANCH  12  24
TORSDOF 3
ENDMDL
MODEL 9
REMARK VINA RESULT:      -6.8      5.792     10.189
REMARK  Name = 
REMARK  6 active torsions:
REMARK  status: ('A' for Active; 'I' for Inactive)
REMARK    1  A    between atoms: C_1  and  N_2
REMARK    2  A    between atoms: C_5  and  C_6
REMARK    3  A    between atoms: C_9  and  C_10
REMARK    4  A    between atoms: C_15  and  O_16
REMARK    5  A    between atoms: O_16  and  C_17
REMARK    6  A    between atoms: N_20  and  C_21
REMARK                            x       y       z     vdW  Elec       q    Type
REMARK                         _______ _______ _______ _____ _____    ______ ____
ROOT
ATOM      1  C   UNL     1      -3.131  10.103  14.563  0.00  0.00    +0.000 C 
ATOM      2  N   UNL     1      -2.385   9.747  15.747  0.00  0.00    +0.000 N 
ATOM      3  C   UNL     1      -2.640  10.534  16.858  0.00  0.00    +0.000 A 
ATOM      4  N   UNL     1      -3.837  11.103  17.018  0.00  0.00    +0.000 NA
ATOM      5  C   UNL     1      -4.056  11.804  18.149  0.00  0.00    +0.000 A 
ATOM      6  C   UNL     1      -5.444  12.356  18.301  0.00  0.00    +0.000 C 
ATOM      7  C   UNL     1      -3.088  11.949  19.133  0.00  0.00    +0.000 A 
ATOM      8  C   UNL     1      -3.306  12.670  20.378  0.00  0.00    +0.000 A 
ATOM      9  C   UNL     1      -2.383  12.640  21.348  0.00  0.00    +0.000 A 
ATOM     10  C   UNL     1      -1.073  11.947  21.131  0.00  0.00    +0.000 A 
ATOM     11  O   UNL     1      -0.237  11.959  22.035  0.00  0.00    +0.000 OA
ATOM     12  N   UNL     1      -0.856  11.351  19.886  0.00  0.00    +0.000 N 
ATOM     13  C   UNL     1      -1.877  11.320  18.885  0.00  0.00    +0.000 A 
ATOM     14  N   UNL     1      -1.648  10.646  17.737  0.00  0.00    +0.000 NA
ATOM     15  H   UNL     1      -1.380   9.675  15.646  0.00  0.00    +0.000 HD
ENDROOT
BRANCH   9  16
ATOM     16  C   UNL     1      -2.682  13.345  22.607  0.00  0.00    +0.000 A 
ATOM     17  C   UNL     1      -3.437  12.697  23.591  0.00  0.00    +0.000 A 
ATOM     18  C   UNL     1      -3.659  13.315  24.818  0.00  0.00    +0.000 A 
ATOM     19  C   UNL     1      -3.116  14.571  25.027  0.00  0.00    +0.000 A 
ATOM     20  N   UNL     1      -2.383  15.231  24.108  0.00  0.00    +0.000 NA
ATOM     21  C   UNL     1      -2.184  14.617  22.915  0.00  0.00    +0.000 A 
BRANCH  21  22
ATOM     22  O   UNL     1      -1.401  15.259  21.971  0.00  0.00    +0.000 OA
ATOM     23  C   UNL     1      -0.062  15.471  22.413  0.00  0.00    +0.000 C 
ENDBRANCH  21  22
ENDBRANCH   9  16
BRANCH  12  24
ATOM     24  C   UNL     1       0.430  10.680  19.645  0.00  0.00    +0.000 C 
ATOM     25  C   UNL     1       0.497   9.205  20.053  0.00  0.00    +0.000 C 
ATOM     26  C   UNL     1       1.723   8.672  19.326  0.00  0.00    +0.000 C 
ATOM     27  C   UNL     1       1.901   9.533  18.078  0.00  0.00    +0.000 C 
ATOM     28  C   UNL     1       0.939  10.714  18.199  0.00  0.00    +0.000 C 
ENDBRANCH  12  24
TORSDOF 3
ENDMDL
