MODEL 1
REMARK VINA RESULT:      -7.2      0.000      0.000
REMARK  Name = 
REMARK  9 active torsions:
REMARK  status: ('A' for Active; 'I' for Inactive)
REMARK    1  A    between atoms: C_1  and  C_2
REMARK    2  A    between atoms: C_2  and  C_4
REMARK    3  A    between atoms: C_8  and  N_9
REMARK    4  A    between atoms: N_9  and  C_17
REMARK    5  A    between atoms: C_10  and  C_12
REMARK    6  A    between atoms: C_17  and  C_18
REMARK    7  A    between atoms: C_17  and  C_27
REMARK    8  A    between atoms: N_20  and  C_21
REMARK    9  A    between atoms: C_30  and  C_31
REMARK                            x       y       z     vdW  Elec       q    Type
REMARK                         _______ _______ _______ _____ _____    ______ ____
ROOT
ATOM      1  N   UNL     1       0.034  10.703  20.197  0.00  0.00    +0.000 N 
ATOM      2  C   UNL     1       0.170  10.865  21.614  0.00  0.00    +0.000 C 
ATOM      3  O   UNL     1       1.164  10.451  22.217  0.00  0.00    +0.000 OA
ENDROOT
BRANCH   1   8
ATOM      4  C   UNL     1       2.005   7.550  19.318  0.00  0.00    +0.000 A 
ATOM      5  C   UNL     1       2.613   7.906  18.120  0.00  0.00    +0.000 A 
ATOM      6  C   UNL     1       2.397   9.180  17.613  0.00  0.00    +0.000 A 
ATOM      7  C   UNL     1       1.588  10.093  18.309  0.00  0.00    +0.000 A 
ATOM      8  C   UNL     1       0.901   9.751  19.490  0.00  0.00    +0.000 A 
ATOM      9  C   UNL     1       1.129   8.449  19.960  0.00  0.00    +0.000 A 
BRANCH   4  11
ATOM     10  C   UNL     1       3.549   5.502  19.614  0.00  0.00    +0.000 C 
ATOM     11  C   UNL     1       2.305   6.257  19.995  0.00  0.00    +0.000 C 
ATOM     12  O   UNL     1       1.551   5.846  20.875  0.00  0.00    +0.000 OA
ENDBRANCH   4  11
ENDBRANCH   1   8
BRANCH   2  13
ATOM     13  C   UNL     1      -0.819  11.607  22.389  0.00  0.00    +0.000 A 
ATOM     14  C   UNL     1      -0.868  12.964  22.674  0.00  0.00    +0.000 A 
ATOM     15  C   UNL     1      -2.025  13.185  23.457  0.00  0.00    +0.000 A 
ATOM     16  C   UNL     1      -2.592  11.949  23.644  0.00  0.00    +0.000 A 
ATOM     17  O   UNL     1      -1.850  10.985  23.038  0.00  0.00    +0.000 OA
ENDBRANCH   2  13
BRANCH   1  18
ATOM     18  C   UNL     1      -0.835  11.639  19.420  0.00  0.00    +0.000 C 
BRANCH  18  19
ATOM     19  C   UNL     1      -1.842  10.954  18.527  0.00  0.00    +0.000 A 
ATOM     20  C   UNL     1      -1.755  10.022  17.507  0.00  0.00    +0.000 A 
ATOM     21  C   UNL     1      -3.026   9.937  16.904  0.00  0.00    +0.000 A 
ATOM     22  C   UNL     1      -3.821  10.839  17.568  0.00  0.00    +0.000 A 
ATOM     23  C   UNL     1      -5.207  11.298  17.338  0.00  0.00    +0.000 C 
ATOM     24  O   UNL     1      -3.126  11.436  18.578  0.00  0.00    +0.000 OA
ENDBRANCH  18  19
BRANCH  18  25
ATOM     25  C   UNL     1      -0.129  12.798  18.661  0.00  0.00    +0.000 C 
ATOM     26  O   UNL     1      -0.557  13.260  17.595  0.00  0.00    +0.000 OA
ATOM     27  N   UNL     1       0.915  13.422  19.329  0.00  0.00    +0.000 N 
ATOM     28  H   UNL     1       1.368  12.911  20.074  0.00  0.00    +0.000 HD
BRANCH  27  29
ATOM     29  C   UNL     1       1.608  14.554  18.713  0.00  0.00    +0.000 C 
ATOM     30  C   UNL     1       1.201  15.874  19.371  0.00  0.00    +0.000 C 
ATOM     31  C   UNL     1       1.767  16.026  20.778  0.00  0.00    +0.000 C 
ATOM     32  C   UNL     1       3.278  15.816  20.808  0.00  0.00    +0.000 C 
ATOM     33  C   UNL     1       3.691  14.495  20.162  0.00  0.00    +0.000 C 
ATOM     34  C   UNL     1       3.128  14.358  18.748  0.00  0.00    +0.000 C 
ENDBRANCH  27  29
ENDBRANCH  18  25
ENDBRANCH   1  18
TORSDOF 7
ENDMDL
MODEL 2
REMARK VINA RESULT:      -7.2      2.543      6.865
REMARK  Name = 
REMARK  9 active torsions:
REMARK  status: ('A' for Active; 'I' for Inactive)
REMARK    1  A    between atoms: C_1  and  C_2
REMARK    2  A    between atoms: C_2  and  C_4
REMARK    3  A    between atoms: C_8  and  N_9
REMARK    4  A    between atoms: N_9  and  C_17
REMARK    5  A    between atoms: C_10  and  C_12
REMARK    6  A    between atoms: C_17  and  C_18
REMARK    7  A    between atoms: C_17  and  C_27
REMARK    8  A    between atoms: N_20  and  C_21
REMARK    9  A    between atoms: C_30  and  C_31
REMARK                            x       y       z     vdW  Elec       q    Type
REMARK                         _______ _______ _______ _____ _____    ______ ____
ROOT
ATOM      1  N   UNL     1      -2.745  12.323  19.794  0.00  0.00    +0.000 N 
ATOM      2  C   UNL     1      -3.749  11.868  18.879  0.00  0.00    +0.000 C 
ATOM      3  O   UNL     1      -4.936  12.169  19.024  0.00  0.00    +0.000 OA
ENDROOT
BRANCH   1   8
ATOM      4  C   UNL     1      -4.094  14.671  22.489  0.00  0.00    +0.000 A 
ATOM      5  C   UNL     1      -3.905  13.928  23.650  0.00  0.00    +0.000 A 
ATOM      6  C   UNL     1      -3.318  12.675  23.553  0.00  0.00    +0.000 A 
ATOM      7  C   UNL     1      -2.913  12.175  22.305  0.00  0.00    +0.000 A 
ATOM      8  C   UNL     1      -3.146  12.865  21.100  0.00  0.00    +0.000 A 
ATOM      9  C   UNL     1      -3.759  14.120  21.236  0.00  0.00    +0.000 A 
BRANCH   4  11
ATOM     10  C   UNL     1      -4.569  16.820  23.838  0.00  0.00    +0.000 C 
ATOM     11  C   UNL     1      -4.583  16.078  22.530  0.00  0.00    +0.000 C 
ATOM     12  O   UNL     1      -4.956  16.619  21.491  0.00  0.00    +0.000 OA
ENDBRANCH   4  11
ENDBRANCH   1   8
BRANCH   2  13
ATOM     13  C   UNL     1      -3.395  11.106  17.686  0.00  0.00    +0.000 A 
ATOM     14  C   UNL     1      -3.102   9.756  17.565  0.00  0.00    +0.000 A 
ATOM     15  C   UNL     1      -2.825   9.508  16.201  0.00  0.00    +0.000 A 
ATOM     16  C   UNL     1      -2.921  10.725  15.573  0.00  0.00    +0.000 A 
ATOM     17  O   UNL     1      -3.224  11.702  16.467  0.00  0.00    +0.000 OA
ENDBRANCH   2  13
BRANCH   1  18
ATOM     18  C   UNL     1      -1.324  12.437  19.345  0.00  0.00    +0.000 C 
BRANCH  18  19
ATOM     19  C   UNL     1      -0.518  11.169  19.507  0.00  0.00    +0.000 A 
ATOM     20  C   UNL     1      -0.210  10.348  20.579  0.00  0.00    +0.000 A 
ATOM     21  C   UNL     1       0.770   9.435  20.142  0.00  0.00    +0.000 A 
ATOM     22  C   UNL     1       1.031   9.756  18.832  0.00  0.00    +0.000 A 
ATOM     23  C   UNL     1       2.028   9.251  17.866  0.00  0.00    +0.000 C 
ATOM     24  O   UNL     1       0.231  10.782  18.424  0.00  0.00    +0.000 OA
ENDBRANCH  18  19
BRANCH  18  25
ATOM     25  C   UNL     1      -0.516  13.667  19.849  0.00  0.00    +0.000 C 
ATOM     26  O   UNL     1       0.474  13.563  20.585  0.00  0.00    +0.000 OA
ATOM     27  N   UNL     1      -0.847  14.890  19.284  0.00  0.00    +0.000 N 
ATOM     28  H   UNL     1      -1.762  14.981  18.864  0.00  0.00    +0.000 HD
BRANCH  27  29
ATOM     29  C   UNL     1      -0.109  16.096  19.661  0.00  0.00    +0.000 C 
ATOM     30  C   UNL     1       0.456  16.805  18.428  0.00  0.00    +0.000 C 
ATOM     31  C   UNL     1      -0.628  17.478  17.592  0.00  0.00    +0.000 C 
ATOM     32  C   UNL     1      -1.501  18.405  18.433  0.00  0.00    +0.000 C 
ATOM     33  C   UNL     1      -2.075  17.700  19.661  0.00  0.00    +0.000 C 
ATOM     34  C   UNL     1      -0.981  17.040  20.497  0.00  0.00    +0.000 C 
ENDBRANCH  27  29
ENDBRANCH  18  25
ENDBRANCH   1  18
TORSDOF 7
ENDMDL
MODEL 3
REMARK VINA RESULT:      -7.2      1.470      2.057
REMARK  Name = 
REMARK  9 active torsions:
REMARK  status: ('A' for Active; 'I' for Inactive)
REMARK    1  A    between atoms: C_1  and  C_2
REMARK    2  A    between atoms: C_2  and  C_4
REMARK    3  A    between atoms: C_8  and  N_9
REMARK    4  A    between atoms: N_9  and  C_17
REMARK    5  A    between atoms: C_10  and  C_12
REMARK    6  A    between atoms: C_17  and  C_18
REMARK    7  A    between atoms: C_17  and  C_27
REMARK    8  A    between atoms: N_20  and  C_21
REMARK    9  A    between atoms: C_30  and  C_31
REMARK                            x       y       z     vdW  Elec       q    Type
REMARK                         _______ _______ _______ _____ _____    ______ ____
ROOT
ATOM      1  N   UNL     1      -1.062  11.218  21.107  0.00  0.00    +0.000 N 
ATOM      2  C   UNL     1      -1.318  11.596  22.465  0.00  0.00    +0.000 C 
ATOM      3  O   UNL     1      -0.601  11.203  23.389  0.00  0.00    +0.000 OA
ENDROOT
BRANCH   1   8
ATOM      4  C   UNL     1       1.522   8.976  19.406  0.00  0.00    +0.000 A 
ATOM      5  C   UNL     1       1.584   7.888  20.269  0.00  0.00    +0.000 A 
ATOM      6  C   UNL     1       0.767   7.878  21.391  0.00  0.00    +0.000 A 
ATOM      7  C   UNL     1      -0.113   8.944  21.638  0.00  0.00    +0.000 A 
ATOM      8  C   UNL     1      -0.158  10.094  20.826  0.00  0.00    +0.000 A 
ATOM      9  C   UNL     1       0.695  10.076  19.713  0.00  0.00    +0.000 A 
BRANCH   4  11
ATOM     10  C   UNL     1       3.054   7.781  17.706  0.00  0.00    +0.000 C 
ATOM     11  C   UNL     1       2.259   8.992  18.111  0.00  0.00    +0.000 C 
ATOM     12  O   UNL     1       2.178   9.978  17.381  0.00  0.00    +0.000 OA
ENDBRANCH   4  11
ENDBRANCH   1   8
BRANCH   2  13
ATOM     13  C   UNL     1      -2.384  12.536  22.800  0.00  0.00    +0.000 A 
ATOM     14  C   UNL     1      -2.286  13.842  23.254  0.00  0.00    +0.000 A 
ATOM     15  C   UNL     1      -3.604  14.323  23.430  0.00  0.00    +0.000 A 
ATOM     16  C   UNL     1      -4.431  13.272  23.117  0.00  0.00    +0.000 A 
ATOM     17  O   UNL     1      -3.703  12.177  22.776  0.00  0.00    +0.000 OA
ENDBRANCH   2  13
BRANCH   1  18
ATOM     18  C   UNL     1      -1.542  12.085  19.989  0.00  0.00    +0.000 C 
BRANCH  18  19
ATOM     19  C   UNL     1      -2.423  11.376  18.987  0.00  0.00    +0.000 A 
ATOM     20  C   UNL     1      -2.230  10.333  18.096  0.00  0.00    +0.000 A 
ATOM     21  C   UNL     1      -3.370  10.269  17.270  0.00  0.00    +0.000 A 
ATOM     22  C   UNL     1      -4.193  11.290  17.679  0.00  0.00    +0.000 A 
ATOM     23  C   UNL     1      -5.467  11.813  17.144  0.00  0.00    +0.000 C 
ATOM     24  O   UNL     1      -3.648  11.945  18.743  0.00  0.00    +0.000 OA
ENDBRANCH  18  19
BRANCH  18  25
ATOM     25  C   UNL     1      -0.481  12.960  19.262  0.00  0.00    +0.000 C 
ATOM     26  O   UNL     1      -0.484  13.136  18.036  0.00  0.00    +0.000 OA
ATOM     27  N   UNL     1       0.372  13.691  20.076  0.00  0.00    +0.000 N 
ATOM     28  H   UNL     1       0.492  13.379  21.030  0.00  0.00    +0.000 HD
BRANCH  27  29
ATOM     29  C   UNL     1       1.371  14.578  19.482  0.00  0.00    +0.000 C 
ATOM     30  C   UNL     1       1.338  15.962  20.134  0.00  0.00    +0.000 C 
ATOM     31  C   UNL     1       1.890  15.951  21.556  0.00  0.00    +0.000 C 
ATOM     32  C   UNL     1       3.279  15.323  21.622  0.00  0.00    +0.000 C 
ATOM     33  C   UNL     1       3.316  13.937  20.980  0.00  0.00    +0.000 C 
ATOM     34  C   UNL     1       2.773  13.961  19.553  0.00  0.00    +0.000 C 
ENDBRANCH  27  29
ENDBRANCH  18  25
ENDBRANCH   1  18
TORSDOF 7
ENDMDL
MODEL 4
REMARK VINA RESULT:      -7.2      1.578      6.174
REMARK  Name = 
REMARK  9 active torsions:
REMARK  status: ('A' for Active; 'I' for Inactive)
REMARK    1  A    between atoms: C_1  and  C_2
REMARK    2  A    between atoms: C_2  and  C_4
REMARK    3  A    between atoms: C_8  and  N_9
REMARK    4  A    between atoms: N_9  and  C_17
REMARK    5  A    between atoms: C_10  and  C_12
REMARK    6  A    between atoms: C_17  and  C_18
REMARK    7  A    between atoms: C_17  and  C_27
REMARK    8  A    between atoms: N_20  and  C_21
REMARK    9  A    between atoms: C_30  and  C_31
REMARK                            x       y       z     vdW  Elec       q    Type
REMARK                         _______ _______ _______ _____ _____    ______ ____
ROOT
ATOM      1  N   UNL     1      -0.135  12.011  19.262  0.00  0.00    +0.000 N 
ATOM      2  C   UNL     1       0.285  13.324  18.873  0.00  0.00    +0.000 C 
ATOM      3  O   UNL     1      -0.471  14.090  18.269  0.00  0.00    +0.000 OA
ENDROOT
BRANCH   1   8
ATOM      4  C   UNL     1      -3.792  11.319  18.402  0.00  0.00    +0.000 A 
ATOM      5  C   UNL     1      -3.690  10.269  17.496  0.00  0.00    +0.000 A 
ATOM      6  C   UNL     1      -2.430   9.775  17.186  0.00  0.00    +0.000 A 
ATOM      7  C   UNL     1      -1.285  10.321  17.787  0.00  0.00    +0.000 A 
ATOM      8  C   UNL     1      -1.340  11.427  18.658  0.00  0.00    +0.000 A 
ATOM      9  C   UNL     1      -2.628  11.911  18.932  0.00  0.00    +0.000 A 
BRANCH   4  11
ATOM     10  C   UNL     1      -6.313  10.904  18.777  0.00  0.00    +0.000 C 
ATOM     11  C   UNL     1      -5.113  11.804  18.893  0.00  0.00    +0.000 C 
ATOM     12  O   UNL     1      -5.194  12.914  19.414  0.00  0.00    +0.000 OA
ENDBRANCH   4  11
ENDBRANCH   1   8
BRANCH   2  13
ATOM     13  C   UNL     1       1.594  13.845  19.256  0.00  0.00    +0.000 A 
ATOM     14  C   UNL     1       2.811  13.716  18.605  0.00  0.00    +0.000 A 
ATOM     15  C   UNL     1       3.775  14.401  19.381  0.00  0.00    +0.000 A 
ATOM     16  C   UNL     1       3.103  14.872  20.482  0.00  0.00    +0.000 A 
ATOM     17  O   UNL     1       1.795  14.506  20.437  0.00  0.00    +0.000 OA
ENDBRANCH   2  13
BRANCH   1  18
ATOM     18  C   UNL     1       0.525  11.329  20.416  0.00  0.00    +0.000 C 
BRANCH  18  19
ATOM     19  C   UNL     1       0.899   9.888  20.156  0.00  0.00    +0.000 A 
ATOM     20  C   UNL     1       0.882   8.732  20.918  0.00  0.00    +0.000 A 
ATOM     21  C   UNL     1       1.562   7.737  20.187  0.00  0.00    +0.000 A 
ATOM     22  C   UNL     1       1.982   8.339  19.026  0.00  0.00    +0.000 A 
ATOM     23  C   UNL     1       2.832   7.867  17.914  0.00  0.00    +0.000 C 
ATOM     24  O   UNL     1       1.555   9.633  18.978  0.00  0.00    +0.000 OA
ENDBRANCH  18  19
BRANCH  18  25
ATOM     25  C   UNL     1      -0.150  11.476  21.809  0.00  0.00    +0.000 C 
ATOM     26  O   UNL     1       0.119  10.738  22.767  0.00  0.00    +0.000 OA
ATOM     27  N   UNL     1      -0.945  12.599  21.989  0.00  0.00    +0.000 N 
ATOM     28  H   UNL     1      -1.308  13.054  21.163  0.00  0.00    +0.000 HD
BRANCH  27  29
ATOM     29  C   UNL     1      -1.584  12.847  23.282  0.00  0.00    +0.000 C 
ATOM     30  C   UNL     1      -1.701  14.347  23.560  0.00  0.00    +0.000 C 
ATOM     31  C   UNL     1      -2.746  15.025  22.680  0.00  0.00    +0.000 C 
ATOM     32  C   UNL     1      -4.098  14.322  22.759  0.00  0.00    +0.000 C 
ATOM     33  C   UNL     1      -3.989  12.826  22.472  0.00  0.00    +0.000 C 
ATOM     34  C   UNL     1      -2.949  12.154  23.367  0.00  0.00    +0.000 C 
ENDBRANCH  27  29
ENDBRANCH  18  25
ENDBRANCH   1  18
TORSDOF 7
ENDMDL
MODEL 5
REMARK VINA RESULT:      -7.2      2.285      6.450
REMARK  Name = 
REMARK  9 active torsions:
REMARK  status: ('A' for Active; 'I' for Inactive)
REMARK    1  A    between atoms: C_1  and  C_2
REMARK    2  A    between atoms: C_2  and  C_4
REMARK    3  A    between atoms: C_8  and  N_9
REMARK    4  A    between atoms: N_9  and  C_17
REMARK    5  A    between atoms: C_10  and  C_12
REMARK    6  A    between atoms: C_17  and  C_18
REMARK    7  A    between atoms: C_17  and  C_27
REMARK    8  A    between atoms: N_20  and  C_21
REMARK    9  A    between atoms: C_30  and  C_31
REMARK                            x       y       z     vdW  Elec       q    Type
REMARK                         _______ _______ _______ _____ _____    ______ ____
ROOT
ATOM      1  N   UNL     1      -0.633  13.227  20.428  0.00  0.00    +0.000 N 
ATOM      2  C   UNL     1       0.066  14.323  19.827  0.00  0.00    +0.000 C 
ATOM      3  O   UNL     1      -0.428  14.972  18.901  0.00  0.00    +0.000 OA
ENDROOT
BRANCH   1   8
ATOM      4  C   UNL     1      -2.758  11.254  17.940  0.00  0.00    +0.000 A 
ATOM      5  C   UNL     1      -4.050  11.515  18.383  0.00  0.00    +0.000 A 
ATOM      6  C   UNL     1      -4.226  12.351  19.477  0.00  0.00    +0.000 A 
ATOM      7  C   UNL     1      -3.116  12.930  20.113  0.00  0.00    +0.000 A 
ATOM      8  C   UNL     1      -1.790  12.639  19.739  0.00  0.00    +0.000 A 
ATOM      9  C   UNL     1      -1.653  11.776  18.642  0.00  0.00    +0.000 A 
BRANCH   4  11
ATOM     10  C   UNL     1      -3.156  10.928  15.410  0.00  0.00    +0.000 C 
ATOM     11  C   UNL     1      -2.498  10.487  16.690  0.00  0.00    +0.000 C 
ATOM     12  O   UNL     1      -1.726   9.531  16.716  0.00  0.00    +0.000 OA
ENDBRANCH   4  11
ENDBRANCH   1   8
BRANCH   2  13
ATOM     13  C   UNL     1       1.352  14.777  20.347  0.00  0.00    +0.000 A 
ATOM     14  C   UNL     1       2.616  14.250  20.134  0.00  0.00    +0.000 A 
ATOM     15  C   UNL     1       3.530  15.051  20.857  0.00  0.00    +0.000 A 
ATOM     16  C   UNL     1       2.771  15.994  21.505  0.00  0.00    +0.000 A 
ATOM     17  O   UNL     1       1.452  15.811  21.237  0.00  0.00    +0.000 OA
ENDBRANCH   2  13
BRANCH   1  18
ATOM     18  C   UNL     1      -0.318  12.822  21.832  0.00  0.00    +0.000 C 
BRANCH  18  19
ATOM     19  C   UNL     1      -0.387  11.333  22.080  0.00  0.00    +0.000 A 
ATOM     20  C   UNL     1      -0.937  10.542  23.075  0.00  0.00    +0.000 A 
ATOM     21  C   UNL     1      -0.481   9.225  22.867  0.00  0.00    +0.000 A 
ATOM     22  C   UNL     1       0.343   9.279  21.769  0.00  0.00    +0.000 A 
ATOM     23  C   UNL     1       1.206   8.266  21.125  0.00  0.00    +0.000 C 
ATOM     24  O   UNL     1       0.380  10.543  21.261  0.00  0.00    +0.000 OA
ENDBRANCH  18  19
BRANCH  18  25
ATOM     25  C   UNL     1      -1.031  13.600  22.973  0.00  0.00    +0.000 C 
ATOM     26  O   UNL     1      -0.480  14.506  23.615  0.00  0.00    +0.000 OA
ATOM     27  N   UNL     1      -2.389  13.359  23.124  0.00  0.00    +0.000 N 
ATOM     28  H   UNL     1      -2.756  12.495  22.749  0.00  0.00    +0.000 HD
BRANCH  27  29
ATOM     29  C   UNL     1      -3.154  14.081  24.141  0.00  0.00    +0.000 C 
ATOM     30  C   UNL     1      -3.982  15.204  23.514  0.00  0.00    +0.000 C 
ATOM     31  C   UNL     1      -5.161  14.679  22.701  0.00  0.00    +0.000 C 
ATOM     32  C   UNL     1      -6.026  13.717  23.511  0.00  0.00    +0.000 C 
ATOM     33  C   UNL     1      -5.206  12.587  24.132  0.00  0.00    +0.000 C 
ATOM     34  C   UNL     1      -4.035  13.125  24.953  0.00  0.00    +0.000 C 
ENDBRANCH  27  29
ENDBRANCH  18  25
ENDBRANCH   1  18
TORSDOF 7
ENDMDL
MODEL 6
REMARK VINA RESULT:      -7.2      2.728      6.935
REMARK  Name = 
REMARK  9 active torsions:
REMARK  status: ('A' for Active; 'I' for Inactive)
REMARK    1  A    between atoms: C_1  and  C_2
REMARK    2  A    between atoms: C_2  and  C_4
REMARK    3  A    between atoms: C_8  and  N_9
REMARK    4  A    between atoms: N_9  and  C_17
REMARK    5  A    between atoms: C_10  and  C_12
REMARK    6  A    between atoms: C_17  and  C_18
REMARK    7  A    between atoms: C_17  and  C_27
REMARK    8  A    between atoms: N_20  and  C_21
REMARK    9  A    between atoms: C_30  and  C_31
REMARK                            x       y       z     vdW  Elec       q    Type
REMARK                         _______ _______ _______ _____ _____    ______ ____
ROOT
ATOM      1  N   UNL     1      -2.817  12.458  19.935  0.00  0.00    +0.000 N 
ATOM      2  C   UNL     1      -3.768  11.871  19.039  0.00  0.00    +0.000 C 
ATOM      3  O   UNL     1      -4.982  12.033  19.192  0.00  0.00    +0.000 OA
ENDROOT
BRANCH   1   8
ATOM      4  C   UNL     1      -4.320  14.727  22.616  0.00  0.00    +0.000 A 
ATOM      5  C   UNL     1      -4.123  13.986  23.775  0.00  0.00    +0.000 A 
ATOM      6  C   UNL     1      -3.482  12.759  23.682  0.00  0.00    +0.000 A 
ATOM      7  C   UNL     1      -3.030  12.285  22.440  0.00  0.00    +0.000 A 
ATOM      8  C   UNL     1      -3.268  12.974  21.235  0.00  0.00    +0.000 A 
ATOM      9  C   UNL     1      -3.936  14.200  21.366  0.00  0.00    +0.000 A 
BRANCH   4  11
ATOM     10  C   UNL     1      -5.294  16.768  21.370  0.00  0.00    +0.000 C 
ATOM     11  C   UNL     1      -4.868  16.112  22.655  0.00  0.00    +0.000 C 
ATOM     12  O   UNL     1      -4.996  16.682  23.737  0.00  0.00    +0.000 OA
ENDBRANCH   4  11
ENDBRANCH   1   8
BRANCH   2  13
ATOM     13  C   UNL     1      -3.338  11.134  17.855  0.00  0.00    +0.000 A 
ATOM     14  C   UNL     1      -2.950   9.807  17.744  0.00  0.00    +0.000 A 
ATOM     15  C   UNL     1      -2.629   9.577  16.387  0.00  0.00    +0.000 A 
ATOM     16  C   UNL     1      -2.796  10.784  15.753  0.00  0.00    +0.000 A 
ATOM     17  O   UNL     1      -3.183  11.739  16.638  0.00  0.00    +0.000 OA
ENDBRANCH   2  13
BRANCH   1  18
ATOM     18  C   UNL     1      -1.423  12.730  19.468  0.00  0.00    +0.000 C 
BRANCH  18  19
ATOM     19  C   UNL     1      -0.488  11.549  19.584  0.00  0.00    +0.000 A 
ATOM     20  C   UNL     1       0.434  10.958  18.736  0.00  0.00    +0.000 A 
ATOM     21  C   UNL     1       0.838   9.747  19.332  0.00  0.00    +0.000 A 
ATOM     22  C   UNL     1       0.126   9.645  20.503  0.00  0.00    +0.000 A 
ATOM     23  C   UNL     1       0.017   8.566  21.507  0.00  0.00    +0.000 C 
ATOM     24  O   UNL     1      -0.653  10.748  20.685  0.00  0.00    +0.000 OA
ENDBRANCH  18  19
BRANCH  18  25
ATOM     25  C   UNL     1      -0.738  14.024  19.991  0.00  0.00    +0.000 C 
ATOM     26  O   UNL     1       0.249  14.005  20.739  0.00  0.00    +0.000 OA
ATOM     27  N   UNL     1      -1.175  15.217  19.433  0.00  0.00    +0.000 N 
ATOM     28  H   UNL     1      -2.089  15.227  19.003  0.00  0.00    +0.000 HD
BRANCH  27  29
ATOM     29  C   UNL     1      -0.556  16.482  19.829  0.00  0.00    +0.000 C 
ATOM     30  C   UNL     1       0.315  17.046  18.705  0.00  0.00    +0.000 C 
ATOM     31  C   UNL     1      -0.510  17.576  17.536  0.00  0.00    +0.000 C 
ATOM     32  C   UNL     1      -1.569  18.576  17.995  0.00  0.00    +0.000 C 
ATOM     33  C   UNL     1      -2.447  18.015  19.111  0.00  0.00    +0.000 C 
ATOM     34  C   UNL     1      -1.612  17.498  20.281  0.00  0.00    +0.000 C 
ENDBRANCH  27  29
ENDBRANCH  18  25
ENDBRANCH   1  18
TORSDOF 7
ENDMDL
MODEL 7
REMARK VINA RESULT:      -7.0      2.028      6.441
REMARK  Name = 
REMARK  9 active torsions:
REMARK  status: ('A' for Active; 'I' for Inactive)
REMARK    1  A    between atoms: C_1  and  C_2
REMARK    2  A    between atoms: C_2  and  C_4
REMARK    3  A    between atoms: C_8  and  N_9
REMARK    4  A    between atoms: N_9  and  C_17
REMARK    5  A    between atoms: C_10  and  C_12
REMARK    6  A    between atoms: C_17  and  C_18
REMARK    7  A    between atoms: C_17  and  C_27
REMARK    8  A    between atoms: N_20  and  C_21
REMARK    9  A    between atoms: C_30  and  C_31
REMARK                            x       y       z     vdW  Elec       q    Type
REMARK                         _______ _______ _______ _____ _____    ______ ____
ROOT
ATOM      1  N   UNL     1      -0.271  12.955  20.031  0.00  0.00    +0.000 N 
ATOM      2  C   UNL     1       0.282  14.143  19.453  0.00  0.00    +0.000 C 
ATOM      3  O   UNL     1      -0.193  14.642  18.429  0.00  0.00    +0.000 OA
ENDROOT
BRANCH   1   8
ATOM      4  C   UNL     1      -3.458  11.540  18.468  0.00  0.00    +0.000 A 
ATOM      5  C   UNL     1      -2.970  10.480  17.711  0.00  0.00    +0.000 A 
ATOM      6  C   UNL     1      -1.608  10.216  17.730  0.00  0.00    +0.000 A 
ATOM      7  C   UNL     1      -0.744  11.000  18.511  0.00  0.00    +0.000 A 
ATOM      8  C   UNL     1      -1.186  12.122  19.239  0.00  0.00    +0.000 A 
ATOM      9  C   UNL     1      -2.566  12.368  19.180  0.00  0.00    +0.000 A 
BRANCH   4  11
ATOM     10  C   UNL     1      -5.774  11.872  17.377  0.00  0.00    +0.000 C 
ATOM     11  C   UNL     1      -4.919  11.793  18.613  0.00  0.00    +0.000 C 
ATOM     12  O   UNL     1      -5.406  11.899  19.736  0.00  0.00    +0.000 OA
ENDBRANCH   4  11
ENDBRANCH   1   8
BRANCH   2  13
ATOM     13  C   UNL     1       1.372  14.864  20.103  0.00  0.00    +0.000 A 
ATOM     14  C   UNL     1       2.714  14.528  20.188  0.00  0.00    +0.000 A 
ATOM     15  C   UNL     1       3.356  15.553  20.920  0.00  0.00    +0.000 A 
ATOM     16  C   UNL     1       2.366  16.434  21.278  0.00  0.00    +0.000 A 
ATOM     17  O   UNL     1       1.159  16.006  20.825  0.00  0.00    +0.000 OA
ENDBRANCH   2  13
BRANCH   1  18
ATOM     18  C   UNL     1      -0.083  12.678  21.487  0.00  0.00    +0.000 C 
BRANCH  18  19
ATOM     19  C   UNL     1      -0.226  11.222  21.866  0.00  0.00    +0.000 A 
ATOM     20  C   UNL     1      -0.876  10.547  22.886  0.00  0.00    +0.000 A 
ATOM     21  C   UNL     1      -0.456   9.203  22.837  0.00  0.00    +0.000 A 
ATOM     22  C   UNL     1       0.448   9.127  21.805  0.00  0.00    +0.000 A 
ATOM     23  C   UNL     1       1.317   8.032  21.325  0.00  0.00    +0.000 C 
ATOM     24  O   UNL     1       0.568  10.335  21.185  0.00  0.00    +0.000 OA
ENDBRANCH  18  19
BRANCH  18  25
ATOM     25  C   UNL     1      -0.857  13.582  22.488  0.00  0.00    +0.000 C 
ATOM     26  O   UNL     1      -0.293  14.397  23.230  0.00  0.00    +0.000 OA
ATOM     27  N   UNL     1      -2.241  13.567  22.384  0.00  0.00    +0.000 N 
ATOM     28  H   UNL     1      -2.669  12.768  21.937  0.00  0.00    +0.000 HD
BRANCH  27  29
ATOM     29  C   UNL     1      -3.051  14.422  23.252  0.00  0.00    +0.000 C 
ATOM     30  C   UNL     1      -4.377  14.790  22.581  0.00  0.00    +0.000 C 
ATOM     31  C   UNL     1      -5.338  13.608  22.499  0.00  0.00    +0.000 C 
ATOM     32  C   UNL     1      -5.549  12.951  23.860  0.00  0.00    +0.000 C 
ATOM     33  C   UNL     1      -4.230  12.573  24.530  0.00  0.00    +0.000 C 
ATOM     34  C   UNL     1      -3.280  13.766  24.618  0.00  0.00    +0.000 C 
ENDBRANCH  27  29
ENDBRANCH  18  25
ENDBRANCH   1  18
TORSDOF 7
ENDMDL
MODEL 8
REMARK VINA RESULT:      -7.0      2.231      6.636
REMARK  Name = 
REMARK  9 active torsions:
REMARK  status: ('A' for Active; 'I' for Inactive)
REMARK    1  A    between atoms: C_1  and  C_2
REMARK    2  A    between atoms: C_2  and  C_4
REMARK    3  A    between atoms: C_8  and  N_9
REMARK    4  A    between atoms: N_9  and  C_17
REMARK    5  A    between atoms: C_10  and  C_12
REMARK    6  A    between atoms: C_17  and  C_18
REMARK    7  A    between atoms: C_17  and  C_27
REMARK    8  A    between atoms: N_20  and  C_21
REMARK    9  A    between atoms: C_30  and  C_31
REMARK                            x       y       z     vdW  Elec       q    Type
REMARK                         _______ _______ _______ _____ _____    ______ ____
ROOT
ATOM      1  N   UNL     1      -0.477  12.952  20.130  0.00  0.00    +0.000 N 
ATOM      2  C   UNL     1       0.203  14.029  19.475  0.00  0.00    +0.000 C 
ATOM      3  O   UNL     1      -0.294  14.610  18.507  0.00  0.00    +0.000 OA
ENDROOT
BRANCH   1   8
ATOM      4  C   UNL     1      -4.034  12.037  19.076  0.00  0.00    +0.000 A 
ATOM      5  C   UNL     1      -3.818  11.000  18.174  0.00  0.00    +0.000 A 
ATOM      6  C   UNL     1      -2.515  10.588  17.930  0.00  0.00    +0.000 A 
ATOM      7  C   UNL     1      -1.440  11.201  18.593  0.00  0.00    +0.000 A 
ATOM      8  C   UNL     1      -1.610  12.297  19.462  0.00  0.00    +0.000 A 
ATOM      9  C   UNL     1      -2.939  12.697  19.669  0.00  0.00    +0.000 A 
BRANCH   4  11
ATOM     10  C   UNL     1      -6.230  11.476  20.312  0.00  0.00    +0.000 C 
ATOM     11  C   UNL     1      -5.406  12.436  19.497  0.00  0.00    +0.000 C 
ATOM     12  O   UNL     1      -5.829  13.552  19.203  0.00  0.00    +0.000 OA
ENDBRANCH   4  11
ENDBRANCH   1   8
BRANCH   2  13
ATOM     13  C   UNL     1       1.470  14.544  19.983  0.00  0.00    +0.000 A 
ATOM     14  C   UNL     1       1.739  15.760  20.593  0.00  0.00    +0.000 A 
ATOM     15  C   UNL     1       3.118  15.778  20.902  0.00  0.00    +0.000 A 
ATOM     16  C   UNL     1       3.623  14.593  20.426  0.00  0.00    +0.000 A 
ATOM     17  O   UNL     1       2.645  13.860  19.833  0.00  0.00    +0.000 OA
ENDBRANCH   2  13
BRANCH   1  18
ATOM     18  C   UNL     1      -0.171  12.636  21.559  0.00  0.00    +0.000 C 
BRANCH  18  19
ATOM     19  C   UNL     1      -0.288  11.171  21.910  0.00  0.00    +0.000 A 
ATOM     20  C   UNL     1      -0.874  10.470  22.951  0.00  0.00    +0.000 A 
ATOM     21  C   UNL     1      -0.455   9.129  22.843  0.00  0.00    +0.000 A 
ATOM     22  C   UNL     1       0.386   9.080  21.758  0.00  0.00    +0.000 A 
ATOM     23  C   UNL     1       1.227   8.000  21.200  0.00  0.00    +0.000 C 
ATOM     24  O   UNL     1       0.466  10.304  21.161  0.00  0.00    +0.000 OA
ENDBRANCH  18  19
BRANCH  18  25
ATOM     25  C   UNL     1      -0.856  13.516  22.643  0.00  0.00    +0.000 C 
ATOM     26  O   UNL     1      -0.260  14.414  23.253  0.00  0.00    +0.000 OA
ATOM     27  N   UNL     1      -2.230  13.371  22.771  0.00  0.00    +0.000 N 
ATOM     28  H   UNL     1      -2.646  12.516  22.429  0.00  0.00    +0.000 HD
BRANCH  27  29
ATOM     29  C   UNL     1      -2.968  14.191  23.732  0.00  0.00    +0.000 C 
ATOM     30  C   UNL     1      -3.628  15.388  23.044  0.00  0.00    +0.000 C 
ATOM     31  C   UNL     1      -4.809  14.981  22.169  0.00  0.00    +0.000 C 
ATOM     32  C   UNL     1      -5.821  14.135  22.937  0.00  0.00    +0.000 C 
ATOM     33  C   UNL     1      -5.169  12.933  23.619  0.00  0.00    +0.000 C 
ATOM     34  C   UNL     1      -3.995  13.353  24.502  0.00  0.00    +0.000 C 
ENDBRANCH  27  29
ENDBRANCH  18  25
ENDBRANCH   1  18
TORSDOF 7
ENDMDL
MODEL 9
REMARK VINA RESULT:      -7.0      2.302      5.893
REMARK  Name = 
REMARK  9 active torsions:
REMARK  status: ('A' for Active; 'I' for Inactive)
REMARK    1  A    between atoms: C_1  and  C_2
REMARK    2  A    between atoms: C_2  and  C_4
REMARK    3  A    between atoms: C_8  and  N_9
REMARK    4  A    between atoms: N_9  and  C_17
REMARK    5  A    between atoms: C_10  and  C_12
REMARK    6  A    between atoms: C_17  and  C_18
REMARK    7  A    between atoms: C_17  and  C_27
REMARK    8  A    between atoms: N_20  and  C_21
REMARK    9  A    between atoms: C_30  and  C_31
REMARK                            x       y       z     vdW  Elec       q    Type
REMARK                         _______ _______ _______ _____ _____    ______ ____
ROOT
ATOM      1  N   UNL     1      -0.864  13.390  20.681  0.00  0.00    +0.000 N 
ATOM      2  C   UNL     1       0.228  14.233  20.296  0.00  0.00    +0.000 C 
ATOM      3  O   UNL     1       1.376  13.792  20.191  0.00  0.00    +0.000 OA
ENDROOT
BRANCH   1   8
ATOM      4  C   UNL     1       0.398   9.820  21.188  0.00  0.00    +0.000 A 
ATOM      5  C   UNL     1      -0.077   9.516  22.459  0.00  0.00    +0.000 A 
ATOM      6  C   UNL     1      -0.827  10.467  23.137  0.00  0.00    +0.000 A 
ATOM      7  C   UNL     1      -1.107  11.707  22.542  0.00  0.00    +0.000 A 
ATOM      8  C   UNL     1      -0.589  12.079  21.286  0.00  0.00    +0.000 A 
ATOM      9  C   UNL     1       0.179  11.100  20.640  0.00  0.00    +0.000 A 
BRANCH   4  11
ATOM     10  C   UNL     1       1.437   7.469  20.945  0.00  0.00    +0.000 C 
ATOM     11  C   UNL     1       1.083   8.801  20.343  0.00  0.00    +0.000 C 
ATOM     12  O   UNL     1       1.317   9.053  19.163  0.00  0.00    +0.000 OA
ENDBRANCH   4  11
ENDBRANCH   1   8
BRANCH   2  13
ATOM     13  C   UNL     1       0.012  15.627  19.921  0.00  0.00    +0.000 A 
ATOM     14  C   UNL     1       0.027  16.760  20.720  0.00  0.00    +0.000 A 
ATOM     15  C   UNL     1      -0.236  17.867  19.881  0.00  0.00    +0.000 A 
ATOM     16  C   UNL     1      -0.439  17.347  18.627  0.00  0.00    +0.000 A 
ATOM     17  O   UNL     1      -0.333  15.992  18.649  0.00  0.00    +0.000 OA
ENDBRANCH   2  13
BRANCH   1  18
ATOM     18  C   UNL     1      -2.259  13.750  20.285  0.00  0.00    +0.000 C 
BRANCH  18  19
ATOM     19  C   UNL     1      -2.962  14.672  21.254  0.00  0.00    +0.000 A 
ATOM     20  C   UNL     1      -3.608  15.891  21.134  0.00  0.00    +0.000 A 
ATOM     21  C   UNL     1      -3.868  16.360  22.437  0.00  0.00    +0.000 A 
ATOM     22  C   UNL     1      -3.347  15.416  23.290  0.00  0.00    +0.000 A 
ATOM     23  C   UNL     1      -3.200  15.380  24.760  0.00  0.00    +0.000 C 
ATOM     24  O   UNL     1      -2.829  14.371  22.586  0.00  0.00    +0.000 OA
ENDBRANCH  18  19
BRANCH  18  25
ATOM     25  C   UNL     1      -3.198  12.587  19.856  0.00  0.00    +0.000 C 
ATOM     26  O   UNL     1      -4.173  12.229  20.530  0.00  0.00    +0.000 OA
ATOM     27  N   UNL     1      -3.002  12.080  18.579  0.00  0.00    +0.000 N 
ATOM     28  H   UNL     1      -2.102  12.233  18.147  0.00  0.00    +0.000 HD
BRANCH  27  29
ATOM     29  C   UNL     1      -3.869  11.017  18.071  0.00  0.00    +0.000 C 
ATOM     30  C   UNL     1      -4.497  11.410  16.732  0.00  0.00    +0.000 C 
ATOM     31  C   UNL     1      -3.485  11.415  15.591  0.00  0.00    +0.000 C 
ATOM     32  C   UNL     1      -2.724  10.096  15.499  0.00  0.00    +0.000 C 
ATOM     33  C   UNL     1      -2.087   9.703  16.830  0.00  0.00    +0.000 C 
ATOM     34  C   UNL     1      -3.111   9.688  17.964  0.00  0.00    +0.000 C 
ENDBRANCH  27  29
ENDBRANCH  18  25
ENDBRANCH   1  18
TORSDOF 7
ENDMDL
