MODEL 1
REMARK VINA RESULT:      -7.0      0.000      0.000
REMARK  Name = 
REMARK  8 active torsions:
REMARK  status: ('A' for Active; 'I' for Inactive)
REMARK    1  A    between atoms: C_1  and  C_2
REMARK    2  A    between atoms: C_2  and  C_3
REMARK    3  A    between atoms: C_3  and  C_4
REMARK    4  A    between atoms: C_4  and  C_6
REMARK    5  A    between atoms: C_9  and  O_10
REMARK    6  A    between atoms: O_10  and  C_11
REMARK    7  A    between atoms: C_12  and  O_13
REMARK    8  A    between atoms: O_13  and  C_14
REMARK                            x       y       z     vdW  Elec       q    Type
REMARK                         _______ _______ _______ _____ _____    ______ ____
ROOT
ATOM      1  C   UNL     1       5.836   4.844  17.887  0.00  0.00    +0.000 A 
ATOM      2  C   UNL     1       5.347   3.980  16.910  0.00  0.00    +0.000 A 
ATOM      3  C   UNL     1       3.980   3.724  16.833  0.00  0.00    +0.000 A 
ATOM      4  C   UNL     1       3.071   4.329  17.711  0.00  0.00    +0.000 A 
ATOM      5  C   UNL     1       3.551   5.210  18.696  0.00  0.00    +0.000 A 
ATOM      6  C   UNL     1       4.930   5.456  18.769  0.00  0.00    +0.000 A 
ENDROOT
BRANCH   1   7
ATOM      7  C   UNL     1       7.293   5.160  18.041  0.00  0.00    +0.000 C 
ATOM      8  O   UNL     1       8.120   4.286  17.782  0.00  0.00    +0.000 OA
BRANCH   7   9
ATOM      9  C   UNL     1       7.707   6.527  18.556  0.00  0.00    +0.000 C 
BRANCH   9  11
ATOM     10  C   UNL     1       8.184   8.924  17.973  0.00  0.00    +0.000 C 
ATOM     11  C   UNL     1       7.618   7.603  17.476  0.00  0.00    +0.000 C 
ENDBRANCH   9  11
ENDBRANCH   7   9
ENDBRANCH   1   7
BRANCH   4  12
ATOM     12  O   UNL     1       1.786   3.932  17.458  0.00  0.00    +0.000 OA
ATOM     13  C   UNL     1       1.161   3.008  18.334  0.00  0.00    +0.000 C 
ENDBRANCH   4  12
BRANCH   5  14
ATOM     14  O   UNL     1       2.653   5.851  19.505  0.00  0.00    +0.000 OA
BRANCH  14  15
ATOM     15  C   UNL     1       2.591   7.287  19.511  0.00  0.00    +0.000 C 
ATOM     16  C   UNL     1       1.554   7.782  20.523  0.00  0.00    +0.000 C 
ATOM     17  C   UNL     1       1.182   9.236  20.286  0.00  0.00    +0.000 C 
ATOM     18  O   UNL     1       0.771   9.439  18.937  0.00  0.00    +0.000 OA
ATOM     19  C   UNL     1       1.829   9.175  18.019  0.00  0.00    +0.000 C 
ATOM     20  C   UNL     1       2.229   7.709  18.085  0.00  0.00    +0.000 C 
ENDBRANCH  14  15
ENDBRANCH   5  14
TORSDOF 6
ENDMDL
MODEL 2
REMARK VINA RESULT:      -6.9      2.285      4.393
REMARK  Name = 
REMARK  8 active torsions:
REMARK  status: ('A' for Active; 'I' for Inactive)
REMARK    1  A    between atoms: C_1  and  C_2
REMARK    2  A    between atoms: C_2  and  C_3
REMARK    3  A    between atoms: C_3  and  C_4
REMARK    4  A    between atoms: C_4  and  C_6
REMARK    5  A    between atoms: C_9  and  O_10
REMARK    6  A    between atoms: O_10  and  C_11
REMARK    7  A    between atoms: C_12  and  O_13
REMARK    8  A    between atoms: O_13  and  C_14
REMARK                            x       y       z     vdW  Elec       q    Type
REMARK                         _______ _______ _______ _____ _____    ______ ____
ROOT
ATOM      1  C   UNL     1       5.831   5.541  16.638  0.00  0.00    +0.000 A 
ATOM      2  C   UNL     1       5.237   6.691  16.126  0.00  0.00    +0.000 A 
ATOM      3  C   UNL     1       4.180   7.289  16.811  0.00  0.00    +0.000 A 
ATOM      4  C   UNL     1       3.703   6.768  18.020  0.00  0.00    +0.000 A 
ATOM      5  C   UNL     1       4.300   5.612  18.552  0.00  0.00    +0.000 A 
ATOM      6  C   UNL     1       5.359   5.014  17.852  0.00  0.00    +0.000 A 
ENDROOT
BRANCH   1   7
ATOM      7  C   UNL     1       6.962   4.835  15.954  0.00  0.00    +0.000 C 
ATOM      8  O   UNL     1       7.864   4.356  16.640  0.00  0.00    +0.000 OA
BRANCH   7   9
ATOM      9  C   UNL     1       6.989   4.772  14.437  0.00  0.00    +0.000 C 
BRANCH   9  11
ATOM     10  C   UNL     1       6.171   3.451  12.463  0.00  0.00    +0.000 C 
ATOM     11  C   UNL     1       5.852   3.922  13.873  0.00  0.00    +0.000 C 
ENDBRANCH   9  11
ENDBRANCH   7   9
ENDBRANCH   1   7
BRANCH   4  12
ATOM     12  O   UNL     1       2.662   7.508  18.512  0.00  0.00    +0.000 OA
ATOM     13  C   UNL     1       2.174   8.604  17.756  0.00  0.00    +0.000 C 
ENDBRANCH   4  12
BRANCH   5  14
ATOM     14  O   UNL     1       3.878   5.147  19.767  0.00  0.00    +0.000 OA
BRANCH  14  15
ATOM     15  C   UNL     1       2.578   4.546  19.892  0.00  0.00    +0.000 C 
ATOM     16  C   UNL     1       2.438   3.829  21.238  0.00  0.00    +0.000 C 
ATOM     17  C   UNL     1       1.258   2.872  21.248  0.00  0.00    +0.000 C 
ATOM     18  O   UNL     1       1.332   1.967  20.150  0.00  0.00    +0.000 OA
ATOM     19  C   UNL     1       1.244   2.647  18.901  0.00  0.00    +0.000 C 
ATOM     20  C   UNL     1       2.437   3.572  18.720  0.00  0.00    +0.000 C 
ENDBRANCH  14  15
ENDBRANCH   5  14
TORSDOF 6
ENDMDL
MODEL 3
REMARK VINA RESULT:      -6.8      2.244      4.503
REMARK  Name = 
REMARK  8 active torsions:
REMARK  status: ('A' for Active; 'I' for Inactive)
REMARK    1  A    between atoms: C_1  and  C_2
REMARK    2  A    between atoms: C_2  and  C_3
REMARK    3  A    between atoms: C_3  and  C_4
REMARK    4  A    between atoms: C_4  and  C_6
REMARK    5  A    between atoms: C_9  and  O_10
REMARK    6  A    between atoms: O_10  and  C_11
REMARK    7  A    between atoms: C_12  and  O_13
REMARK    8  A    between atoms: O_13  and  C_14
REMARK                            x       y       z     vdW  Elec       q    Type
REMARK                         _______ _______ _______ _____ _____    ______ ____
ROOT
ATOM      1  C   UNL     1       5.663   5.091  16.537  0.00  0.00    +0.000 A 
ATOM      2  C   UNL     1       5.479   6.361  17.078  0.00  0.00    +0.000 A 
ATOM      3  C   UNL     1       4.277   6.678  17.709  0.00  0.00    +0.000 A 
ATOM      4  C   UNL     1       3.243   5.741  17.827  0.00  0.00    +0.000 A 
ATOM      5  C   UNL     1       3.420   4.452  17.293  0.00  0.00    +0.000 A 
ATOM      6  C   UNL     1       4.632   4.145  16.655  0.00  0.00    +0.000 A 
ENDROOT
BRANCH   1   7
ATOM      7  C   UNL     1       6.922   4.680  15.835  0.00  0.00    +0.000 C 
ATOM      8  O   UNL     1       7.888   4.325  16.509  0.00  0.00    +0.000 OA
BRANCH   7   9
ATOM      9  C   UNL     1       6.985   4.758  14.319  0.00  0.00    +0.000 C 
BRANCH   9  11
ATOM     10  C   UNL     1       6.381   3.445  12.265  0.00  0.00    +0.000 C 
ATOM     11  C   UNL     1       5.930   3.879  13.650  0.00  0.00    +0.000 C 
ENDBRANCH   9  11
ENDBRANCH   7   9
ENDBRANCH   1   7
BRANCH   4  12
ATOM     12  O   UNL     1       2.158   6.266  18.475  0.00  0.00    +0.000 OA
ATOM     13  C   UNL     1       2.314   6.769  19.792  0.00  0.00    +0.000 C 
ENDBRANCH   4  12
BRANCH   5  14
ATOM     14  O   UNL     1       2.436   3.519  17.472  0.00  0.00    +0.000 OA
BRANCH  14  15
ATOM     15  C   UNL     1       2.377   2.763  18.693  0.00  0.00    +0.000 C 
ATOM     16  C   UNL     1       1.181   3.197  19.544  0.00  0.00    +0.000 C 
ATOM     17  C   UNL     1       1.304   2.716  20.981  0.00  0.00    +0.000 C 
ATOM     18  O   UNL     1       2.551   3.118  21.542  0.00  0.00    +0.000 OA
ATOM     19  C   UNL     1       3.652   2.525  20.858  0.00  0.00    +0.000 C 
ATOM     20  C   UNL     1       3.702   3.012  19.419  0.00  0.00    +0.000 C 
ENDBRANCH  14  15
ENDBRANCH   5  14
TORSDOF 6
ENDMDL
MODEL 4
REMARK VINA RESULT:      -6.8      2.322      4.563
REMARK  Name = 
REMARK  8 active torsions:
REMARK  status: ('A' for Active; 'I' for Inactive)
REMARK    1  A    between atoms: C_1  and  C_2
REMARK    2  A    between atoms: C_2  and  C_3
REMARK    3  A    between atoms: C_3  and  C_4
REMARK    4  A    between atoms: C_4  and  C_6
REMARK    5  A    between atoms: C_9  and  O_10
REMARK    6  A    between atoms: O_10  and  C_11
REMARK    7  A    between atoms: C_12  and  O_13
REMARK    8  A    between atoms: O_13  and  C_14
REMARK                            x       y       z     vdW  Elec       q    Type
REMARK                         _______ _______ _______ _____ _____    ______ ____
ROOT
ATOM      1  C   UNL     1       5.545   5.654  16.395  0.00  0.00    +0.000 A 
ATOM      2  C   UNL     1       4.929   6.852  16.040  0.00  0.00    +0.000 A 
ATOM      3  C   UNL     1       3.963   7.409  16.876  0.00  0.00    +0.000 A 
ATOM      4  C   UNL     1       3.601   6.800  18.085  0.00  0.00    +0.000 A 
ATOM      5  C   UNL     1       4.223   5.596  18.459  0.00  0.00    +0.000 A 
ATOM      6  C   UNL     1       5.189   5.040  17.607  0.00  0.00    +0.000 A 
ENDROOT
BRANCH   1   7
ATOM      7  C   UNL     1       6.582   4.987  15.543  0.00  0.00    +0.000 C 
ATOM      8  O   UNL     1       7.676   5.533  15.406  0.00  0.00    +0.000 OA
BRANCH   7   9
ATOM      9  C   UNL     1       6.239   3.687  14.837  0.00  0.00    +0.000 C 
BRANCH   9  11
ATOM     10  C   UNL     1       6.427   3.545  12.336  0.00  0.00    +0.000 C 
ATOM     11  C   UNL     1       5.531   3.923  13.505  0.00  0.00    +0.000 C 
ENDBRANCH   9  11
ENDBRANCH   7   9
ENDBRANCH   1   7
BRANCH   4  12
ATOM     12  O   UNL     1       2.636   7.515  18.740  0.00  0.00    +0.000 OA
ATOM     13  C   UNL     1       2.019   8.610  18.082  0.00  0.00    +0.000 C 
ENDBRANCH   4  12
BRANCH   5  14
ATOM     14  O   UNL     1       3.917   5.042  19.672  0.00  0.00    +0.000 OA
BRANCH  14  15
ATOM     15  C   UNL     1       3.151   3.827  19.732  0.00  0.00    +0.000 C 
ATOM     16  C   UNL     1       2.176   3.740  18.555  0.00  0.00    +0.000 C 
ATOM     17  C   UNL     1       1.099   2.694  18.788  0.00  0.00    +0.000 C 
ATOM     18  O   UNL     1       0.439   2.916  20.032  0.00  0.00    +0.000 OA
ATOM     19  C   UNL     1       1.333   2.779  21.134  0.00  0.00    +0.000 C 
ATOM     20  C   UNL     1       2.413   3.848  21.073  0.00  0.00    +0.000 C 
ENDBRANCH  14  15
ENDBRANCH   5  14
TORSDOF 6
ENDMDL
MODEL 5
REMARK VINA RESULT:      -6.8      2.462      4.782
REMARK  Name = 
REMARK  8 active torsions:
REMARK  status: ('A' for Active; 'I' for Inactive)
REMARK    1  A    between atoms: C_1  and  C_2
REMARK    2  A    between atoms: C_2  and  C_3
REMARK    3  A    between atoms: C_3  and  C_4
REMARK    4  A    between atoms: C_4  and  C_6
REMARK    5  A    between atoms: C_9  and  O_10
REMARK    6  A    between atoms: O_10  and  C_11
REMARK    7  A    between atoms: C_12  and  O_13
REMARK    8  A    between atoms: O_13  and  C_14
REMARK                            x       y       z     vdW  Elec       q    Type
REMARK                         _______ _______ _______ _____ _____    ______ ____
ROOT
ATOM      1  C   UNL     1       5.502   5.292  16.318  0.00  0.00    +0.000 A 
ATOM      2  C   UNL     1       4.877   6.528  16.465  0.00  0.00    +0.000 A 
ATOM      3  C   UNL     1       4.128   6.794  17.609  0.00  0.00    +0.000 A 
ATOM      4  C   UNL     1       3.996   5.849  18.635  0.00  0.00    +0.000 A 
ATOM      5  C   UNL     1       4.629   4.601  18.503  0.00  0.00    +0.000 A 
ATOM      6  C   UNL     1       5.376   4.340  17.344  0.00  0.00    +0.000 A 
ENDROOT
BRANCH   1   7
ATOM      7  C   UNL     1       6.313   4.927  15.112  0.00  0.00    +0.000 C 
ATOM      8  O   UNL     1       7.538   4.885  15.212  0.00  0.00    +0.000 OA
BRANCH   7   9
ATOM      9  C   UNL     1       5.606   4.666  13.793  0.00  0.00    +0.000 C 
BRANCH   9  11
ATOM     10  C   UNL     1       5.361   3.104  11.842  0.00  0.00    +0.000 C 
ATOM     11  C   UNL     1       6.230   3.504  13.022  0.00  0.00    +0.000 C 
ENDBRANCH   9  11
ENDBRANCH   7   9
ENDBRANCH   1   7
BRANCH   4  12
ATOM     12  O   UNL     1       3.216   6.320  19.656  0.00  0.00    +0.000 OA
ATOM     13  C   UNL     1       2.286   7.359  19.396  0.00  0.00    +0.000 C 
ENDBRANCH   4  12
BRANCH   5  14
ATOM     14  O   UNL     1       4.555   3.708  19.537  0.00  0.00    +0.000 OA
BRANCH  14  15
ATOM     15  C   UNL     1       3.411   2.847  19.660  0.00  0.00    +0.000 C 
ATOM     16  C   UNL     1       2.487   2.995  18.447  0.00  0.00    +0.000 C 
ATOM     17  C   UNL     1       1.108   2.415  18.714  0.00  0.00    +0.000 C 
ATOM     18  O   UNL     1       0.547   2.970  19.901  0.00  0.00    +0.000 OA
ATOM     19  C   UNL     1       1.317   2.635  21.053  0.00  0.00    +0.000 C 
ATOM     20  C   UNL     1       2.704   3.250  20.956  0.00  0.00    +0.000 C 
ENDBRANCH  14  15
ENDBRANCH   5  14
TORSDOF 6
ENDMDL
MODEL 6
REMARK VINA RESULT:      -6.8      2.724      4.888
REMARK  Name = 
REMARK  8 active torsions:
REMARK  status: ('A' for Active; 'I' for Inactive)
REMARK    1  A    between atoms: C_1  and  C_2
REMARK    2  A    between atoms: C_2  and  C_3
REMARK    3  A    between atoms: C_3  and  C_4
REMARK    4  A    between atoms: C_4  and  C_6
REMARK    5  A    between atoms: C_9  and  O_10
REMARK    6  A    between atoms: O_10  and  C_11
REMARK    7  A    between atoms: C_12  and  O_13
REMARK    8  A    between atoms: O_13  and  C_14
REMARK                            x       y       z     vdW  Elec       q    Type
REMARK                         _______ _______ _______ _____ _____    ______ ____
ROOT
ATOM      1  C   UNL     1       5.530   5.358  15.793  0.00  0.00    +0.000 A 
ATOM      2  C   UNL     1       5.469   6.702  16.151  0.00  0.00    +0.000 A 
ATOM      3  C   UNL     1       4.503   7.134  17.058  0.00  0.00    +0.000 A 
ATOM      4  C   UNL     1       3.591   6.243  17.637  0.00  0.00    +0.000 A 
ATOM      5  C   UNL     1       3.649   4.881  17.291  0.00  0.00    +0.000 A 
ATOM      6  C   UNL     1       4.621   4.458  16.371  0.00  0.00    +0.000 A 
ENDROOT
BRANCH   1   7
ATOM      7  C   UNL     1       6.532   4.819  14.816  0.00  0.00    +0.000 C 
ATOM      8  O   UNL     1       7.548   5.473  14.589  0.00  0.00    +0.000 OA
BRANCH   7   9
ATOM      9  C   UNL     1       6.242   3.511  14.100  0.00  0.00    +0.000 C 
BRANCH   9  11
ATOM     10  C   UNL     1       4.934   3.372  11.960  0.00  0.00    +0.000 C 
ATOM     11  C   UNL     1       6.292   3.660  12.581  0.00  0.00    +0.000 C 
ENDBRANCH   9  11
ENDBRANCH   7   9
ENDBRANCH   1   7
BRANCH   4  12
ATOM     12  O   UNL     1       2.734   6.882  18.491  0.00  0.00    +0.000 OA
ATOM     13  C   UNL     1       2.329   8.210  18.200  0.00  0.00    +0.000 C 
ENDBRANCH   4  12
BRANCH   5  14
ATOM     14  O   UNL     1       2.802   4.004  17.910  0.00  0.00    +0.000 OA
BRANCH  14  15
ATOM     15  C   UNL     1       2.821   3.878  19.342  0.00  0.00    +0.000 C 
ATOM     16  C   UNL     1       3.621   2.644  19.769  0.00  0.00    +0.000 C 
ATOM     17  C   UNL     1       3.343   2.261  21.213  0.00  0.00    +0.000 C 
ATOM     18  O   UNL     1       1.943   2.111  21.434  0.00  0.00    +0.000 OA
ATOM     19  C   UNL     1       1.244   3.336  21.236  0.00  0.00    +0.000 C 
ATOM     20  C   UNL     1       1.359   3.780  19.786  0.00  0.00    +0.000 C 
ENDBRANCH  14  15
ENDBRANCH   5  14
TORSDOF 6
ENDMDL
MODEL 7
REMARK VINA RESULT:      -6.8      1.200      1.295
REMARK  Name = 
REMARK  8 active torsions:
REMARK  status: ('A' for Active; 'I' for Inactive)
REMARK    1  A    between atoms: C_1  and  C_2
REMARK    2  A    between atoms: C_2  and  C_3
REMARK    3  A    between atoms: C_3  and  C_4
REMARK    4  A    between atoms: C_4  and  C_6
REMARK    5  A    between atoms: C_9  and  O_10
REMARK    6  A    between atoms: O_10  and  C_11
REMARK    7  A    between atoms: C_12  and  O_13
REMARK    8  A    between atoms: O_13  and  C_14
REMARK                            x       y       z     vdW  Elec       q    Type
REMARK                         _______ _______ _______ _____ _____    ______ ____
ROOT
ATOM      1  C   UNL     1       5.834   5.713  17.458  0.00  0.00    +0.000 A 
ATOM      2  C   UNL     1       5.725   4.338  17.652  0.00  0.00    +0.000 A 
ATOM      3  C   UNL     1       4.495   3.782  17.995  0.00  0.00    +0.000 A 
ATOM      4  C   UNL     1       3.348   4.573  18.138  0.00  0.00    +0.000 A 
ATOM      5  C   UNL     1       3.442   5.961  17.936  0.00  0.00    +0.000 A 
ATOM      6  C   UNL     1       4.687   6.512  17.597  0.00  0.00    +0.000 A 
ENDROOT
BRANCH   1   7
ATOM      7  C   UNL     1       7.124   6.386  17.100  0.00  0.00    +0.000 C 
ATOM      8  O   UNL     1       7.599   6.201  15.980  0.00  0.00    +0.000 OA
BRANCH   7   9
ATOM      9  C   UNL     1       7.832   7.237  18.140  0.00  0.00    +0.000 C 
BRANCH   9  11
ATOM     10  C   UNL     1       8.788   9.494  18.690  0.00  0.00    +0.000 C 
ATOM     11  C   UNL     1       7.911   8.706  17.730  0.00  0.00    +0.000 C 
ENDBRANCH   9  11
ENDBRANCH   7   9
ENDBRANCH   1   7
BRANCH   4  12
ATOM     12  O   UNL     1       2.257   3.821  18.481  0.00  0.00    +0.000 OA
ATOM     13  C   UNL     1       2.361   2.407  18.478  0.00  0.00    +0.000 C 
ENDBRANCH   4  12
BRANCH   5  14
ATOM     14  O   UNL     1       2.306   6.720  18.008  0.00  0.00    +0.000 OA
BRANCH  14  15
ATOM     15  C   UNL     1       2.301   7.931  18.783  0.00  0.00    +0.000 C 
ATOM     16  C   UNL     1       1.670   7.694  20.158  0.00  0.00    +0.000 C 
ATOM     17  C   UNL     1       1.294   8.999  20.839  0.00  0.00    +0.000 C 
ATOM     18  O   UNL     1       0.473   9.795  19.989  0.00  0.00    +0.000 OA
ATOM     19  C   UNL     1       1.163  10.183  18.804  0.00  0.00    +0.000 C 
ATOM     20  C   UNL     1       1.509   8.959  17.971  0.00  0.00    +0.000 C 
ENDBRANCH  14  15
ENDBRANCH   5  14
TORSDOF 6
ENDMDL
MODEL 8
REMARK VINA RESULT:      -6.7      3.120      5.628
REMARK  Name = 
REMARK  8 active torsions:
REMARK  status: ('A' for Active; 'I' for Inactive)
REMARK    1  A    between atoms: C_1  and  C_2
REMARK    2  A    between atoms: C_2  and  C_3
REMARK    3  A    between atoms: C_3  and  C_4
REMARK    4  A    between atoms: C_4  and  C_6
REMARK    5  A    between atoms: C_9  and  O_10
REMARK    6  A    between atoms: O_10  and  C_11
REMARK    7  A    between atoms: C_12  and  O_13
REMARK    8  A    between atoms: O_13  and  C_14
REMARK                            x       y       z     vdW  Elec       q    Type
REMARK                         _______ _______ _______ _____ _____    ______ ____
ROOT
ATOM      1  C   UNL     1       6.044   4.390  14.530  0.00  0.00    +0.000 A 
ATOM      2  C   UNL     1       7.252   4.783  15.101  0.00  0.00    +0.000 A 
ATOM      3  C   UNL     1       7.274   5.277  16.404  0.00  0.00    +0.000 A 
ATOM      4  C   UNL     1       6.106   5.377  17.170  0.00  0.00    +0.000 A 
ATOM      5  C   UNL     1       4.882   4.974  16.608  0.00  0.00    +0.000 A 
ATOM      6  C   UNL     1       4.869   4.484  15.293  0.00  0.00    +0.000 A 
ENDROOT
BRANCH   1   7
ATOM      7  C   UNL     1       5.938   3.860  13.132  0.00  0.00    +0.000 C 
ATOM      8  O   UNL     1       6.910   3.962  12.385  0.00  0.00    +0.000 OA
BRANCH   7   9
ATOM      9  C   UNL     1       4.624   3.259  12.664  0.00  0.00    +0.000 C 
BRANCH   9  11
ATOM     10  C   UNL     1       3.445   3.616  10.475  0.00  0.00    +0.000 C 
ATOM     11  C   UNL     1       4.628   2.958  11.166  0.00  0.00    +0.000 C 
ENDBRANCH   9  11
ENDBRANCH   7   9
ENDBRANCH   1   7
BRANCH   4  12
ATOM     12  O   UNL     1       6.360   5.890  18.413  0.00  0.00    +0.000 OA
ATOM     13  C   UNL     1       7.687   5.874  18.911  0.00  0.00    +0.000 C 
ENDBRANCH   4  12
BRANCH   5  14
ATOM     14  O   UNL     1       3.754   5.007  17.383  0.00  0.00    +0.000 OA
BRANCH  14  15
ATOM     15  C   UNL     1       3.207   3.786  17.907  0.00  0.00    +0.000 C 
ATOM     16  C   UNL     1       1.679   3.789  17.809  0.00  0.00    +0.000 C 
ATOM     17  C   UNL     1       1.054   2.718  18.689  0.00  0.00    +0.000 C 
ATOM     18  O   UNL     1       1.518   2.833  20.031  0.00  0.00    +0.000 OA
ATOM     19  C   UNL     1       2.923   2.613  20.123  0.00  0.00    +0.000 C 
ATOM     20  C   UNL     1       3.677   3.691  19.361  0.00  0.00    +0.000 C 
ENDBRANCH  14  15
ENDBRANCH   5  14
TORSDOF 6
ENDMDL
MODEL 9
REMARK VINA RESULT:      -6.7      1.797      5.887
REMARK  Name = 
REMARK  8 active torsions:
REMARK  status: ('A' for Active; 'I' for Inactive)
REMARK    1  A    between atoms: C_1  and  C_2
REMARK    2  A    between atoms: C_2  and  C_3
REMARK    3  A    between atoms: C_3  and  C_4
REMARK    4  A    between atoms: C_4  and  C_6
REMARK    5  A    between atoms: C_9  and  O_10
REMARK    6  A    between atoms: O_10  and  C_11
REMARK    7  A    between atoms: C_12  and  O_13
REMARK    8  A    between atoms: O_13  and  C_14
REMARK                            x       y       z     vdW  Elec       q    Type
REMARK                         _______ _______ _______ _____ _____    ______ ____
ROOT
ATOM      1  C   UNL     1       2.128   6.692  19.574  0.00  0.00    +0.000 A 
ATOM      2  C   UNL     1       1.896   5.788  20.608  0.00  0.00    +0.000 A 
ATOM      3  C   UNL     1       2.265   4.453  20.456  0.00  0.00    +0.000 A 
ATOM      4  C   UNL     1       2.880   3.991  19.286  0.00  0.00    +0.000 A 
ATOM      5  C   UNL     1       3.128   4.896  18.239  0.00  0.00    +0.000 A 
ATOM      6  C   UNL     1       2.748   6.237  18.399  0.00  0.00    +0.000 A 
ENDROOT
BRANCH   1   7
ATOM      7  C   UNL     1       1.750   8.140  19.658  0.00  0.00    +0.000 C 
ATOM      8  O   UNL     1       1.404   8.600  20.745  0.00  0.00    +0.000 OA
BRANCH   7   9
ATOM      9  C   UNL     1       1.757   8.984  18.395  0.00  0.00    +0.000 C 
BRANCH   9  11
ATOM     10  C   UNL     1      -0.436  10.189  18.176  0.00  0.00    +0.000 C 
ATOM     11  C   UNL     1       1.024  10.311  18.582  0.00  0.00    +0.000 C 
ENDBRANCH   9  11
ENDBRANCH   7   9
ENDBRANCH   1   7
BRANCH   4  12
ATOM     12  O   UNL     1       3.149   2.651  19.352  0.00  0.00    +0.000 OA
ATOM     13  C   UNL     1       4.307   2.210  20.042  0.00  0.00    +0.000 C 
ENDBRANCH   4  12
BRANCH   5  14
ATOM     14  O   UNL     1       3.792   4.456  17.126  0.00  0.00    +0.000 OA
BRANCH  14  15
ATOM     15  C   UNL     1       5.043   5.058  16.753  0.00  0.00    +0.000 C 
ATOM     16  C   UNL     1       5.526   4.515  15.405  0.00  0.00    +0.000 C 
ATOM     17  C   UNL     1       6.996   4.819  15.167  0.00  0.00    +0.000 C 
ATOM     18  O   UNL     1       7.789   4.362  16.259  0.00  0.00    +0.000 OA
ATOM     19  C   UNL     1       7.463   5.041  17.468  0.00  0.00    +0.000 C 
ATOM     20  C   UNL     1       6.031   4.733  17.876  0.00  0.00    +0.000 C 
ENDBRANCH  14  15
ENDBRANCH   5  14
TORSDOF 6
ENDMDL
