MODEL 1
REMARK VINA RESULT:      -8.6      0.000      0.000
REMARK  Name = 
REMARK  10 active torsions:
REMARK  status: ('A' for Active; 'I' for Inactive)
REMARK    1  A    between atoms: C_1  and  O_2
REMARK    2  A    between atoms: O_2  and  C_3
REMARK    3  A    between atoms: C_6  and  N_7
REMARK    4  A    between atoms: C_8  and  C_10
REMARK    5  A    between atoms: C_10  and  C_11
REMARK    6  A    between atoms: C_11  and  N_12
REMARK    7  A    between atoms: N_12  and  S_13
REMARK    8  A    between atoms: S_13  and  C_16
REMARK    9  A    between atoms: C_23  and  C_24
REMARK   10  A    between atoms: C_26  and  C_27
REMARK                            x       y       z     vdW  Elec       q    Type
REMARK                         _______ _______ _______ _____ _____    ______ ____
ROOT
ATOM      1  N   UNL     1       2.375   5.787  20.917  0.00  0.00    +0.000 NA
ATOM      2  H   UNL     1       2.182   5.914  21.912  0.00  0.00    +0.000 HD
ENDROOT
BRANCH   1   3
ATOM      3  S   UNL     1       2.091   4.135  20.502  0.00  0.00    +0.000 S 
ATOM      4  O   UNL     1       2.371   3.366  21.686  0.00  0.00    +0.000 OA
ATOM      5  O   UNL     1       0.822   4.062  19.816  0.00  0.00    +0.000 OA
BRANCH   3   6
ATOM      6  C   UNL     1       3.401   3.849  19.331  0.00  0.00    +0.000 A 
ATOM      7  C   UNL     1       3.110   3.455  18.005  0.00  0.00    +0.000 A 
ATOM      8  C   UNL     1       4.028   3.719  16.974  0.00  0.00    +0.000 A 
ATOM      9  C   UNL     1       5.197   4.368  17.330  0.00  0.00    +0.000 A 
ATOM     10  C   UNL     1       5.562   4.509  18.685  0.00  0.00    +0.000 A 
ATOM     11  C   UNL     1       4.668   4.283  19.704  0.00  0.00    +0.000 A 
ATOM     12  C   UNL     1       6.850   5.276  18.788  0.00  0.00    +0.000 C 
ATOM     13  C   UNL     1       6.527   6.212  17.636  0.00  0.00    +0.000 C 
ATOM     14  C   UNL     1       7.545   7.300  17.380  0.00  0.00    +0.000 C 
ATOM     15  N   UNL     1       6.012   5.277  16.587  0.00  0.00    +0.000 N 
ATOM     16  C   UNL     1       6.597   5.057  15.360  0.00  0.00    +0.000 C 
ATOM     17  C   UNL     1       5.925   4.116  14.398  0.00  0.00    +0.000 C 
ATOM     18  O   UNL     1       7.648   5.606  15.024  0.00  0.00    +0.000 OA
ENDBRANCH   3   6
ENDBRANCH   1   3
BRANCH   1  19
ATOM     19  C   UNL     1       1.772   6.761  19.986  0.00  0.00    +0.000 C 
BRANCH  19  20
ATOM     20  C   UNL     1       2.678   7.170  18.818  0.00  0.00    +0.000 C 
BRANCH  20  22
ATOM     21  N   UNL     1       1.444   9.263  19.248  0.00  0.00    +0.000 N 
ATOM     22  C   UNL     1       2.115   8.490  18.308  0.00  0.00    +0.000 C 
ATOM     23  O   UNL     1       2.299   8.815  17.142  0.00  0.00    +0.000 OA
ATOM     24  H   UNL     1       1.470   8.977  20.219  0.00  0.00    +0.000 HD
BRANCH  21  28
ATOM     25  C   UNL     1      -0.194  13.125  18.605  0.00  0.00    +0.000 A 
ATOM     26  C   UNL     1       1.177  12.972  18.775  0.00  0.00    +0.000 A 
ATOM     27  C   UNL     1       1.731  11.703  18.940  0.00  0.00    +0.000 A 
ATOM     28  C   UNL     1       0.929  10.557  18.977  0.00  0.00    +0.000 A 
ATOM     29  C   UNL     1      -0.442  10.708  18.773  0.00  0.00    +0.000 A 
ATOM     30  C   UNL     1      -1.006  11.985  18.603  0.00  0.00    +0.000 A 
BRANCH  25  32
ATOM     31  C   UNL     1       0.070  15.360  19.315  0.00  0.00    +0.000 C 
ATOM     32  O   UNL     1      -0.609  14.420  18.496  0.00  0.00    +0.000 OA
ENDBRANCH  25  32
ENDBRANCH  21  28
ENDBRANCH  20  22
ENDBRANCH  19  20
ENDBRANCH   1  19
TORSDOF 7
ENDMDL
MODEL 2
REMARK VINA RESULT:      -8.4      1.044      1.378
REMARK  Name = 
REMARK  10 active torsions:
REMARK  status: ('A' for Active; 'I' for Inactive)
REMARK    1  A    between atoms: C_1  and  O_2
REMARK    2  A    between atoms: O_2  and  C_3
REMARK    3  A    between atoms: C_6  and  N_7
REMARK    4  A    between atoms: C_8  and  C_10
REMARK    5  A    between atoms: C_10  and  C_11
REMARK    6  A    between atoms: C_11  and  N_12
REMARK    7  A    between atoms: N_12  and  S_13
REMARK    8  A    between atoms: S_13  and  C_16
REMARK    9  A    between atoms: C_23  and  C_24
REMARK   10  A    between atoms: C_26  and  C_27
REMARK                            x       y       z     vdW  Elec       q    Type
REMARK                         _______ _______ _______ _____ _____    ______ ____
ROOT
ATOM      1  N   UNL     1       1.411   5.595  19.674  0.00  0.00    +0.000 NA
ATOM      2  H   UNL     1       0.941   5.450  18.779  0.00  0.00    +0.000 HD
ENDROOT
BRANCH   1   3
ATOM      3  S   UNL     1       1.997   4.075  20.247  0.00  0.00    +0.000 S 
ATOM      4  O   UNL     1       2.535   4.317  21.560  0.00  0.00    +0.000 OA
ATOM      5  O   UNL     1       0.976   3.084  20.002  0.00  0.00    +0.000 OA
BRANCH   3   6
ATOM      6  C   UNL     1       3.358   3.795  19.134  0.00  0.00    +0.000 A 
ATOM      7  C   UNL     1       3.126   3.392  17.798  0.00  0.00    +0.000 A 
ATOM      8  C   UNL     1       4.084   3.660  16.805  0.00  0.00    +0.000 A 
ATOM      9  C   UNL     1       5.231   4.320  17.206  0.00  0.00    +0.000 A 
ATOM     10  C   UNL     1       5.538   4.470  18.575  0.00  0.00    +0.000 A 
ATOM     11  C   UNL     1       4.605   4.241  19.557  0.00  0.00    +0.000 A 
ATOM     12  C   UNL     1       6.815   5.248  18.727  0.00  0.00    +0.000 C 
ATOM     13  C   UNL     1       6.532   6.176  17.558  0.00  0.00    +0.000 C 
ATOM     14  C   UNL     1       7.551   7.271  17.340  0.00  0.00    +0.000 C 
ATOM     15  N   UNL     1       6.069   5.232  16.493  0.00  0.00    +0.000 N 
ATOM     16  C   UNL     1       6.706   5.012  15.293  0.00  0.00    +0.000 C 
ATOM     17  C   UNL     1       6.083   4.061  14.308  0.00  0.00    +0.000 C 
ATOM     18  O   UNL     1       7.766   5.567  14.998  0.00  0.00    +0.000 OA
ENDBRANCH   3   6
ENDBRANCH   1   3
BRANCH   1  19
ATOM     19  C   UNL     1       2.395   6.694  19.747  0.00  0.00    +0.000 C 
BRANCH  19  20
ATOM     20  C   UNL     1       2.710   7.356  18.400  0.00  0.00    +0.000 C 
BRANCH  20  22
ATOM     21  N   UNL     1       1.170   8.917  19.533  0.00  0.00    +0.000 N 
ATOM     22  C   UNL     1       1.922   8.660  18.393  0.00  0.00    +0.000 C 
ATOM     23  O   UNL     1       2.006   9.411  17.431  0.00  0.00    +0.000 OA
ATOM     24  H   UNL     1       1.279   8.306  20.334  0.00  0.00    +0.000 HD
BRANCH  21  28
ATOM     25  C   UNL     1      -0.878  12.600  20.036  0.00  0.00    +0.000 A 
ATOM     26  C   UNL     1      -1.513  11.532  19.412  0.00  0.00    +0.000 A 
ATOM     27  C   UNL     1      -0.866  10.303  19.284  0.00  0.00    +0.000 A 
ATOM     28  C   UNL     1       0.444  10.117  19.740  0.00  0.00    +0.000 A 
ATOM     29  C   UNL     1       1.067  11.179  20.395  0.00  0.00    +0.000 A 
ATOM     30  C   UNL     1       0.420  12.420  20.530  0.00  0.00    +0.000 A 
BRANCH  25  32
ATOM     31  C   UNL     1      -2.843  13.694  20.747  0.00  0.00    +0.000 C 
ATOM     32  O   UNL     1      -1.604  13.754  20.058  0.00  0.00    +0.000 OA
ENDBRANCH  25  32
ENDBRANCH  21  28
ENDBRANCH  20  22
ENDBRANCH  19  20
ENDBRANCH   1  19
TORSDOF 7
ENDMDL
MODEL 3
REMARK VINA RESULT:      -8.3      0.887      1.235
REMARK  Name = 
REMARK  10 active torsions:
REMARK  status: ('A' for Active; 'I' for Inactive)
REMARK    1  A    between atoms: C_1  and  O_2
REMARK    2  A    between atoms: O_2  and  C_3
REMARK    3  A    between atoms: C_6  and  N_7
REMARK    4  A    between atoms: C_8  and  C_10
REMARK    5  A    between atoms: C_10  and  C_11
REMARK    6  A    between atoms: C_11  and  N_12
REMARK    7  A    between atoms: N_12  and  S_13
REMARK    8  A    between atoms: S_13  and  C_16
REMARK    9  A    between atoms: C_23  and  C_24
REMARK   10  A    between atoms: C_26  and  C_27
REMARK                            x       y       z     vdW  Elec       q    Type
REMARK                         _______ _______ _______ _____ _____    ______ ____
ROOT
ATOM      1  N   UNL     1       2.491   5.188  21.084  0.00  0.00    +0.000 NA
ATOM      2  H   UNL     1       2.581   5.119  22.099  0.00  0.00    +0.000 HD
ENDROOT
BRANCH   1   3
ATOM      3  S   UNL     1       2.178   3.615  20.445  0.00  0.00    +0.000 S 
ATOM      4  O   UNL     1       2.448   2.685  21.509  0.00  0.00    +0.000 OA
ATOM      5  O   UNL     1       0.906   3.659  19.761  0.00  0.00    +0.000 OA
BRANCH   3   6
ATOM      6  C   UNL     1       3.480   3.473  19.240  0.00  0.00    +0.000 A 
ATOM      7  C   UNL     1       3.188   3.141  17.897  0.00  0.00    +0.000 A 
ATOM      8  C   UNL     1       4.070   3.517  16.870  0.00  0.00    +0.000 A 
ATOM      9  C   UNL     1       5.208   4.209  17.246  0.00  0.00    +0.000 A 
ATOM     10  C   UNL     1       5.589   4.291  18.601  0.00  0.00    +0.000 A 
ATOM     11  C   UNL     1       4.728   3.955  19.619  0.00  0.00    +0.000 A 
ATOM     12  C   UNL     1       6.835   5.122  18.731  0.00  0.00    +0.000 C 
ATOM     13  C   UNL     1       6.438   6.103  17.641  0.00  0.00    +0.000 C 
ATOM     14  C   UNL     1       7.389   7.260  17.435  0.00  0.00    +0.000 C 
ATOM     15  N   UNL     1       5.957   5.204  16.546  0.00  0.00    +0.000 N 
ATOM     16  C   UNL     1       6.530   5.090  15.300  0.00  0.00    +0.000 C 
ATOM     17  C   UNL     1       5.895   4.171  14.293  0.00  0.00    +0.000 C 
ATOM     18  O   UNL     1       7.544   5.716  14.981  0.00  0.00    +0.000 OA
ENDBRANCH   3   6
ENDBRANCH   1   3
BRANCH   1  19
ATOM     19  C   UNL     1       1.606   6.247  20.559  0.00  0.00    +0.000 C 
BRANCH  19  20
ATOM     20  C   UNL     1       2.233   7.113  19.459  0.00  0.00    +0.000 C 
BRANCH  20  22
ATOM     21  N   UNL     1       1.725   9.384  18.638  0.00  0.00    +0.000 N 
ATOM     22  C   UNL     1       1.755   8.532  19.736  0.00  0.00    +0.000 C 
ATOM     23  O   UNL     1       1.403   8.841  20.867  0.00  0.00    +0.000 OA
ATOM     24  H   UNL     1       1.897   8.997  17.719  0.00  0.00    +0.000 HD
BRANCH  21  28
ATOM     25  C   UNL     1       0.283  13.376  18.601  0.00  0.00    +0.000 A 
ATOM     26  C   UNL     1      -0.590  12.325  18.859  0.00  0.00    +0.000 A 
ATOM     27  C   UNL     1      -0.118  11.014  18.920  0.00  0.00    +0.000 A 
ATOM     28  C   UNL     1       1.229  10.712  18.689  0.00  0.00    +0.000 A 
ATOM     29  C   UNL     1       2.110  11.770  18.463  0.00  0.00    +0.000 A 
ATOM     30  C   UNL     1       1.640  13.094  18.403  0.00  0.00    +0.000 A 
BRANCH  25  32
ATOM     31  C   UNL     1      -0.861  15.097  19.739  0.00  0.00    +0.000 C 
ATOM     32  O   UNL     1      -0.313  14.600  18.527  0.00  0.00    +0.000 OA
ENDBRANCH  25  32
ENDBRANCH  21  28
ENDBRANCH  20  22
ENDBRANCH  19  20
ENDBRANCH   1  19
TORSDOF 7
ENDMDL
MODEL 4
REMARK VINA RESULT:      -8.2      4.307      7.127
REMARK  Name = 
REMARK  10 active torsions:
REMARK  status: ('A' for Active; 'I' for Inactive)
REMARK    1  A    between atoms: C_1  and  O_2
REMARK    2  A    between atoms: O_2  and  C_3
REMARK    3  A    between atoms: C_6  and  N_7
REMARK    4  A    between atoms: C_8  and  C_10
REMARK    5  A    between atoms: C_10  and  C_11
REMARK    6  A    between atoms: C_11  and  N_12
REMARK    7  A    between atoms: N_12  and  S_13
REMARK    8  A    between atoms: S_13  and  C_16
REMARK    9  A    between atoms: C_23  and  C_24
REMARK   10  A    between atoms: C_26  and  C_27
REMARK                            x       y       z     vdW  Elec       q    Type
REMARK                         _______ _______ _______ _____ _____    ______ ____
ROOT
ATOM      1  N   UNL     1       7.252   6.687  16.418  0.00  0.00    +0.000 NA
ATOM      2  H   UNL     1       8.072   7.073  15.946  0.00  0.00    +0.000 HD
ENDROOT
BRANCH   1   3
ATOM      3  S   UNL     1       7.187   4.988  16.120  0.00  0.00    +0.000 S 
ATOM      4  O   UNL     1       7.398   4.816  14.706  0.00  0.00    +0.000 OA
ATOM      5  O   UNL     1       8.011   4.332  17.109  0.00  0.00    +0.000 OA
BRANCH   3   6
ATOM      6  C   UNL     1       5.476   4.647  16.472  0.00  0.00    +0.000 A 
ATOM      7  C   UNL     1       5.038   3.324  16.710  0.00  0.00    +0.000 A 
ATOM      8  C   UNL     1       3.876   3.092  17.466  0.00  0.00    +0.000 A 
ATOM      9  C   UNL     1       3.209   4.206  17.944  0.00  0.00    +0.000 A 
ATOM     10  C   UNL     1       3.526   5.496  17.471  0.00  0.00    +0.000 A 
ATOM     11  C   UNL     1       4.673   5.746  16.757  0.00  0.00    +0.000 A 
ATOM     12  C   UNL     1       2.679   6.519  18.176  0.00  0.00    +0.000 C 
ATOM     13  C   UNL     1       2.713   5.802  19.515  0.00  0.00    +0.000 C 
ATOM     14  C   UNL     1       2.031   6.524  20.654  0.00  0.00    +0.000 C 
ATOM     15  N   UNL     1       2.439   4.380  19.134  0.00  0.00    +0.000 N 
ATOM     16  C   UNL     1       1.343   3.648  19.531  0.00  0.00    +0.000 C 
ATOM     17  C   UNL     1       1.238   2.211  19.097  0.00  0.00    +0.000 C 
ATOM     18  O   UNL     1       0.447   4.128  20.230  0.00  0.00    +0.000 OA
ENDBRANCH   3   6
ENDBRANCH   1   3
BRANCH   1  19
ATOM     19  C   UNL     1       7.051   7.066  17.831  0.00  0.00    +0.000 C 
BRANCH  19  20
ATOM     20  C   UNL     1       8.334   7.458  18.574  0.00  0.00    +0.000 C 
BRANCH  20  22
ATOM     21  N   UNL     1       9.413   9.582  19.219  0.00  0.00    +0.000 N 
ATOM     22  C   UNL     1       8.432   8.973  18.446  0.00  0.00    +0.000 C 
ATOM     23  O   UNL     1       7.687   9.564  17.674  0.00  0.00    +0.000 OA
ATOM     24  H   UNL     1      10.073   8.996  19.715  0.00  0.00    +0.000 HD
BRANCH  21  28
ATOM     25  C   UNL     1      10.179  13.744  18.899  0.00  0.00    +0.000 A 
ATOM     26  C   UNL     1       9.493  13.247  20.002  0.00  0.00    +0.000 A 
ATOM     27  C   UNL     1       9.277  11.876  20.140  0.00  0.00    +0.000 A 
ATOM     28  C   UNL     1       9.707  10.969  19.165  0.00  0.00    +0.000 A 
ATOM     29  C   UNL     1      10.424  11.465  18.076  0.00  0.00    +0.000 A 
ATOM     30  C   UNL     1      10.646  12.846  17.932  0.00  0.00    +0.000 A 
BRANCH  25  32
ATOM     31  C   UNL     1       9.701  15.799  19.957  0.00  0.00    +0.000 C 
ATOM     32  O   UNL     1      10.285  15.104  18.866  0.00  0.00    +0.000 OA
ENDBRANCH  25  32
ENDBRANCH  21  28
ENDBRANCH  20  22
ENDBRANCH  19  20
ENDBRANCH   1  19
TORSDOF 7
ENDMDL
MODEL 5
REMARK VINA RESULT:      -8.2      1.202      1.311
REMARK  Name = 
REMARK  10 active torsions:
REMARK  status: ('A' for Active; 'I' for Inactive)
REMARK    1  A    between atoms: C_1  and  O_2
REMARK    2  A    between atoms: O_2  and  C_3
REMARK    3  A    between atoms: C_6  and  N_7
REMARK    4  A    between atoms: C_8  and  C_10
REMARK    5  A    between atoms: C_10  and  C_11
REMARK    6  A    between atoms: C_11  and  N_12
REMARK    7  A    between atoms: N_12  and  S_13
REMARK    8  A    between atoms: S_13  and  C_16
REMARK    9  A    between atoms: C_23  and  C_24
REMARK   10  A    between atoms: C_26  and  C_27
REMARK                            x       y       z     vdW  Elec       q    Type
REMARK                         _______ _______ _______ _____ _____    ______ ____
ROOT
ATOM      1  N   UNL     1       1.738   5.190  19.839  0.00  0.00    +0.000 NA
ATOM      2  H   UNL     1       0.819   5.353  20.255  0.00  0.00    +0.000 HD
ENDROOT
BRANCH   1   3
ATOM      3  S   UNL     1       2.129   3.515  19.991  0.00  0.00    +0.000 S 
ATOM      4  O   UNL     1       2.602   3.331  21.338  0.00  0.00    +0.000 OA
ATOM      5  O   UNL     1       1.032   2.751  19.446  0.00  0.00    +0.000 OA
BRANCH   3   6
ATOM      6  C   UNL     1       3.525   3.392  18.893  0.00  0.00    +0.000 A 
ATOM      7  C   UNL     1       3.349   3.012  17.543  0.00  0.00    +0.000 A 
ATOM      8  C   UNL     1       4.292   3.394  16.574  0.00  0.00    +0.000 A 
ATOM      9  C   UNL     1       5.371   4.141  17.013  0.00  0.00    +0.000 A 
ATOM     10  C   UNL     1       5.644   4.276  18.390  0.00  0.00    +0.000 A 
ATOM     11  C   UNL     1       4.721   3.934  19.350  0.00  0.00    +0.000 A 
ATOM     12  C   UNL     1       6.843   5.160  18.587  0.00  0.00    +0.000 C 
ATOM     13  C   UNL     1       6.495   6.094  17.441  0.00  0.00    +0.000 C 
ATOM     14  C   UNL     1       7.414   7.282  17.272  0.00  0.00    +0.000 C 
ATOM     15  N   UNL     1       6.133   5.146  16.342  0.00  0.00    +0.000 N 
ATOM     16  C   UNL     1       6.804   5.021  15.146  0.00  0.00    +0.000 C 
ATOM     17  C   UNL     1       6.282   4.049  14.123  0.00  0.00    +0.000 C 
ATOM     18  O   UNL     1       7.814   5.677  14.885  0.00  0.00    +0.000 OA
ENDBRANCH   3   6
ENDBRANCH   1   3
BRANCH   1  19
ATOM     19  C   UNL     1       1.975   5.751  18.494  0.00  0.00    +0.000 C 
BRANCH  19  20
ATOM     20  C   UNL     1       2.865   7.000  18.473  0.00  0.00    +0.000 C 
BRANCH  20  22
ATOM     21  N   UNL     1       1.563   9.067  18.125  0.00  0.00    +0.000 N 
ATOM     22  C   UNL     1       2.007   8.122  19.042  0.00  0.00    +0.000 C 
ATOM     23  O   UNL     1       1.731   8.126  20.235  0.00  0.00    +0.000 OA
ATOM     24  H   UNL     1       1.722   8.899  17.140  0.00  0.00    +0.000 HD
BRANCH  21  28
ATOM     25  C   UNL     1      -1.154  12.131  19.241  0.00  0.00    +0.000 A 
ATOM     26  C   UNL     1       0.198  12.259  19.539  0.00  0.00    +0.000 A 
ATOM     27  C   UNL     1       1.106  11.281  19.135  0.00  0.00    +0.000 A 
ATOM     28  C   UNL     1       0.686  10.131  18.458  0.00  0.00    +0.000 A 
ATOM     29  C   UNL     1      -0.666  10.019  18.130  0.00  0.00    +0.000 A 
ATOM     30  C   UNL     1      -1.586  11.003  18.532  0.00  0.00    +0.000 A 
BRANCH  25  32
ATOM     31  C   UNL     1      -2.600  12.866  20.955  0.00  0.00    +0.000 C 
ATOM     32  O   UNL     1      -1.938  13.135  19.728  0.00  0.00    +0.000 OA
ENDBRANCH  25  32
ENDBRANCH  21  28
ENDBRANCH  20  22
ENDBRANCH  19  20
ENDBRANCH   1  19
TORSDOF 7
ENDMDL
MODEL 6
REMARK VINA RESULT:      -8.2      1.447      1.767
REMARK  Name = 
REMARK  10 active torsions:
REMARK  status: ('A' for Active; 'I' for Inactive)
REMARK    1  A    between atoms: C_1  and  O_2
REMARK    2  A    between atoms: O_2  and  C_3
REMARK    3  A    between atoms: C_6  and  N_7
REMARK    4  A    between atoms: C_8  and  C_10
REMARK    5  A    between atoms: C_10  and  C_11
REMARK    6  A    between atoms: C_11  and  N_12
REMARK    7  A    between atoms: N_12  and  S_13
REMARK    8  A    between atoms: S_13  and  C_16
REMARK    9  A    between atoms: C_23  and  C_24
REMARK   10  A    between atoms: C_26  and  C_27
REMARK                            x       y       z     vdW  Elec       q    Type
REMARK                         _______ _______ _______ _____ _____    ______ ____
ROOT
ATOM      1  N   UNL     1       2.118   5.231  20.818  0.00  0.00    +0.000 NA
ATOM      2  H   UNL     1       1.488   5.430  21.597  0.00  0.00    +0.000 HD
ENDROOT
BRANCH   1   3
ATOM      3  S   UNL     1       2.253   3.519  20.634  0.00  0.00    +0.000 S 
ATOM      4  O   UNL     1       2.722   3.012  21.897  0.00  0.00    +0.000 OA
ATOM      5  O   UNL     1       1.039   3.042  20.013  0.00  0.00    +0.000 OA
BRANCH   3   6
ATOM      6  C   UNL     1       3.588   3.407  19.461  0.00  0.00    +0.000 A 
ATOM      7  C   UNL     1       3.350   2.970  18.138  0.00  0.00    +0.000 A 
ATOM      8  C   UNL     1       4.222   3.351  17.103  0.00  0.00    +0.000 A 
ATOM      9  C   UNL     1       5.292   4.155  17.452  0.00  0.00    +0.000 A 
ATOM     10  C   UNL     1       5.637   4.352  18.805  0.00  0.00    +0.000 A 
ATOM     11  C   UNL     1       4.785   4.012  19.828  0.00  0.00    +0.000 A 
ATOM     12  C   UNL     1       6.809   5.288  18.900  0.00  0.00    +0.000 C 
ATOM     13  C   UNL     1       6.358   6.164  17.744  0.00  0.00    +0.000 C 
ATOM     14  C   UNL     1       7.218   7.379  17.479  0.00  0.00    +0.000 C 
ATOM     15  N   UNL     1       5.973   5.161  16.702  0.00  0.00    +0.000 N 
ATOM     16  C   UNL     1       6.580   5.017  15.474  0.00  0.00    +0.000 C 
ATOM     17  C   UNL     1       6.041   3.987  14.519  0.00  0.00    +0.000 C 
ATOM     18  O   UNL     1       7.547   5.701  15.132  0.00  0.00    +0.000 OA
ENDBRANCH   3   6
ENDBRANCH   1   3
BRANCH   1  19
ATOM     19  C   UNL     1       1.880   5.961  19.557  0.00  0.00    +0.000 C 
BRANCH  19  20
ATOM     20  C   UNL     1       2.576   7.325  19.470  0.00  0.00    +0.000 C 
BRANCH  20  22
ATOM     21  N   UNL     1       1.262   9.404  19.274  0.00  0.00    +0.000 N 
ATOM     22  C   UNL     1       1.598   8.322  20.078  0.00  0.00    +0.000 C 
ATOM     23  O   UNL     1       1.143   8.117  21.196  0.00  0.00    +0.000 OA
ATOM     24  H   UNL     1       1.576   9.410  18.312  0.00  0.00    +0.000 HD
BRANCH  21  28
ATOM     25  C   UNL     1      -1.494  12.472  20.279  0.00  0.00    +0.000 A 
ATOM     26  C   UNL     1      -1.869  11.462  19.401  0.00  0.00    +0.000 A 
ATOM     27  C   UNL     1      -0.988  10.423  19.100  0.00  0.00    +0.000 A 
ATOM     28  C   UNL     1       0.303  10.385  19.638  0.00  0.00    +0.000 A 
ATOM     29  C   UNL     1       0.667  11.380  20.545  0.00  0.00    +0.000 A 
ATOM     30  C   UNL     1      -0.218  12.428  20.854  0.00  0.00    +0.000 A 
BRANCH  25  32
ATOM     31  C   UNL     1      -3.785  13.017  20.429  0.00  0.00    +0.000 C 
ATOM     32  O   UNL     1      -2.432  13.446  20.454  0.00  0.00    +0.000 OA
ENDBRANCH  25  32
ENDBRANCH  21  28
ENDBRANCH  20  22
ENDBRANCH  19  20
ENDBRANCH   1  19
TORSDOF 7
ENDMDL
MODEL 7
REMARK VINA RESULT:      -8.1      4.411      7.321
REMARK  Name = 
REMARK  10 active torsions:
REMARK  status: ('A' for Active; 'I' for Inactive)
REMARK    1  A    between atoms: C_1  and  O_2
REMARK    2  A    between atoms: O_2  and  C_3
REMARK    3  A    between atoms: C_6  and  N_7
REMARK    4  A    between atoms: C_8  and  C_10
REMARK    5  A    between atoms: C_10  and  C_11
REMARK    6  A    between atoms: C_11  and  N_12
REMARK    7  A    between atoms: N_12  and  S_13
REMARK    8  A    between atoms: S_13  and  C_16
REMARK    9  A    between atoms: C_23  and  C_24
REMARK   10  A    between atoms: C_26  and  C_27
REMARK                            x       y       z     vdW  Elec       q    Type
REMARK                         _______ _______ _______ _____ _____    ______ ____
ROOT
ATOM      1  N   UNL     1       7.050   6.944  16.545  0.00  0.00    +0.000 NA
ATOM      2  H   UNL     1       7.803   7.404  16.031  0.00  0.00    +0.000 HD
ENDROOT
BRANCH   1   3
ATOM      3  S   UNL     1       6.954   5.297  16.035  0.00  0.00    +0.000 S 
ATOM      4  O   UNL     1       7.060   5.311  14.600  0.00  0.00    +0.000 OA
ATOM      5  O   UNL     1       7.844   4.521  16.868  0.00  0.00    +0.000 OA
BRANCH   3   6
ATOM      6  C   UNL     1       5.271   4.907  16.463  0.00  0.00    +0.000 A 
ATOM      7  C   UNL     1       4.887   3.575  16.742  0.00  0.00    +0.000 A 
ATOM      8  C   UNL     1       3.765   3.320  17.549  0.00  0.00    +0.000 A 
ATOM      9  C   UNL     1       3.081   4.420  18.035  0.00  0.00    +0.000 A 
ATOM     10  C   UNL     1       3.336   5.711  17.527  0.00  0.00    +0.000 A 
ATOM     11  C   UNL     1       4.444   5.984  16.762  0.00  0.00    +0.000 A 
ATOM     12  C   UNL     1       2.485   6.718  18.249  0.00  0.00    +0.000 C 
ATOM     13  C   UNL     1       2.597   6.027  19.597  0.00  0.00    +0.000 C 
ATOM     14  C   UNL     1       1.938   6.749  20.751  0.00  0.00    +0.000 C 
ATOM     15  N   UNL     1       2.355   4.591  19.253  0.00  0.00    +0.000 N 
ATOM     16  C   UNL     1       1.301   3.831  19.707  0.00  0.00    +0.000 C 
ATOM     17  C   UNL     1       1.227   2.384  19.303  0.00  0.00    +0.000 C 
ATOM     18  O   UNL     1       0.419   4.294  20.433  0.00  0.00    +0.000 OA
ENDBRANCH   3   6
ENDBRANCH   1   3
BRANCH   1  19
ATOM     19  C   UNL     1       7.026   7.130  18.010  0.00  0.00    +0.000 C 
BRANCH  19  20
ATOM     20  C   UNL     1       8.386   7.472  18.631  0.00  0.00    +0.000 C 
BRANCH  20  22
ATOM     21  N   UNL     1       9.379   9.578  19.450  0.00  0.00    +0.000 N 
ATOM     22  C   UNL     1       8.502   8.988  18.546  0.00  0.00    +0.000 C 
ATOM     23  O   UNL     1       7.864   9.597  17.697  0.00  0.00    +0.000 OA
ATOM     24  H   UNL     1       9.968   8.979  20.015  0.00  0.00    +0.000 HD
BRANCH  21  28
ATOM     25  C   UNL     1      10.429  13.687  19.601  0.00  0.00    +0.000 A 
ATOM     26  C   UNL     1      10.493  12.998  18.395  0.00  0.00    +0.000 A 
ATOM     27  C   UNL     1      10.105  11.660  18.325  0.00  0.00    +0.000 A 
ATOM     28  C   UNL     1       9.679  10.964  19.461  0.00  0.00    +0.000 A 
ATOM     29  C   UNL     1       9.584  11.665  20.663  0.00  0.00    +0.000 A 
ATOM     30  C   UNL     1       9.971  13.014  20.740  0.00  0.00    +0.000 A 
BRANCH  25  32
ATOM     31  C   UNL     1      12.089  15.178  18.833  0.00  0.00    +0.000 C 
ATOM     32  O   UNL     1      10.875  14.974  19.541  0.00  0.00    +0.000 OA
ENDBRANCH  25  32
ENDBRANCH  21  28
ENDBRANCH  20  22
ENDBRANCH  19  20
ENDBRANCH   1  19
TORSDOF 7
ENDMDL
MODEL 8
REMARK VINA RESULT:      -8.1      2.027      2.146
REMARK  Name = 
REMARK  10 active torsions:
REMARK  status: ('A' for Active; 'I' for Inactive)
REMARK    1  A    between atoms: C_1  and  O_2
REMARK    2  A    between atoms: O_2  and  C_3
REMARK    3  A    between atoms: C_6  and  N_7
REMARK    4  A    between atoms: C_8  and  C_10
REMARK    5  A    between atoms: C_10  and  C_11
REMARK    6  A    between atoms: C_11  and  N_12
REMARK    7  A    between atoms: N_12  and  S_13
REMARK    8  A    between atoms: S_13  and  C_16
REMARK    9  A    between atoms: C_23  and  C_24
REMARK   10  A    between atoms: C_26  and  C_27
REMARK                            x       y       z     vdW  Elec       q    Type
REMARK                         _______ _______ _______ _____ _____    ______ ____
ROOT
ATOM      1  N   UNL     1       1.519   5.848  19.940  0.00  0.00    +0.000 NA
ATOM      2  H   UNL     1       0.777   5.864  19.238  0.00  0.00    +0.000 HD
ENDROOT
BRANCH   1   3
ATOM      3  S   UNL     1       1.897   4.205  20.314  0.00  0.00    +0.000 S 
ATOM      4  O   UNL     1       2.418   4.205  21.656  0.00  0.00    +0.000 OA
ATOM      5  O   UNL     1       0.771   3.390  19.922  0.00  0.00    +0.000 OA
BRANCH   3   6
ATOM      6  C   UNL     1       3.249   3.905  19.195  0.00  0.00    +0.000 A 
ATOM      7  C   UNL     1       3.005   3.547  17.849  0.00  0.00    +0.000 A 
ATOM      8  C   UNL     1       3.974   3.806  16.864  0.00  0.00    +0.000 A 
ATOM      9  C   UNL     1       5.144   4.412  17.284  0.00  0.00    +0.000 A 
ATOM     10  C   UNL     1       5.454   4.514  18.656  0.00  0.00    +0.000 A 
ATOM     11  C   UNL     1       4.510   4.293  19.631  0.00  0.00    +0.000 A 
ATOM     12  C   UNL     1       6.758   5.240  18.832  0.00  0.00    +0.000 C 
ATOM     13  C   UNL     1       6.512   6.208  17.687  0.00  0.00    +0.000 C 
ATOM     14  C   UNL     1       7.571   7.270  17.499  0.00  0.00    +0.000 C 
ATOM     15  N   UNL     1       6.016   5.311  16.597  0.00  0.00    +0.000 N 
ATOM     16  C   UNL     1       6.648   5.100  15.392  0.00  0.00    +0.000 C 
ATOM     17  C   UNL     1       5.992   4.200  14.381  0.00  0.00    +0.000 C 
ATOM     18  O   UNL     1       7.728   5.624  15.113  0.00  0.00    +0.000 OA
ENDBRANCH   3   6
ENDBRANCH   1   3
BRANCH   1  19
ATOM     19  C   UNL     1       2.698   6.703  19.691  0.00  0.00    +0.000 C 
BRANCH  19  20
ATOM     20  C   UNL     1       2.511   7.734  18.571  0.00  0.00    +0.000 C 
BRANCH  20  22
ATOM     21  N   UNL     1       1.330   8.802  20.457  0.00  0.00    +0.000 N 
ATOM     22  C   UNL     1       1.441   8.694  19.076  0.00  0.00    +0.000 C 
ATOM     23  O   UNL     1       0.771   9.329  18.272  0.00  0.00    +0.000 OA
ATOM     24  H   UNL     1       2.025   8.347  21.036  0.00  0.00    +0.000 HD
BRANCH  21  28
ATOM     25  C   UNL     1      -1.163  11.537  22.535  0.00  0.00    +0.000 A 
ATOM     26  C   UNL     1      -0.693  11.852  21.265  0.00  0.00    +0.000 A 
ATOM     27  C   UNL     1       0.087  10.941  20.554  0.00  0.00    +0.000 A 
ATOM     28  C   UNL     1       0.452   9.708  21.105  0.00  0.00    +0.000 A 
ATOM     29  C   UNL     1      -0.047   9.378  22.366  0.00  0.00    +0.000 A 
ATOM     30  C   UNL     1      -0.836  10.291  23.086  0.00  0.00    +0.000 A 
BRANCH  25  32
ATOM     31  C   UNL     1      -1.160  13.715  23.442  0.00  0.00    +0.000 C 
ATOM     32  O   UNL     1      -1.879  12.530  23.136  0.00  0.00    +0.000 OA
ENDBRANCH  25  32
ENDBRANCH  21  28
ENDBRANCH  20  22
ENDBRANCH  19  20
ENDBRANCH   1  19
TORSDOF 7
ENDMDL
MODEL 9
REMARK VINA RESULT:      -8.0      1.962      2.440
REMARK  Name = 
REMARK  10 active torsions:
REMARK  status: ('A' for Active; 'I' for Inactive)
REMARK    1  A    between atoms: C_1  and  O_2
REMARK    2  A    between atoms: O_2  and  C_3
REMARK    3  A    between atoms: C_6  and  N_7
REMARK    4  A    between atoms: C_8  and  C_10
REMARK    5  A    between atoms: C_10  and  C_11
REMARK    6  A    between atoms: C_11  and  N_12
REMARK    7  A    between atoms: N_12  and  S_13
REMARK    8  A    between atoms: S_13  and  C_16
REMARK    9  A    between atoms: C_23  and  C_24
REMARK   10  A    between atoms: C_26  and  C_27
REMARK                            x       y       z     vdW  Elec       q    Type
REMARK                         _______ _______ _______ _____ _____    ______ ____
ROOT
ATOM      1  N   UNL     1       2.478   6.160  20.774  0.00  0.00    +0.000 NA
ATOM      2  H   UNL     1       2.690   6.250  21.770  0.00  0.00    +0.000 HD
ENDROOT
BRANCH   1   3
ATOM      3  S   UNL     1       2.136   4.504  20.425  0.00  0.00    +0.000 S 
ATOM      4  O   UNL     1       2.357   3.778  21.649  0.00  0.00    +0.000 OA
ATOM      5  O   UNL     1       0.881   4.451  19.712  0.00  0.00    +0.000 OA
BRANCH   3   6
ATOM      6  C   UNL     1       3.459   4.113  19.301  0.00  0.00    +0.000 A 
ATOM      7  C   UNL     1       3.183   3.620  18.005  0.00  0.00    +0.000 A 
ATOM      8  C   UNL     1       4.119   3.793  16.971  0.00  0.00    +0.000 A 
ATOM      9  C   UNL     1       5.291   4.454  17.294  0.00  0.00    +0.000 A 
ATOM     10  C   UNL     1       5.637   4.697  18.639  0.00  0.00    +0.000 A 
ATOM     11  C   UNL     1       4.726   4.561  19.659  0.00  0.00    +0.000 A 
ATOM     12  C   UNL     1       6.934   5.455  18.702  0.00  0.00    +0.000 C 
ATOM     13  C   UNL     1       6.638   6.301  17.475  0.00  0.00    +0.000 C 
ATOM     14  C   UNL     1       7.673   7.355  17.151  0.00  0.00    +0.000 C 
ATOM     15  N   UNL     1       6.127   5.293  16.495  0.00  0.00    +0.000 N 
ATOM     16  C   UNL     1       6.727   4.972  15.298  0.00  0.00    +0.000 C 
ATOM     17  C   UNL     1       6.059   3.966  14.402  0.00  0.00    +0.000 C 
ATOM     18  O   UNL     1       7.790   5.481  14.936  0.00  0.00    +0.000 OA
ENDBRANCH   3   6
ENDBRANCH   1   3
BRANCH   1  19
ATOM     19  C   UNL     1       1.507   7.116  20.205  0.00  0.00    +0.000 C 
BRANCH  19  20
ATOM     20  C   UNL     1       1.619   8.542  20.758  0.00  0.00    +0.000 C 
BRANCH  20  22
ATOM     21  N   UNL     1       0.052   9.977  19.504  0.00  0.00    +0.000 N 
ATOM     22  C   UNL     1       0.230   9.148  20.605  0.00  0.00    +0.000 C 
ATOM     23  O   UNL     1      -0.645   8.865  21.412  0.00  0.00    +0.000 OA
ATOM     24  H   UNL     1       0.791  10.035  18.815  0.00  0.00    +0.000 HD
BRANCH  21  28
ATOM     25  C   UNL     1      -3.762  11.559  18.520  0.00  0.00    +0.000 A 
ATOM     26  C   UNL     1      -2.986  12.174  19.496  0.00  0.00    +0.000 A 
ATOM     27  C   UNL     1      -1.712  11.691  19.794  0.00  0.00    +0.000 A 
ATOM     28  C   UNL     1      -1.193  10.560  19.153  0.00  0.00    +0.000 A 
ATOM     29  C   UNL     1      -1.959   9.963  18.151  0.00  0.00    +0.000 A 
ATOM     30  C   UNL     1      -3.243  10.448  17.845  0.00  0.00    +0.000 A 
BRANCH  25  32
ATOM     31  C   UNL     1      -5.431  12.276  17.014  0.00  0.00    +0.000 C 
ATOM     32  O   UNL     1      -5.001  12.105  18.356  0.00  0.00    +0.000 OA
ENDBRANCH  25  32
ENDBRANCH  21  28
ENDBRANCH  20  22
ENDBRANCH  19  20
ENDBRANCH   1  19
TORSDOF 7
ENDMDL
