MODEL 1
REMARK VINA RESULT:      -8.4      0.000      0.000
REMARK  Name = 
REMARK  10 active torsions:
REMARK  status: ('A' for Active; 'I' for Inactive)
REMARK    1  A    between atoms: C_1  and  C_2
REMARK    2  A    between atoms: C_7  and  C_8
REMARK    3  A    between atoms: C_8  and  N_9
REMARK    4  A    between atoms: N_9  and  C_10
REMARK    5  A    between atoms: N_19  and  C_20
REMARK    6  A    between atoms: C_22  and  C_23
REMARK    7  A    between atoms: N_25  and  C_26
REMARK    8  A    between atoms: C_26  and  C_27
REMARK    9  A    between atoms: C_30  and  O_31
REMARK   10  A    between atoms: C_32  and  O_33
REMARK                            x       y       z     vdW  Elec       q    Type
REMARK                         _______ _______ _______ _____ _____    ______ ____
ROOT
ATOM      1  C   UNL     1       0.932   9.917  19.306  0.00  0.00    +0.000 A 
ATOM      2  N   UNL     1       0.473  10.093  20.572  0.00  0.00    +0.000 NA
ATOM      3  C   UNL     1       0.713   9.127  21.483  0.00  0.00    +0.000 A 
ATOM      4 CL   UNL     1       0.132   9.435  23.066  0.00  0.00    +0.000 Cl
ATOM      5  N   UNL     1       1.335   7.939  21.325  0.00  0.00    +0.000 NA
ATOM      6  C   UNL     1       1.732   7.789  20.051  0.00  0.00    +0.000 A 
ATOM      7  C   UNL     1       1.584   8.701  19.018  0.00  0.00    +0.000 A 
ATOM      8  N   UNL     1       2.109   8.196  17.846  0.00  0.00    +0.000 NA
ATOM      9  C   UNL     1       2.564   7.012  18.158  0.00  0.00    +0.000 A 
ATOM     10  N   UNL     1       2.358   6.712  19.480  0.00  0.00    +0.000 N 
ENDROOT
BRANCH  10  11
ATOM     11  C   UNL     1       2.699   5.467  20.144  0.00  0.00    +0.000 C 
ATOM     12  S   UNL     1       4.415   4.934  19.795  0.00  0.00    +0.000 S 
ATOM     13  C   UNL     1       3.996   3.186  19.459  0.00  0.00    +0.000 C 
ATOM     14  C   UNL     1       2.574   3.000  19.984  0.00  0.00    +0.000 C 
ATOM     15  C   UNL     1       1.788   4.296  19.740  0.00  0.00    +0.000 C 
BRANCH  13  16
ATOM     16  C   UNL     1       4.135   2.880  17.971  0.00  0.00    +0.000 C 
ATOM     17  O   UNL     1       3.595   1.920  17.433  0.00  0.00    +0.000 OA
ATOM     18  N   UNL     1       4.957   3.758  17.299  0.00  0.00    +0.000 N 
ATOM     19  H   UNL     1       5.265   4.603  17.767  0.00  0.00    +0.000 HD
BRANCH  18  20
ATOM     20  C   UNL     1       5.270   3.598  15.898  0.00  0.00    +0.000 C 
BRANCH  20  21
ATOM     21  C   UNL     1       6.032   4.795  15.424  0.00  0.00    +0.000 C 
ATOM     22  C   UNL     1       5.364   6.147  15.339  0.00  0.00    +0.000 C 
ATOM     23  C   UNL     1       6.419   5.897  16.378  0.00  0.00    +0.000 C 
ENDBRANCH  20  21
ENDBRANCH  18  20
ENDBRANCH  13  16
BRANCH  14  24
ATOM     24  O   UNL     1       2.560   2.714  21.397  0.00  0.00    +0.000 OA
ATOM     25  H   UNL     1       2.585   3.549  21.898  0.00  0.00    +0.000 HD
ENDBRANCH  14  24
BRANCH  15  26
ATOM     26  O   UNL     1       0.602   4.282  20.545  0.00  0.00    +0.000 OA
ATOM     27  H   UNL     1       0.891   4.125  21.469  0.00  0.00    +0.000 HD
ENDBRANCH  15  26
ENDBRANCH  10  11
BRANCH   1  28
ATOM     28  N   UNL     1       0.681  10.927  18.368  0.00  0.00    +0.000 N 
ATOM     29  H   UNL     1       1.575  11.356  18.145  0.00  0.00    +0.000 HD
BRANCH  28  30
ATOM     30  C   UNL     1      -0.297  11.953  18.754  0.00  0.00    +0.000 C 
BRANCH  30  37
ATOM     31  C   UNL     1      -2.944  12.765  20.151  0.00  0.00    +0.000 C 
ATOM     32  C   UNL     1      -2.887  11.900  18.921  0.00  0.00    +0.000 A 
ATOM     33  C   UNL     1      -4.105  11.414  18.406  0.00  0.00    +0.000 A 
ATOM     34  C   UNL     1      -4.139  10.577  17.292  0.00  0.00    +0.000 A 
ATOM     35  C   UNL     1      -2.954  10.206  16.670  0.00  0.00    +0.000 A 
ATOM     36  C   UNL     1      -1.740  10.676  17.165  0.00  0.00    +0.000 A 
ATOM     37  C   UNL     1      -1.680  11.534  18.284  0.00  0.00    +0.000 A 
ENDBRANCH  30  37
ENDBRANCH  28  30
ENDBRANCH   1  28
TORSDOF 9
ENDMDL
MODEL 2
REMARK VINA RESULT:      -8.3      4.308      9.306
REMARK  Name = 
REMARK  10 active torsions:
REMARK  status: ('A' for Active; 'I' for Inactive)
REMARK    1  A    between atoms: C_1  and  C_2
REMARK    2  A    between atoms: C_7  and  C_8
REMARK    3  A    between atoms: C_8  and  N_9
REMARK    4  A    between atoms: N_9  and  C_10
REMARK    5  A    between atoms: N_19  and  C_20
REMARK    6  A    between atoms: C_22  and  C_23
REMARK    7  A    between atoms: N_25  and  C_26
REMARK    8  A    between atoms: C_26  and  C_27
REMARK    9  A    between atoms: C_30  and  O_31
REMARK   10  A    between atoms: C_32  and  O_33
REMARK                            x       y       z     vdW  Elec       q    Type
REMARK                         _______ _______ _______ _____ _____    ______ ____
ROOT
ATOM      1  C   UNL     1       1.599   7.957  20.466  0.00  0.00    +0.000 A 
ATOM      2  N   UNL     1       1.074   8.187  21.697  0.00  0.00    +0.000 NA
ATOM      3  C   UNL     1       0.547   9.403  21.954  0.00  0.00    +0.000 A 
ATOM      4 CL   UNL     1      -0.126   9.607  23.517  0.00  0.00    +0.000 Cl
ATOM      5  N   UNL     1       0.487  10.493  21.160  0.00  0.00    +0.000 NA
ATOM      6  C   UNL     1       1.056  10.233  19.972  0.00  0.00    +0.000 A 
ATOM      7  C   UNL     1       1.607   9.032  19.555  0.00  0.00    +0.000 A 
ATOM      8  N   UNL     1       2.105   9.145  18.273  0.00  0.00    +0.000 NA
ATOM      9  C   UNL     1       1.861  10.379  17.920  0.00  0.00    +0.000 A 
ATOM     10  N   UNL     1       1.232  11.085  18.912  0.00  0.00    +0.000 N 
ENDROOT
BRANCH  10  11
ATOM     11  C   UNL     1       0.860  12.488  18.869  0.00  0.00    +0.000 C 
ATOM     12  S   UNL     1       1.587  13.447  20.249  0.00  0.00    +0.000 S 
ATOM     13  C   UNL     1       0.052  14.344  20.673  0.00  0.00    +0.000 C 
ATOM     14  C   UNL     1      -0.887  14.127  19.489  0.00  0.00    +0.000 C 
ATOM     15  C   UNL     1      -0.659  12.715  18.934  0.00  0.00    +0.000 C 
BRANCH  13  16
ATOM     16  C   UNL     1      -0.516  13.834  21.994  0.00  0.00    +0.000 C 
ATOM     17  O   UNL     1       0.146  13.193  22.802  0.00  0.00    +0.000 OA
ATOM     18  N   UNL     1      -1.850  14.126  22.173  0.00  0.00    +0.000 N 
ATOM     19  H   UNL     1      -2.305  14.770  21.536  0.00  0.00    +0.000 HD
BRANCH  18  20
ATOM     20  C   UNL     1      -2.588  13.672  23.329  0.00  0.00    +0.000 C 
BRANCH  20  21
ATOM     21  C   UNL     1      -3.585  12.640  22.904  0.00  0.00    +0.000 C 
ATOM     22  C   UNL     1      -5.060  12.961  22.879  0.00  0.00    +0.000 C 
ATOM     23  C   UNL     1      -4.314  12.761  21.590  0.00  0.00    +0.000 C 
ENDBRANCH  20  21
ENDBRANCH  18  20
ENDBRANCH  13  16
BRANCH  14  24
ATOM     24  O   UNL     1      -0.643  15.079  18.433  0.00  0.00    +0.000 OA
ATOM     25  H   UNL     1      -1.414  15.110  17.839  0.00  0.00    +0.000 HD
ENDBRANCH  14  24
BRANCH  15  26
ATOM     26  O   UNL     1      -1.235  12.627  17.624  0.00  0.00    +0.000 OA
ATOM     27  H   UNL     1      -0.585  13.020  17.004  0.00  0.00    +0.000 HD
ENDBRANCH  15  26
ENDBRANCH  10  11
BRANCH   1  28
ATOM     28  N   UNL     1       2.140   6.690  20.208  0.00  0.00    +0.000 N 
ATOM     29  H   UNL     1       2.315   6.640  19.207  0.00  0.00    +0.000 HD
BRANCH  28  30
ATOM     30  C   UNL     1       1.347   5.535  20.648  0.00  0.00    +0.000 C 
BRANCH  30  37
ATOM     31  C   UNL     1       1.515   2.592  21.613  0.00  0.00    +0.000 C 
ATOM     32  C   UNL     1       1.719   3.008  20.182  0.00  0.00    +0.000 A 
ATOM     33  C   UNL     1       2.034   2.002  19.247  0.00  0.00    +0.000 A 
ATOM     34  C   UNL     1       2.275   2.306  17.907  0.00  0.00    +0.000 A 
ATOM     35  C   UNL     1       2.209   3.624  17.476  0.00  0.00    +0.000 A 
ATOM     36  C   UNL     1       1.899   4.632  18.385  0.00  0.00    +0.000 A 
ATOM     37  C   UNL     1       1.640   4.349  19.743  0.00  0.00    +0.000 A 
ENDBRANCH  30  37
ENDBRANCH  28  30
ENDBRANCH   1  28
TORSDOF 9
ENDMDL
MODEL 3
REMARK VINA RESULT:      -8.1      3.819      9.568
REMARK  Name = 
REMARK  10 active torsions:
REMARK  status: ('A' for Active; 'I' for Inactive)
REMARK    1  A    between atoms: C_1  and  C_2
REMARK    2  A    between atoms: C_7  and  C_8
REMARK    3  A    between atoms: C_8  and  N_9
REMARK    4  A    between atoms: N_9  and  C_10
REMARK    5  A    between atoms: N_19  and  C_20
REMARK    6  A    between atoms: C_22  and  C_23
REMARK    7  A    between atoms: N_25  and  C_26
REMARK    8  A    between atoms: C_26  and  C_27
REMARK    9  A    between atoms: C_30  and  O_31
REMARK   10  A    between atoms: C_32  and  O_33
REMARK                            x       y       z     vdW  Elec       q    Type
REMARK                         _______ _______ _______ _____ _____    ______ ____
ROOT
ATOM      1  C   UNL     1       2.279   6.592  20.215  0.00  0.00    +0.000 A 
ATOM      2  N   UNL     1       3.003   6.536  19.067  0.00  0.00    +0.000 NA
ATOM      3  C   UNL     1       2.943   7.584  18.219  0.00  0.00    +0.000 A 
ATOM      4 CL   UNL     1       3.910   7.456  16.809  0.00  0.00    +0.000 Cl
ATOM      5  N   UNL     1       2.218   8.719  18.312  0.00  0.00    +0.000 NA
ATOM      6  C   UNL     1       1.486   8.710  19.438  0.00  0.00    +0.000 A 
ATOM      7  C   UNL     1       1.466   7.725  20.413  0.00  0.00    +0.000 A 
ATOM      8  N   UNL     1       0.586   8.059  21.421  0.00  0.00    +0.000 NA
ATOM      9  C   UNL     1       0.086   9.214  21.071  0.00  0.00    +0.000 A 
ATOM     10  N   UNL     1       0.592   9.653  19.875  0.00  0.00    +0.000 N 
ENDROOT
BRANCH  10  11
ATOM     11  C   UNL     1       0.219  10.870  19.176  0.00  0.00    +0.000 C 
ATOM     12  S   UNL     1       0.081  12.308  20.300  0.00  0.00    +0.000 S 
ATOM     13  C   UNL     1      -1.501  12.919  19.616  0.00  0.00    +0.000 C 
ATOM     14  C   UNL     1      -1.684  12.181  18.292  0.00  0.00    +0.000 C 
ATOM     15  C   UNL     1      -1.127  10.759  18.442  0.00  0.00    +0.000 C 
BRANCH  13  16
ATOM     16  C   UNL     1      -2.638  12.678  20.604  0.00  0.00    +0.000 C 
ATOM     17  O   UNL     1      -2.455  12.280  21.749  0.00  0.00    +0.000 OA
ATOM     18  N   UNL     1      -3.889  12.909  20.076  0.00  0.00    +0.000 N 
ATOM     19  H   UNL     1      -3.968  13.362  19.173  0.00  0.00    +0.000 HD
BRANCH  18  20
ATOM     20  C   UNL     1      -5.097  12.673  20.832  0.00  0.00    +0.000 C 
BRANCH  20  21
ATOM     21  C   UNL     1      -6.066  11.906  19.988  0.00  0.00    +0.000 C 
ATOM     22  C   UNL     1      -7.221  11.168  20.621  0.00  0.00    +0.000 C 
ATOM     23  C   UNL     1      -7.479  12.394  19.791  0.00  0.00    +0.000 C 
ENDBRANCH  20  21
ENDBRANCH  18  20
ENDBRANCH  13  16
BRANCH  14  24
ATOM     24  O   UNL     1      -0.985  12.837  17.215  0.00  0.00    +0.000 OA
ATOM     25  H   UNL     1      -0.175  13.254  17.559  0.00  0.00    +0.000 HD
ENDBRANCH  14  24
BRANCH  15  26
ATOM     26  O   UNL     1      -0.943  10.189  17.140  0.00  0.00    +0.000 OA
ATOM     27  H   UNL     1      -0.182  10.657  16.733  0.00  0.00    +0.000 HD
ENDBRANCH  15  26
ENDBRANCH  10  11
BRANCH   1  28
ATOM     28  N   UNL     1       2.350   5.500  21.092  0.00  0.00    +0.000 N 
ATOM     29  H   UNL     1       3.330   5.238  21.161  0.00  0.00    +0.000 HD
BRANCH  28  30
ATOM     30  C   UNL     1       1.530   4.330  20.752  0.00  0.00    +0.000 C 
BRANCH  30  37
ATOM     31  C   UNL     1       1.061   3.956  17.709  0.00  0.00    +0.000 C 
ATOM     32  C   UNL     1       2.120   3.217  18.482  0.00  0.00    +0.000 A 
ATOM     33  C   UNL     1       2.911   2.286  17.781  0.00  0.00    +0.000 A 
ATOM     34  C   UNL     1       3.889   1.532  18.429  0.00  0.00    +0.000 A 
ATOM     35  C   UNL     1       4.094   1.693  19.793  0.00  0.00    +0.000 A 
ATOM     36  C   UNL     1       3.322   2.609  20.502  0.00  0.00    +0.000 A 
ATOM     37  C   UNL     1       2.334   3.391  19.868  0.00  0.00    +0.000 A 
ENDBRANCH  30  37
ENDBRANCH  28  30
ENDBRANCH   1  28
TORSDOF 9
ENDMDL
MODEL 4
REMARK VINA RESULT:      -8.1      1.975      2.853
REMARK  Name = 
REMARK  10 active torsions:
REMARK  status: ('A' for Active; 'I' for Inactive)
REMARK    1  A    between atoms: C_1  and  C_2
REMARK    2  A    between atoms: C_7  and  C_8
REMARK    3  A    between atoms: C_8  and  N_9
REMARK    4  A    between atoms: N_9  and  C_10
REMARK    5  A    between atoms: N_19  and  C_20
REMARK    6  A    between atoms: C_22  and  C_23
REMARK    7  A    between atoms: N_25  and  C_26
REMARK    8  A    between atoms: C_26  and  C_27
REMARK    9  A    between atoms: C_30  and  O_31
REMARK   10  A    between atoms: C_32  and  O_33
REMARK                            x       y       z     vdW  Elec       q    Type
REMARK                         _______ _______ _______ _____ _____    ______ ____
ROOT
ATOM      1  C   UNL     1       1.053  10.005  19.365  0.00  0.00    +0.000 A 
ATOM      2  N   UNL     1       0.557  10.163  20.619  0.00  0.00    +0.000 NA
ATOM      3  C   UNL     1       0.737   9.167  21.512  0.00  0.00    +0.000 A 
ATOM      4 CL   UNL     1       0.114   9.452  23.082  0.00  0.00    +0.000 Cl
ATOM      5  N   UNL     1       1.329   7.965  21.342  0.00  0.00    +0.000 NA
ATOM      6  C   UNL     1       1.763   7.836  20.078  0.00  0.00    +0.000 A 
ATOM      7  C   UNL     1       1.677   8.778  19.065  0.00  0.00    +0.000 A 
ATOM      8  N   UNL     1       2.225   8.287  17.898  0.00  0.00    +0.000 NA
ATOM      9  C   UNL     1       2.634   7.082  18.193  0.00  0.00    +0.000 A 
ATOM     10  N   UNL     1       2.375   6.755  19.499  0.00  0.00    +0.000 N 
ENDROOT
BRANCH  10  11
ATOM     11  C   UNL     1       2.655   5.483  20.140  0.00  0.00    +0.000 C 
ATOM     12  S   UNL     1       4.341   4.870  19.772  0.00  0.00    +0.000 S 
ATOM     13  C   UNL     1       3.832   3.152  19.410  0.00  0.00    +0.000 C 
ATOM     14  C   UNL     1       2.406   3.029  19.940  0.00  0.00    +0.000 C 
ATOM     15  C   UNL     1       1.685   4.366  19.723  0.00  0.00    +0.000 C 
BRANCH  13  16
ATOM     16  C   UNL     1       3.948   2.864  17.916  0.00  0.00    +0.000 C 
ATOM     17  O   UNL     1       3.256   2.033  17.341  0.00  0.00    +0.000 OA
ATOM     18  N   UNL     1       4.931   3.595  17.286  0.00  0.00    +0.000 N 
ATOM     19  H   UNL     1       5.375   4.358  17.784  0.00  0.00    +0.000 HD
BRANCH  18  20
ATOM     20  C   UNL     1       5.242   3.418  15.887  0.00  0.00    +0.000 C 
BRANCH  20  21
ATOM     21  C   UNL     1       6.593   3.995  15.604  0.00  0.00    +0.000 C 
ATOM     22  C   UNL     1       6.799   4.937  14.442  0.00  0.00    +0.000 C 
ATOM     23  C   UNL     1       6.879   5.455  15.850  0.00  0.00    +0.000 C 
ENDBRANCH  20  21
ENDBRANCH  18  20
ENDBRANCH  13  16
BRANCH  14  24
ATOM     24  O   UNL     1       2.385   2.720  21.349  0.00  0.00    +0.000 OA
ATOM     25  H   UNL     1       2.389   1.754  21.469  0.00  0.00    +0.000 HD
ENDBRANCH  14  24
BRANCH  15  26
ATOM     26  O   UNL     1       0.504   4.399  20.534  0.00  0.00    +0.000 OA
ATOM     27  H   UNL     1       0.145   3.485  20.546  0.00  0.00    +0.000 HD
ENDBRANCH  15  26
ENDBRANCH  10  11
BRANCH   1  28
ATOM     28  N   UNL     1       0.863  11.047  18.446  0.00  0.00    +0.000 N 
ATOM     29  H   UNL     1       0.610  10.619  17.559  0.00  0.00    +0.000 HD
BRANCH  28  30
ATOM     30  C   UNL     1       1.986  11.976  18.264  0.00  0.00    +0.000 C 
BRANCH  30  37
ATOM     31  C   UNL     1       3.830  14.470  18.240  0.00  0.00    +0.000 C 
ATOM     32  C   UNL     1       2.352  14.533  18.517  0.00  0.00    +0.000 A 
ATOM     33  C   UNL     1       1.795  15.793  18.812  0.00  0.00    +0.000 A 
ATOM     34  C   UNL     1       0.442  15.936  19.116  0.00  0.00    +0.000 A 
ATOM     35  C   UNL     1      -0.383  14.819  19.135  0.00  0.00    +0.000 A 
ATOM     36  C   UNL     1       0.150  13.565  18.847  0.00  0.00    +0.000 A 
ATOM     37  C   UNL     1       1.513  13.396  18.525  0.00  0.00    +0.000 A 
ENDBRANCH  30  37
ENDBRANCH  28  30
ENDBRANCH   1  28
TORSDOF 9
ENDMDL
MODEL 5
REMARK VINA RESULT:      -8.0      2.386      3.429
REMARK  Name = 
REMARK  10 active torsions:
REMARK  status: ('A' for Active; 'I' for Inactive)
REMARK    1  A    between atoms: C_1  and  C_2
REMARK    2  A    between atoms: C_7  and  C_8
REMARK    3  A    between atoms: C_8  and  N_9
REMARK    4  A    between atoms: N_9  and  C_10
REMARK    5  A    between atoms: N_19  and  C_20
REMARK    6  A    between atoms: C_22  and  C_23
REMARK    7  A    between atoms: N_25  and  C_26
REMARK    8  A    between atoms: C_26  and  C_27
REMARK    9  A    between atoms: C_30  and  O_31
REMARK   10  A    between atoms: C_32  and  O_33
REMARK                            x       y       z     vdW  Elec       q    Type
REMARK                         _______ _______ _______ _____ _____    ______ ____
ROOT
ATOM      1  C   UNL     1       1.109  10.227  19.194  0.00  0.00    +0.000 A 
ATOM      2  N   UNL     1       0.570  10.049  20.428  0.00  0.00    +0.000 NA
ATOM      3  C   UNL     1       0.779   8.873  21.057  0.00  0.00    +0.000 A 
ATOM      4 CL   UNL     1       0.097   8.736  22.623  0.00  0.00    +0.000 Cl
ATOM      5  N   UNL     1       1.439   7.779  20.624  0.00  0.00    +0.000 NA
ATOM      6  C   UNL     1       1.915   7.983  19.385  0.00  0.00    +0.000 A 
ATOM      7  C   UNL     1       1.807   9.140  18.630  0.00  0.00    +0.000 A 
ATOM      8  N   UNL     1       2.413   8.976  17.401  0.00  0.00    +0.000 NA
ATOM      9  C   UNL     1       2.878   7.756  17.410  0.00  0.00    +0.000 A 
ATOM     10  N   UNL     1       2.601   7.107  18.585  0.00  0.00    +0.000 N 
ENDROOT
BRANCH  10  11
ATOM     11  C   UNL     1       2.932   5.730  18.908  0.00  0.00    +0.000 C 
ATOM     12  S   UNL     1       4.696   5.520  19.349  0.00  0.00    +0.000 S 
ATOM     13  C   UNL     1       4.960   4.028  18.326  0.00  0.00    +0.000 C 
ATOM     14  C   UNL     1       3.564   3.535  17.956  0.00  0.00    +0.000 C 
ATOM     15  C   UNL     1       2.652   4.753  17.755  0.00  0.00    +0.000 C 
BRANCH  13  16
ATOM     16  C   UNL     1       5.826   4.359  17.114  0.00  0.00    +0.000 C 
ATOM     17  O   UNL     1       7.049   4.425  17.165  0.00  0.00    +0.000 OA
ATOM     18  N   UNL     1       5.103   4.616  15.971  0.00  0.00    +0.000 N 
ATOM     19  H   UNL     1       4.109   4.415  15.959  0.00  0.00    +0.000 HD
BRANCH  18  20
ATOM     20  C   UNL     1       5.735   5.014  14.735  0.00  0.00    +0.000 C 
BRANCH  20  21
ATOM     21  C   UNL     1       6.042   3.794  13.923  0.00  0.00    +0.000 C 
ATOM     22  C   UNL     1       5.307   3.526  12.632  0.00  0.00    +0.000 C 
ATOM     23  C   UNL     1       6.761   3.903  12.602  0.00  0.00    +0.000 C 
ENDBRANCH  20  21
ENDBRANCH  18  20
ENDBRANCH  13  16
BRANCH  14  24
ATOM     24  O   UNL     1       2.999   2.705  18.990  0.00  0.00    +0.000 OA
ATOM     25  H   UNL     1       3.487   1.863  19.034  0.00  0.00    +0.000 HD
ENDBRANCH  14  24
BRANCH  15  26
ATOM     26  O   UNL     1       1.285   4.323  17.782  0.00  0.00    +0.000 OA
ATOM     27  H   UNL     1       1.150   3.867  18.641  0.00  0.00    +0.000 HD
ENDBRANCH  15  26
ENDBRANCH  10  11
BRANCH   1  28
ATOM     28  N   UNL     1       0.888  11.452  18.549  0.00  0.00    +0.000 N 
ATOM     29  H   UNL     1       0.507  11.241  17.631  0.00  0.00    +0.000 HD
BRANCH  28  30
ATOM     30  C   UNL     1       2.046  12.348  18.429  0.00  0.00    +0.000 C 
BRANCH  30  37
ATOM     31  C   UNL     1       3.885  14.815  18.034  0.00  0.00    +0.000 C 
ATOM     32  C   UNL     1       2.414  14.916  18.336  0.00  0.00    +0.000 A 
ATOM     33  C   UNL     1       1.863  16.205  18.476  0.00  0.00    +0.000 A 
ATOM     34  C   UNL     1       0.516  16.389  18.791  0.00  0.00    +0.000 A 
ATOM     35  C   UNL     1      -0.306  15.285  18.977  0.00  0.00    +0.000 A 
ATOM     36  C   UNL     1       0.222  14.003  18.842  0.00  0.00    +0.000 A 
ATOM     37  C   UNL     1       1.577  13.791  18.513  0.00  0.00    +0.000 A 
ENDBRANCH  30  37
ENDBRANCH  28  30
ENDBRANCH   1  28
TORSDOF 9
ENDMDL
MODEL 6
REMARK VINA RESULT:      -8.0      1.752      2.073
REMARK  Name = 
REMARK  10 active torsions:
REMARK  status: ('A' for Active; 'I' for Inactive)
REMARK    1  A    between atoms: C_1  and  C_2
REMARK    2  A    between atoms: C_7  and  C_8
REMARK    3  A    between atoms: C_8  and  N_9
REMARK    4  A    between atoms: N_9  and  C_10
REMARK    5  A    between atoms: N_19  and  C_20
REMARK    6  A    between atoms: C_22  and  C_23
REMARK    7  A    between atoms: N_25  and  C_26
REMARK    8  A    between atoms: C_26  and  C_27
REMARK    9  A    between atoms: C_30  and  O_31
REMARK   10  A    between atoms: C_32  and  O_33
REMARK                            x       y       z     vdW  Elec       q    Type
REMARK                         _______ _______ _______ _____ _____    ______ ____
ROOT
ATOM      1  C   UNL     1       0.949   9.933  18.971  0.00  0.00    +0.000 A 
ATOM      2  N   UNL     1       0.438   9.710  20.210  0.00  0.00    +0.000 NA
ATOM      3  C   UNL     1       0.831   8.605  20.878  0.00  0.00    +0.000 A 
ATOM      4 CL   UNL     1       0.171   8.410  22.447  0.00  0.00    +0.000 Cl
ATOM      5  N   UNL     1       1.661   7.618  20.481  0.00  0.00    +0.000 NA
ATOM      6  C   UNL     1       2.105   7.856  19.237  0.00  0.00    +0.000 A 
ATOM      7  C   UNL     1       1.816   8.956  18.444  0.00  0.00    +0.000 A 
ATOM      8  N   UNL     1       2.448   8.852  17.222  0.00  0.00    +0.000 NA
ATOM      9  C   UNL     1       3.104   7.724  17.271  0.00  0.00    +0.000 A 
ATOM     10  N   UNL     1       2.928   7.077  18.466  0.00  0.00    +0.000 N 
ENDROOT
BRANCH  10  11
ATOM     11  C   UNL     1       3.475   5.783  18.834  0.00  0.00    +0.000 C 
ATOM     12  S   UNL     1       5.281   5.845  19.129  0.00  0.00    +0.000 S 
ATOM     13  C   UNL     1       5.671   4.337  18.171  0.00  0.00    +0.000 C 
ATOM     14  C   UNL     1       4.333   3.635  17.954  0.00  0.00    +0.000 C 
ATOM     15  C   UNL     1       3.245   4.701  17.767  0.00  0.00    +0.000 C 
BRANCH  13  16
ATOM     16  C   UNL     1       6.381   4.700  16.871  0.00  0.00    +0.000 C 
ATOM     17  O   UNL     1       7.330   5.474  16.822  0.00  0.00    +0.000 OA
ATOM     18  N   UNL     1       5.830   4.110  15.755  0.00  0.00    +0.000 N 
ATOM     19  H   UNL     1       5.137   3.380  15.874  0.00  0.00    +0.000 HD
BRANCH  18  20
ATOM     20  C   UNL     1       6.317   4.381  14.423  0.00  0.00    +0.000 C 
BRANCH  20  21
ATOM     21  C   UNL     1       5.733   3.384  13.472  0.00  0.00    +0.000 C 
ATOM     22  C   UNL     1       5.029   3.841  12.216  0.00  0.00    +0.000 C 
ATOM     23  C   UNL     1       6.357   3.145  12.119  0.00  0.00    +0.000 C 
ENDBRANCH  20  21
ENDBRANCH  18  20
ENDBRANCH  13  16
BRANCH  14  24
ATOM     24  O   UNL     1       3.975   2.807  19.078  0.00  0.00    +0.000 OA
ATOM     25  H   UNL     1       3.315   3.269  19.625  0.00  0.00    +0.000 HD
ENDBRANCH  14  24
BRANCH  15  26
ATOM     26  O   UNL     1       1.959   4.092  17.939  0.00  0.00    +0.000 OA
ATOM     27  H   UNL     1       1.972   3.256  17.426  0.00  0.00    +0.000 HD
ENDBRANCH  15  26
ENDBRANCH  10  11
BRANCH   1  28
ATOM     28  N   UNL     1       0.537  11.085  18.287  0.00  0.00    +0.000 N 
ATOM     29  H   UNL     1       1.379  11.572  17.992  0.00  0.00    +0.000 HD
BRANCH  28  30
ATOM     30  C   UNL     1      -0.353  11.999  19.015  0.00  0.00    +0.000 C 
BRANCH  30  37
ATOM     31  C   UNL     1      -2.874  12.645  20.702  0.00  0.00    +0.000 C 
ATOM     32  C   UNL     1      -2.931  12.089  19.305  0.00  0.00    +0.000 A 
ATOM     33  C   UNL     1      -4.202  11.823  18.759  0.00  0.00    +0.000 A 
ATOM     34  C   UNL     1      -4.344  11.273  17.484  0.00  0.00    +0.000 A 
ATOM     35  C   UNL     1      -3.215  10.975  16.732  0.00  0.00    +0.000 A 
ATOM     36  C   UNL     1      -1.951  11.232  17.256  0.00  0.00    +0.000 A 
ATOM     37  C   UNL     1      -1.781  11.798  18.537  0.00  0.00    +0.000 A 
ENDBRANCH  30  37
ENDBRANCH  28  30
ENDBRANCH   1  28
TORSDOF 9
ENDMDL
MODEL 7
REMARK VINA RESULT:      -8.0      1.774      2.865
REMARK  Name = 
REMARK  10 active torsions:
REMARK  status: ('A' for Active; 'I' for Inactive)
REMARK    1  A    between atoms: C_1  and  C_2
REMARK    2  A    between atoms: C_7  and  C_8
REMARK    3  A    between atoms: C_8  and  N_9
REMARK    4  A    between atoms: N_9  and  C_10
REMARK    5  A    between atoms: N_19  and  C_20
REMARK    6  A    between atoms: C_22  and  C_23
REMARK    7  A    between atoms: N_25  and  C_26
REMARK    8  A    between atoms: C_26  and  C_27
REMARK    9  A    between atoms: C_30  and  O_31
REMARK   10  A    between atoms: C_32  and  O_33
REMARK                            x       y       z     vdW  Elec       q    Type
REMARK                         _______ _______ _______ _____ _____    ______ ____
ROOT
ATOM      1  C   UNL     1       0.878  10.132  19.320  0.00  0.00    +0.000 A 
ATOM      2  N   UNL     1       0.345  10.214  20.566  0.00  0.00    +0.000 NA
ATOM      3  C   UNL     1       0.580   9.208  21.434  0.00  0.00    +0.000 A 
ATOM      4 CL   UNL     1      -0.097   9.399  22.996  0.00  0.00    +0.000 Cl
ATOM      5  N   UNL     1       1.264   8.060  21.244  0.00  0.00    +0.000 NA
ATOM      6  C   UNL     1       1.734   8.001  19.988  0.00  0.00    +0.000 A 
ATOM      7  C   UNL     1       1.599   8.964  19.000  0.00  0.00    +0.000 A 
ATOM      8  N   UNL     1       2.208   8.551  17.833  0.00  0.00    +0.000 NA
ATOM      9  C   UNL     1       2.700   7.372  18.104  0.00  0.00    +0.000 A 
ATOM     10  N   UNL     1       2.438   6.987  19.392  0.00  0.00    +0.000 N 
ENDROOT
BRANCH  10  11
ATOM     11  C   UNL     1       2.799   5.720  20.004  0.00  0.00    +0.000 C 
ATOM     12  S   UNL     1       4.499   5.194  19.571  0.00  0.00    +0.000 S 
ATOM     13  C   UNL     1       4.060   3.459  19.199  0.00  0.00    +0.000 C 
ATOM     14  C   UNL     1       2.660   3.260  19.773  0.00  0.00    +0.000 C 
ATOM     15  C   UNL     1       1.870   4.564  19.600  0.00  0.00    +0.000 C 
BRANCH  13  16
ATOM     16  C   UNL     1       4.140   3.199  17.697  0.00  0.00    +0.000 C 
ATOM     17  O   UNL     1       3.245   2.647  17.067  0.00  0.00    +0.000 OA
ATOM     18  N   UNL     1       5.327   3.603  17.127  0.00  0.00    +0.000 N 
ATOM     19  H   UNL     1       5.968   4.170  17.670  0.00  0.00    +0.000 HD
BRANCH  18  20
ATOM     20  C   UNL     1       5.622   3.383  15.730  0.00  0.00    +0.000 C 
BRANCH  20  21
ATOM     21  C   UNL     1       6.191   4.637  15.143  0.00  0.00    +0.000 C 
ATOM     22  C   UNL     1       5.433   5.939  15.232  0.00  0.00    +0.000 C 
ATOM     23  C   UNL     1       6.692   5.750  16.029  0.00  0.00    +0.000 C 
ENDBRANCH  20  21
ENDBRANCH  18  20
ENDBRANCH  13  16
BRANCH  14  24
ATOM     24  O   UNL     1       2.700   2.930  21.176  0.00  0.00    +0.000 OA
ATOM     25  H   UNL     1       3.530   2.462  21.376  0.00  0.00    +0.000 HD
ENDBRANCH  14  24
BRANCH  15  26
ATOM     26  O   UNL     1       0.716   4.529  20.450  0.00  0.00    +0.000 OA
ATOM     27  H   UNL     1       0.740   5.347  20.992  0.00  0.00    +0.000 HD
ENDBRANCH  15  26
ENDBRANCH  10  11
BRANCH   1  28
ATOM     28  N   UNL     1       0.630  11.184  18.426  0.00  0.00    +0.000 N 
ATOM     29  H   UNL     1       1.492  11.345  17.911  0.00  0.00    +0.000 HD
BRANCH  28  30
ATOM     30  C   UNL     1       0.139  12.439  19.010  0.00  0.00    +0.000 C 
BRANCH  30  37
ATOM     31  C   UNL     1      -0.459  15.473  19.253  0.00  0.00    +0.000 C 
ATOM     32  C   UNL     1       0.892  14.920  18.884  0.00  0.00    +0.000 A 
ATOM     33  C   UNL     1       1.921  15.841  18.605  0.00  0.00    +0.000 A 
ATOM     34  C   UNL     1       3.192  15.414  18.220  0.00  0.00    +0.000 A 
ATOM     35  C   UNL     1       3.458  14.056  18.103  0.00  0.00    +0.000 A 
ATOM     36  C   UNL     1       2.453  13.132  18.374  0.00  0.00    +0.000 A 
ATOM     37  C   UNL     1       1.163  13.537  18.777  0.00  0.00    +0.000 A 
ENDBRANCH  30  37
ENDBRANCH  28  30
ENDBRANCH   1  28
TORSDOF 9
ENDMDL
MODEL 8
REMARK VINA RESULT:      -7.9      2.501      3.549
REMARK  Name = 
REMARK  10 active torsions:
REMARK  status: ('A' for Active; 'I' for Inactive)
REMARK    1  A    between atoms: C_1  and  C_2
REMARK    2  A    between atoms: C_7  and  C_8
REMARK    3  A    between atoms: C_8  and  N_9
REMARK    4  A    between atoms: N_9  and  C_10
REMARK    5  A    between atoms: N_19  and  C_20
REMARK    6  A    between atoms: C_22  and  C_23
REMARK    7  A    between atoms: N_25  and  C_26
REMARK    8  A    between atoms: C_26  and  C_27
REMARK    9  A    between atoms: C_30  and  O_31
REMARK   10  A    between atoms: C_32  and  O_33
REMARK                            x       y       z     vdW  Elec       q    Type
REMARK                         _______ _______ _______ _____ _____    ______ ____
ROOT
ATOM      1  C   UNL     1       1.036  10.279  19.167  0.00  0.00    +0.000 A 
ATOM      2  N   UNL     1       0.514  10.070  20.403  0.00  0.00    +0.000 NA
ATOM      3  C   UNL     1       0.754   8.889  21.011  0.00  0.00    +0.000 A 
ATOM      4 CL   UNL     1       0.092   8.712  22.581  0.00  0.00    +0.000 Cl
ATOM      5  N   UNL     1       1.433   7.816  20.554  0.00  0.00    +0.000 NA
ATOM      6  C   UNL     1       1.892   8.051  19.314  0.00  0.00    +0.000 A 
ATOM      7  C   UNL     1       1.751   9.217  18.578  0.00  0.00    +0.000 A 
ATOM      8  N   UNL     1       2.348   9.086  17.342  0.00  0.00    +0.000 NA
ATOM      9  C   UNL     1       2.839   7.876  17.326  0.00  0.00    +0.000 A 
ATOM     10  N   UNL     1       2.588   7.202  18.493  0.00  0.00    +0.000 N 
ENDROOT
BRANCH  10  11
ATOM     11  C   UNL     1       2.952   5.828  18.790  0.00  0.00    +0.000 C 
ATOM     12  S   UNL     1       4.712   5.657  19.265  0.00  0.00    +0.000 S 
ATOM     13  C   UNL     1       5.040   4.198  18.213  0.00  0.00    +0.000 C 
ATOM     14  C   UNL     1       3.667   3.676  17.800  0.00  0.00    +0.000 C 
ATOM     15  C   UNL     1       2.725   4.871  17.608  0.00  0.00    +0.000 C 
BRANCH  13  16
ATOM     16  C   UNL     1       5.921   4.583  17.028  0.00  0.00    +0.000 C 
ATOM     17  O   UNL     1       7.000   5.150  17.155  0.00  0.00    +0.000 OA
ATOM     18  N   UNL     1       5.371   4.271  15.804  0.00  0.00    +0.000 N 
ATOM     19  H   UNL     1       4.544   3.685  15.769  0.00  0.00    +0.000 HD
BRANCH  18  20
ATOM     20  C   UNL     1       6.020   4.615  14.560  0.00  0.00    +0.000 C 
BRANCH  20  21
ATOM     21  C   UNL     1       5.891   3.471  13.604  0.00  0.00    +0.000 C 
ATOM     22  C   UNL     1       5.025   3.593  12.373  0.00  0.00    +0.000 C 
ATOM     23  C   UNL     1       6.519   3.530  12.235  0.00  0.00    +0.000 C 
ENDBRANCH  20  21
ENDBRANCH  18  20
ENDBRANCH  13  16
BRANCH  14  24
ATOM     24  O   UNL     1       3.104   2.804  18.802  0.00  0.00    +0.000 OA
ATOM     25  H   UNL     1       2.132   2.837  18.752  0.00  0.00    +0.000 HD
ENDBRANCH  14  24
BRANCH  15  26
ATOM     26  O   UNL     1       1.370   4.403  17.596  0.00  0.00    +0.000 OA
ATOM     27  H   UNL     1       0.818   5.147  17.273  0.00  0.00    +0.000 HD
ENDBRANCH  15  26
ENDBRANCH  10  11
BRANCH   1  28
ATOM     28  N   UNL     1       0.783  11.510  18.545  0.00  0.00    +0.000 N 
ATOM     29  H   UNL     1       1.548  11.678  17.897  0.00  0.00    +0.000 HD
BRANCH  28  30
ATOM     30  C   UNL     1       0.597  12.667  19.430  0.00  0.00    +0.000 C 
BRANCH  30  37
ATOM     31  C   UNL     1      -0.311  15.627  19.239  0.00  0.00    +0.000 C 
ATOM     32  C   UNL     1       1.070  15.157  18.869  0.00  0.00    +0.000 A 
ATOM     33  C   UNL     1       1.978  16.117  18.380  0.00  0.00    +0.000 A 
ATOM     34  C   UNL     1       3.265  15.761  17.980  0.00  0.00    +0.000 A 
ATOM     35  C   UNL     1       3.670  14.435  18.056  0.00  0.00    +0.000 A 
ATOM     36  C   UNL     1       2.787  13.472  18.537  0.00  0.00    +0.000 A 
ATOM     37  C   UNL     1       1.483  13.809  18.959  0.00  0.00    +0.000 A 
ENDBRANCH  30  37
ENDBRANCH  28  30
ENDBRANCH   1  28
TORSDOF 9
ENDMDL
MODEL 9
REMARK VINA RESULT:      -7.9      3.088      8.359
REMARK  Name = 
REMARK  10 active torsions:
REMARK  status: ('A' for Active; 'I' for Inactive)
REMARK    1  A    between atoms: C_1  and  C_2
REMARK    2  A    between atoms: C_7  and  C_8
REMARK    3  A    between atoms: C_8  and  N_9
REMARK    4  A    between atoms: N_9  and  C_10
REMARK    5  A    between atoms: N_19  and  C_20
REMARK    6  A    between atoms: C_22  and  C_23
REMARK    7  A    between atoms: N_25  and  C_26
REMARK    8  A    between atoms: C_26  and  C_27
REMARK    9  A    between atoms: C_30  and  O_31
REMARK   10  A    between atoms: C_32  and  O_33
REMARK                            x       y       z     vdW  Elec       q    Type
REMARK                         _______ _______ _______ _____ _____    ______ ____
ROOT
ATOM      1  C   UNL     1       3.066   4.709  18.616  0.00  0.00    +0.000 A 
ATOM      2  N   UNL     1       2.818   3.686  19.474  0.00  0.00    +0.000 NA
ATOM      3  C   UNL     1       2.116   3.944  20.597  0.00  0.00    +0.000 A 
ATOM      4 CL   UNL     1       1.815   2.598  21.613  0.00  0.00    +0.000 Cl
ATOM      5  N   UNL     1       1.624   5.119  21.046  0.00  0.00    +0.000 NA
ATOM      6  C   UNL     1       1.930   6.107  20.190  0.00  0.00    +0.000 A 
ATOM      7  C   UNL     1       2.615   5.991  18.990  0.00  0.00    +0.000 A 
ATOM      8  N   UNL     1       2.748   7.224  18.386  0.00  0.00    +0.000 NA
ATOM      9  C   UNL     1       2.160   8.065  19.193  0.00  0.00    +0.000 A 
ATOM     10  N   UNL     1       1.651   7.445  20.304  0.00  0.00    +0.000 N 
ENDROOT
BRANCH  10  11
ATOM     11  C   UNL     1       0.980   8.088  21.420  0.00  0.00    +0.000 C 
ATOM     12  S   UNL     1      -0.803   8.358  21.101  0.00  0.00    +0.000 S 
ATOM     13  C   UNL     1      -0.835  10.080  21.712  0.00  0.00    +0.000 C 
ATOM     14  C   UNL     1       0.472  10.266  22.479  0.00  0.00    +0.000 C 
ATOM     15  C   UNL     1       1.572   9.461  21.773  0.00  0.00    +0.000 C 
BRANCH  13  16
ATOM     16  C   UNL     1      -0.997  11.056  20.550  0.00  0.00    +0.000 C 
ATOM     17  O   UNL     1      -0.907  12.271  20.681  0.00  0.00    +0.000 OA
ATOM     18  N   UNL     1      -1.296  10.445  19.352  0.00  0.00    +0.000 N 
ATOM     19  H   UNL     1      -1.225   9.436  19.280  0.00  0.00    +0.000 HD
BRANCH  18  20
ATOM     20  C   UNL     1      -1.553  11.200  18.148  0.00  0.00    +0.000 C 
BRANCH  20  21
ATOM     21  C   UNL     1      -2.545  10.462  17.305  0.00  0.00    +0.000 C 
ATOM     22  C   UNL     1      -3.771  11.163  16.770  0.00  0.00    +0.000 C 
ATOM     23  C   UNL     1      -2.674  10.749  15.830  0.00  0.00    +0.000 C 
ENDBRANCH  20  21
ENDBRANCH  18  20
ENDBRANCH  13  16
BRANCH  14  24
ATOM     24  O   UNL     1       0.364   9.800  23.839  0.00  0.00    +0.000 OA
ATOM     25  H   UNL     1       0.961   9.043  23.971  0.00  0.00    +0.000 HD
ENDBRANCH  14  24
BRANCH  15  26
ATOM     26  O   UNL     1       2.686   9.313  22.662  0.00  0.00    +0.000 OA
ATOM     27  H   UNL     1       2.961  10.218  22.923  0.00  0.00    +0.000 HD
ENDBRANCH  15  26
ENDBRANCH  10  11
BRANCH   1  28
ATOM     28  N   UNL     1       3.794   4.430  17.451  0.00  0.00    +0.000 N 
ATOM     29  H   UNL     1       3.262   3.742  16.926  0.00  0.00    +0.000 HD
BRANCH  28  30
ATOM     30  C   UNL     1       5.178   3.975  17.635  0.00  0.00    +0.000 C 
BRANCH  30  37
ATOM     31  C   UNL     1       5.224   6.416  15.723  0.00  0.00    +0.000 C 
ATOM     32  C   UNL     1       6.111   6.293  16.932  0.00  0.00    +0.000 A 
ATOM     33  C   UNL     1       7.029   7.332  17.178  0.00  0.00    +0.000 A 
ATOM     34  C   UNL     1       7.914   7.280  18.256  0.00  0.00    +0.000 A 
ATOM     35  C   UNL     1       7.900   6.183  19.107  0.00  0.00    +0.000 A 
ATOM     36  C   UNL     1       7.000   5.146  18.879  0.00  0.00    +0.000 A 
ATOM     37  C   UNL     1       6.087   5.181  17.804  0.00  0.00    +0.000 A 
ENDBRANCH  30  37
ENDBRANCH  28  30
ENDBRANCH   1  28
TORSDOF 9
ENDMDL
