MODEL 1
REMARK VINA RESULT:      -8.4      0.000      0.000
REMARK  Name = 
REMARK  6 active torsions:
REMARK  status: ('A' for Active; 'I' for Inactive)
REMARK    1  A    between atoms: C_2  and  O_3
REMARK    2  A    between atoms: C_2  and  C_4
REMARK    3  A    between atoms: C_5  and  C_6
REMARK    4  A    between atoms: C_9  and  C_10
REMARK    5  A    between atoms: C_11  and  C_12
REMARK    6  A    between atoms: C_15  and  O_16
REMARK                            x       y       z     vdW  Elec       q    Type
REMARK                         _______ _______ _______ _____ _____    ______ ____
ROOT
ATOM      1  C   UNL     1       0.890  11.127  20.047  0.00  0.00    +0.000 C 
ATOM      2  C   UNL     1      -0.451  10.972  20.284  0.00  0.00    +0.000 C 
ATOM      3  C   UNL     1      -0.951  11.315  21.683  0.00  0.00    +0.000 C 
ATOM      4  C   UNL     1      -1.744  12.604  21.825  0.00  0.00    +0.000 C 
ATOM      5  S   UNL     1      -0.665  14.004  21.533  0.00  0.00    +0.000 S 
ATOM      6  C   UNL     1      -0.143  13.514  19.729  0.00  0.00    +0.000 A 
ATOM      7  C   UNL     1      -0.354  14.710  19.021  0.00  0.00    +0.000 A 
ATOM      8  C   UNL     1       0.773  15.408  18.739  0.00  0.00    +0.000 A 
ATOM      9  F   UNL     1       0.676  16.687  18.325  0.00  0.00    +0.000 F 
ATOM     10  C   UNL     1       2.028  14.853  19.034  0.00  0.00    +0.000 A 
ATOM     11  C   UNL     1       2.179  13.471  19.441  0.00  0.00    +0.000 A 
ATOM     12  C   UNL     1       1.060  12.680  19.704  0.00  0.00    +0.000 A 
ENDROOT
BRANCH   1  16
ATOM     13  C   UNL     1       2.565   7.036  18.540  0.00  0.00    +0.000 A 
ATOM     14  C   UNL     1       1.962   7.160  19.822  0.00  0.00    +0.000 A 
ATOM     15  C   UNL     1       1.330   8.391  20.329  0.00  0.00    +0.000 A 
ATOM     16  C   UNL     1       1.256   9.584  19.581  0.00  0.00    +0.000 A 
ATOM     17  C   UNL     1       1.874   9.407  18.291  0.00  0.00    +0.000 A 
ATOM     18  C   UNL     1       2.518   8.210  17.802  0.00  0.00    +0.000 A 
BRANCH  13  20
ATOM     19  C   UNL     1       2.719   4.537  18.051  0.00  0.00    +0.000 C 
ATOM     20  C   UNL     1       3.200   5.794  17.963  0.00  0.00    +0.000 C 
BRANCH  19  22
ATOM     21  O   UNL     1       2.339   2.353  17.250  0.00  0.00    +0.000 OA
ATOM     22  C   UNL     1       3.159   3.225  17.496  0.00  0.00    +0.000 C 
BRANCH  22  23
ATOM     23  O   UNL     1       4.466   3.043  17.260  0.00  0.00    +0.000 OA
ATOM     24  H   UNL     1       4.856   3.545  16.531  0.00  0.00    +0.000 HD
ENDBRANCH  22  23
ENDBRANCH  19  22
ENDBRANCH  13  20
ENDBRANCH   1  16
BRANCH   2  25
ATOM     25  C   UNL     1      -1.338  10.926  19.056  0.00  0.00    +0.000 A 
ATOM     26  C   UNL     1      -2.581  11.629  19.058  0.00  0.00    +0.000 A 
ATOM     27  C   UNL     1      -3.520  11.527  18.040  0.00  0.00    +0.000 A 
ATOM     28  C   UNL     1      -3.220  10.700  16.973  0.00  0.00    +0.000 A 
ATOM     29  C   UNL     1      -1.998  10.038  16.912  0.00  0.00    +0.000 A 
ATOM     30  C   UNL     1      -1.056  10.151  17.948  0.00  0.00    +0.000 A 
BRANCH  28  31
ATOM     31  O   UNL     1      -4.113  10.562  15.960  0.00  0.00    +0.000 OA
ATOM     32  H   UNL     1      -3.803   9.842  15.380  0.00  0.00    +0.000 HD
ENDBRANCH  28  31
ENDBRANCH   2  25
TORSDOF 6
ENDMDL
MODEL 2
REMARK VINA RESULT:      -8.2      0.778      1.233
REMARK  Name = 
REMARK  6 active torsions:
REMARK  status: ('A' for Active; 'I' for Inactive)
REMARK    1  A    between atoms: C_2  and  O_3
REMARK    2  A    between atoms: C_2  and  C_4
REMARK    3  A    between atoms: C_5  and  C_6
REMARK    4  A    between atoms: C_9  and  C_10
REMARK    5  A    between atoms: C_11  and  C_12
REMARK    6  A    between atoms: C_15  and  O_16
REMARK                            x       y       z     vdW  Elec       q    Type
REMARK                         _______ _______ _______ _____ _____    ______ ____
ROOT
ATOM      1  C   UNL     1       0.966  11.378  20.075  0.00  0.00    +0.000 C 
ATOM      2  C   UNL     1      -0.313  11.211  20.538  0.00  0.00    +0.000 C 
ATOM      3  C   UNL     1      -0.578  11.594  21.990  0.00  0.00    +0.000 C 
ATOM      4  C   UNL     1      -1.362  12.875  22.223  0.00  0.00    +0.000 C 
ATOM      5  S   UNL     1      -0.376  14.280  21.712  0.00  0.00    +0.000 S 
ATOM      6  C   UNL     1      -0.154  13.738  19.861  0.00  0.00    +0.000 A 
ATOM      7  C   UNL     1      -0.504  14.906  19.163  0.00  0.00    +0.000 A 
ATOM      8  C   UNL     1       0.546  15.610  18.674  0.00  0.00    +0.000 A 
ATOM      9  F   UNL     1       0.355  16.873  18.243  0.00  0.00    +0.000 F 
ATOM     10  C   UNL     1       1.843  15.085  18.771  0.00  0.00    +0.000 A 
ATOM     11  C   UNL     1       2.088  13.719  19.188  0.00  0.00    +0.000 A 
ATOM     12  C   UNL     1       1.045  12.921  19.661  0.00  0.00    +0.000 A 
ENDROOT
BRANCH   1  16
ATOM     13  C   UNL     1       2.495   7.244  18.529  0.00  0.00    +0.000 A 
ATOM     14  C   UNL     1       1.928   7.384  19.827  0.00  0.00    +0.000 A 
ATOM     15  C   UNL     1       1.342   8.631  20.348  0.00  0.00    +0.000 A 
ATOM     16  C   UNL     1       1.280   9.826  19.601  0.00  0.00    +0.000 A 
ATOM     17  C   UNL     1       1.859   9.632  18.295  0.00  0.00    +0.000 A 
ATOM     18  C   UNL     1       2.459   8.419  17.791  0.00  0.00    +0.000 A 
BRANCH  13  20
ATOM     19  C   UNL     1       4.216   5.372  18.334  0.00  0.00    +0.000 C 
ATOM     20  C   UNL     1       3.082   5.986  17.938  0.00  0.00    +0.000 C 
BRANCH  19  22
ATOM     21  O   UNL     1       4.707   3.632  16.820  0.00  0.00    +0.000 OA
ATOM     22  C   UNL     1       4.901   4.111  17.928  0.00  0.00    +0.000 C 
BRANCH  22  23
ATOM     23  O   UNL     1       5.741   3.538  18.801  0.00  0.00    +0.000 OA
ATOM     24  H   UNL     1       6.243   2.771  18.491  0.00  0.00    +0.000 HD
ENDBRANCH  22  23
ENDBRANCH  19  22
ENDBRANCH  13  20
ENDBRANCH   1  16
BRANCH   2  25
ATOM     25  C   UNL     1      -1.392  11.111  19.479  0.00  0.00    +0.000 A 
ATOM     26  C   UNL     1      -1.145  10.362  18.288  0.00  0.00    +0.000 A 
ATOM     27  C   UNL     1      -2.015  10.335  17.206  0.00  0.00    +0.000 A 
ATOM     28  C   UNL     1      -3.178  11.075  17.302  0.00  0.00    +0.000 A 
ATOM     29  C   UNL     1      -3.478  11.778  18.464  0.00  0.00    +0.000 A 
ATOM     30  C   UNL     1      -2.590  11.796  19.553  0.00  0.00    +0.000 A 
BRANCH  28  31
ATOM     31  O   UNL     1      -4.054  11.085  16.264  0.00  0.00    +0.000 OA
ATOM     32  H   UNL     1      -4.825  11.622  16.523  0.00  0.00    +0.000 HD
ENDBRANCH  28  31
ENDBRANCH   2  25
TORSDOF 6
ENDMDL
MODEL 3
REMARK VINA RESULT:      -8.1      0.711      1.024
REMARK  Name = 
REMARK  6 active torsions:
REMARK  status: ('A' for Active; 'I' for Inactive)
REMARK    1  A    between atoms: C_2  and  O_3
REMARK    2  A    between atoms: C_2  and  C_4
REMARK    3  A    between atoms: C_5  and  C_6
REMARK    4  A    between atoms: C_9  and  C_10
REMARK    5  A    between atoms: C_11  and  C_12
REMARK    6  A    between atoms: C_15  and  O_16
REMARK                            x       y       z     vdW  Elec       q    Type
REMARK                         _______ _______ _______ _____ _____    ______ ____
ROOT
ATOM      1  C   UNL     1       1.047  11.062  20.027  0.00  0.00    +0.000 C 
ATOM      2  C   UNL     1      -0.286  10.942  20.317  0.00  0.00    +0.000 C 
ATOM      3  C   UNL     1      -0.722  11.298  21.734  0.00  0.00    +0.000 C 
ATOM      4  C   UNL     1      -1.475  12.606  21.906  0.00  0.00    +0.000 C 
ATOM      5  S   UNL     1      -0.373  13.978  21.571  0.00  0.00    +0.000 S 
ATOM      6  C   UNL     1       0.065  13.475  19.748  0.00  0.00    +0.000 A 
ATOM      7  C   UNL     1      -0.142  14.676  19.048  0.00  0.00    +0.000 A 
ATOM      8  C   UNL     1       0.991  15.344  18.721  0.00  0.00    +0.000 A 
ATOM      9  F   UNL     1       0.910  16.625  18.310  0.00  0.00    +0.000 F 
ATOM     10  C   UNL     1       2.241  14.758  18.967  0.00  0.00    +0.000 A 
ATOM     11  C   UNL     1       2.372  13.371  19.368  0.00  0.00    +0.000 A 
ATOM     12  C   UNL     1       1.244  12.610  19.676  0.00  0.00    +0.000 A 
ENDROOT
BRANCH   1  16
ATOM     13  C   UNL     1       2.567   6.922  18.487  0.00  0.00    +0.000 A 
ATOM     14  C   UNL     1       1.966   7.058  19.769  0.00  0.00    +0.000 A 
ATOM     15  C   UNL     1       1.381   8.308  20.285  0.00  0.00    +0.000 A 
ATOM     16  C   UNL     1       1.355   9.510  19.548  0.00  0.00    +0.000 A 
ATOM     17  C   UNL     1       1.968   9.321  18.258  0.00  0.00    +0.000 A 
ATOM     18  C   UNL     1       2.566   8.104  17.759  0.00  0.00    +0.000 A 
BRANCH  13  20
ATOM     19  C   UNL     1       4.369   5.540  17.326  0.00  0.00    +0.000 C 
ATOM     20  C   UNL     1       3.154   5.662  17.901  0.00  0.00    +0.000 C 
BRANCH  19  22
ATOM     21  O   UNL     1       6.055   4.579  15.988  0.00  0.00    +0.000 OA
ATOM     22  C   UNL     1       5.134   4.388  16.769  0.00  0.00    +0.000 C 
BRANCH  22  23
ATOM     23  O   UNL     1       4.795   3.153  17.163  0.00  0.00    +0.000 OA
ATOM     24  H   UNL     1       3.875   3.012  17.428  0.00  0.00    +0.000 HD
ENDBRANCH  22  23
ENDBRANCH  19  22
ENDBRANCH  13  20
ENDBRANCH   1  16
BRANCH   2  25
ATOM     25  C   UNL     1      -1.222  10.919  19.125  0.00  0.00    +0.000 A 
ATOM     26  C   UNL     1      -2.442  11.661  19.172  0.00  0.00    +0.000 A 
ATOM     27  C   UNL     1      -3.423  11.584  18.192  0.00  0.00    +0.000 A 
ATOM     28  C   UNL     1      -3.191  10.744  17.119  0.00  0.00    +0.000 A 
ATOM     29  C   UNL     1      -1.994  10.043  17.013  0.00  0.00    +0.000 A 
ATOM     30  C   UNL     1      -1.009  10.130  18.011  0.00  0.00    +0.000 A 
BRANCH  28  31
ATOM     31  O   UNL     1      -4.127  10.631  16.142  0.00  0.00    +0.000 OA
ATOM     32  H   UNL     1      -4.988  10.897  16.515  0.00  0.00    +0.000 HD
ENDBRANCH  28  31
ENDBRANCH   2  25
TORSDOF 6
ENDMDL
MODEL 4
REMARK VINA RESULT:      -8.1      0.372      1.113
REMARK  Name = 
REMARK  6 active torsions:
REMARK  status: ('A' for Active; 'I' for Inactive)
REMARK    1  A    between atoms: C_2  and  O_3
REMARK    2  A    between atoms: C_2  and  C_4
REMARK    3  A    between atoms: C_5  and  C_6
REMARK    4  A    between atoms: C_9  and  C_10
REMARK    5  A    between atoms: C_11  and  C_12
REMARK    6  A    between atoms: C_15  and  O_16
REMARK                            x       y       z     vdW  Elec       q    Type
REMARK                         _______ _______ _______ _____ _____    ______ ____
ROOT
ATOM      1  C   UNL     1       1.096  11.141  20.073  0.00  0.00    +0.000 C 
ATOM      2  C   UNL     1      -0.194  11.037  20.523  0.00  0.00    +0.000 C 
ATOM      3  C   UNL     1      -0.456  11.436  21.971  0.00  0.00    +0.000 C 
ATOM      4  C   UNL     1      -1.181  12.753  22.193  0.00  0.00    +0.000 C 
ATOM      5  S   UNL     1      -0.125  14.108  21.688  0.00  0.00    +0.000 S 
ATOM      6  C   UNL     1       0.091  13.550  19.842  0.00  0.00    +0.000 A 
ATOM      7  C   UNL     1      -0.196  14.732  19.137  0.00  0.00    +0.000 A 
ATOM      8  C   UNL     1       0.891  15.384  18.657  0.00  0.00    +0.000 A 
ATOM      9  F   UNL     1       0.764  16.653  18.221  0.00  0.00    +0.000 F 
ATOM     10  C   UNL     1       2.161  14.798  18.770  0.00  0.00    +0.000 A 
ATOM     11  C   UNL     1       2.337  13.424  19.193  0.00  0.00    +0.000 A 
ATOM     12  C   UNL     1       1.252  12.677  19.656  0.00  0.00    +0.000 A 
ENDROOT
BRANCH   1  16
ATOM     13  C   UNL     1       2.439   6.938  18.539  0.00  0.00    +0.000 A 
ATOM     14  C   UNL     1       1.894   7.110  19.842  0.00  0.00    +0.000 A 
ATOM     15  C   UNL     1       1.364   8.383  20.361  0.00  0.00    +0.000 A 
ATOM     16  C   UNL     1       1.342   9.574  19.607  0.00  0.00    +0.000 A 
ATOM     17  C   UNL     1       1.897   9.349  18.296  0.00  0.00    +0.000 A 
ATOM     18  C   UNL     1       2.442   8.109  17.793  0.00  0.00    +0.000 A 
BRANCH  13  20
ATOM     19  C   UNL     1       2.564   4.406  18.264  0.00  0.00    +0.000 C 
ATOM     20  C   UNL     1       2.968   5.654  17.950  0.00  0.00    +0.000 C 
BRANCH  19  22
ATOM     21  O   UNL     1       4.067   2.776  17.461  0.00  0.00    +0.000 OA
ATOM     22  C   UNL     1       2.911   3.051  17.747  0.00  0.00    +0.000 C 
BRANCH  22  23
ATOM     23  O   UNL     1       1.927   2.148  17.628  0.00  0.00    +0.000 OA
ATOM     24  H   UNL     1       1.493   2.081  16.766  0.00  0.00    +0.000 HD
ENDBRANCH  22  23
ENDBRANCH  19  22
ENDBRANCH  13  20
ENDBRANCH   1  16
BRANCH   2  25
ATOM     25  C   UNL     1      -1.265  10.984  19.453  0.00  0.00    +0.000 A 
ATOM     26  C   UNL     1      -1.034  10.236  18.258  0.00  0.00    +0.000 A 
ATOM     27  C   UNL     1      -1.893  10.249  17.167  0.00  0.00    +0.000 A 
ATOM     28  C   UNL     1      -3.030  11.030  17.258  0.00  0.00    +0.000 A 
ATOM     29  C   UNL     1      -3.315  11.734  18.424  0.00  0.00    +0.000 A 
ATOM     30  C   UNL     1      -2.438  11.711  19.521  0.00  0.00    +0.000 A 
BRANCH  28  31
ATOM     31  O   UNL     1      -3.894  11.081  16.212  0.00  0.00    +0.000 OA
ATOM     32  H   UNL     1      -4.171  10.169  16.004  0.00  0.00    +0.000 HD
ENDBRANCH  28  31
ENDBRANCH   2  25
TORSDOF 6
ENDMDL
MODEL 5
REMARK VINA RESULT:      -7.9      1.494      1.685
REMARK  Name = 
REMARK  6 active torsions:
REMARK  status: ('A' for Active; 'I' for Inactive)
REMARK    1  A    between atoms: C_2  and  O_3
REMARK    2  A    between atoms: C_2  and  C_4
REMARK    3  A    between atoms: C_5  and  C_6
REMARK    4  A    between atoms: C_9  and  C_10
REMARK    5  A    between atoms: C_11  and  C_12
REMARK    6  A    between atoms: C_15  and  O_16
REMARK                            x       y       z     vdW  Elec       q    Type
REMARK                         _______ _______ _______ _____ _____    ______ ____
ROOT
ATOM      1  C   UNL     1       0.611  11.371  20.703  0.00  0.00    +0.000 C 
ATOM      2  C   UNL     1      -0.752  11.474  20.787  0.00  0.00    +0.000 C 
ATOM      3  C   UNL     1      -1.319  12.161  22.025  0.00  0.00    +0.000 C 
ATOM      4  C   UNL     1      -1.883  13.559  21.828  0.00  0.00    +0.000 C 
ATOM      5  S   UNL     1      -0.551  14.690  21.433  0.00  0.00    +0.000 S 
ATOM      6  C   UNL     1       0.051  13.777  19.830  0.00  0.00    +0.000 A 
ATOM      7  C   UNL     1       0.125  14.827  18.897  0.00  0.00    +0.000 A 
ATOM      8  C   UNL     1       1.380  15.272  18.644  0.00  0.00    +0.000 A 
ATOM      9  F   UNL     1       1.550  16.442  17.998  0.00  0.00    +0.000 F 
ATOM     10  C   UNL     1       2.482  14.601  19.194  0.00  0.00    +0.000 A 
ATOM     11  C   UNL     1       2.347  13.320  19.858  0.00  0.00    +0.000 A 
ATOM     12  C   UNL     1       1.085  12.779  20.112  0.00  0.00    +0.000 A 
ENDROOT
BRANCH   1  16
ATOM     13  C   UNL     1       1.697   6.845  20.307  0.00  0.00    +0.000 A 
ATOM     14  C   UNL     1       0.822   7.308  21.328  0.00  0.00    +0.000 A 
ATOM     15  C   UNL     1       0.361   8.701  21.460  0.00  0.00    +0.000 A 
ATOM     16  C   UNL     1       0.744   9.728  20.573  0.00  0.00    +0.000 A 
ATOM     17  C   UNL     1       1.624   9.210  19.555  0.00  0.00    +0.000 A 
ATOM     18  C   UNL     1       2.099   7.851  19.439  0.00  0.00    +0.000 A 
BRANCH  13  20
ATOM     19  C   UNL     1       2.132   4.437  21.025  0.00  0.00    +0.000 C 
ATOM     20  C   UNL     1       2.177   5.428  20.112  0.00  0.00    +0.000 C 
BRANCH  19  22
ATOM     21  O   UNL     1       2.814   2.409  22.016  0.00  0.00    +0.000 OA
ATOM     22  C   UNL     1       2.484   2.988  20.992  0.00  0.00    +0.000 C 
BRANCH  22  23
ATOM     23  O   UNL     1       2.408   2.345  19.818  0.00  0.00    +0.000 OA
ATOM     24  H   UNL     1       2.600   1.397  19.822  0.00  0.00    +0.000 HD
ENDBRANCH  22  23
ENDBRANCH  19  22
ENDBRANCH  13  20
ENDBRANCH   1  16
BRANCH   2  25
ATOM     25  C   UNL     1      -1.509  11.323  19.482  0.00  0.00    +0.000 A 
ATOM     26  C   UNL     1      -2.820  11.876  19.359  0.00  0.00    +0.000 A 
ATOM     27  C   UNL     1      -3.640  11.662  18.259  0.00  0.00    +0.000 A 
ATOM     28  C   UNL     1      -3.147  10.874  17.236  0.00  0.00    +0.000 A 
ATOM     29  C   UNL     1      -1.856  10.359  17.298  0.00  0.00    +0.000 A 
ATOM     30  C   UNL     1      -1.035  10.583  18.416  0.00  0.00    +0.000 A 
BRANCH  28  31
ATOM     31  O   UNL     1      -3.918  10.631  16.146  0.00  0.00    +0.000 OA
ATOM     32  H   UNL     1      -4.722  10.165  16.441  0.00  0.00    +0.000 HD
ENDBRANCH  28  31
ENDBRANCH   2  25
TORSDOF 6
ENDMDL
MODEL 6
REMARK VINA RESULT:      -7.9      5.683      7.469
REMARK  Name = 
REMARK  6 active torsions:
REMARK  status: ('A' for Active; 'I' for Inactive)
REMARK    1  A    between atoms: C_2  and  O_3
REMARK    2  A    between atoms: C_2  and  C_4
REMARK    3  A    between atoms: C_5  and  C_6
REMARK    4  A    between atoms: C_9  and  C_10
REMARK    5  A    between atoms: C_11  and  C_12
REMARK    6  A    between atoms: C_15  and  O_16
REMARK                            x       y       z     vdW  Elec       q    Type
REMARK                         _______ _______ _______ _____ _____    ______ ____
ROOT
ATOM      1  C   UNL     1      -4.881  12.306  20.695  0.00  0.00    +0.000 C 
ATOM      2  C   UNL     1      -6.191  12.686  20.571  0.00  0.00    +0.000 C 
ATOM      3  C   UNL     1      -7.225  11.870  21.339  0.00  0.00    +0.000 C 
ATOM      4  C   UNL     1      -7.835  12.527  22.566  0.00  0.00    +0.000 C 
ATOM      5  S   UNL     1      -6.582  12.706  23.834  0.00  0.00    +0.000 S 
ATOM      6  C   UNL     1      -5.363  13.801  22.793  0.00  0.00    +0.000 A 
ATOM      7  C   UNL     1      -5.086  14.860  23.675  0.00  0.00    +0.000 A 
ATOM      8  C   UNL     1      -3.879  14.788  24.286  0.00  0.00    +0.000 A 
ATOM      9  F   UNL     1      -3.625  15.577  25.348  0.00  0.00    +0.000 F 
ATOM     10  C   UNL     1      -2.970  13.785  23.916  0.00  0.00    +0.000 A 
ATOM     11  C   UNL     1      -3.186  12.944  22.756  0.00  0.00    +0.000 A 
ATOM     12  C   UNL     1      -4.389  12.999  22.051  0.00  0.00    +0.000 A 
ENDROOT
BRANCH   1  16
ATOM     13  C   UNL     1      -3.520  10.975  16.430  0.00  0.00    +0.000 A 
ATOM     14  C   UNL     1      -4.886  11.250  16.718  0.00  0.00    +0.000 A 
ATOM     15  C   UNL     1      -5.377  11.761  18.009  0.00  0.00    +0.000 A 
ATOM     16  C   UNL     1      -4.531  12.037  19.102  0.00  0.00    +0.000 A 
ATOM     17  C   UNL     1      -3.160  11.749  18.762  0.00  0.00    +0.000 A 
ATOM     18  C   UNL     1      -2.678  11.222  17.506  0.00  0.00    +0.000 A 
BRANCH  13  20
ATOM     19  C   UNL     1      -3.675  10.124  14.031  0.00  0.00    +0.000 C 
ATOM     20  C   UNL     1      -2.961  10.477  15.120  0.00  0.00    +0.000 C 
BRANCH  19  22
ATOM     21  O   UNL     1      -4.169   9.519  11.806  0.00  0.00    +0.000 OA
ATOM     22  C   UNL     1      -3.305   9.688  12.653  0.00  0.00    +0.000 C 
BRANCH  22  23
ATOM     23  O   UNL     1      -2.006   9.510  12.374  0.00  0.00    +0.000 OA
ATOM     24  H   UNL     1      -1.464  10.305  12.270  0.00  0.00    +0.000 HD
ENDBRANCH  22  23
ENDBRANCH  19  22
ENDBRANCH  13  20
ENDBRANCH   1  16
BRANCH   2  25
ATOM     25  C   UNL     1      -6.425  14.101  20.080  0.00  0.00    +0.000 A 
ATOM     26  C   UNL     1      -5.350  15.041  20.097  0.00  0.00    +0.000 A 
ATOM     27  C   UNL     1      -5.507  16.389  19.805  0.00  0.00    +0.000 A 
ATOM     28  C   UNL     1      -6.776  16.830  19.479  0.00  0.00    +0.000 A 
ATOM     29  C   UNL     1      -7.839  15.936  19.404  0.00  0.00    +0.000 A 
ATOM     30  C   UNL     1      -7.667  14.573  19.700  0.00  0.00    +0.000 A 
BRANCH  28  31
ATOM     31  O   UNL     1      -6.978  18.142  19.196  0.00  0.00    +0.000 OA
ATOM     32  H   UNL     1      -6.106  18.571  19.109  0.00  0.00    +0.000 HD
ENDBRANCH  28  31
ENDBRANCH   2  25
TORSDOF 6
ENDMDL
MODEL 7
REMARK VINA RESULT:      -7.8      1.200      1.270
REMARK  Name = 
REMARK  6 active torsions:
REMARK  status: ('A' for Active; 'I' for Inactive)
REMARK    1  A    between atoms: C_2  and  O_3
REMARK    2  A    between atoms: C_2  and  C_4
REMARK    3  A    between atoms: C_5  and  C_6
REMARK    4  A    between atoms: C_9  and  C_10
REMARK    5  A    between atoms: C_11  and  C_12
REMARK    6  A    between atoms: C_15  and  O_16
REMARK                            x       y       z     vdW  Elec       q    Type
REMARK                         _______ _______ _______ _____ _____    ______ ____
ROOT
ATOM      1  C   UNL     1       0.705  11.913  20.026  0.00  0.00    +0.000 C 
ATOM      2  C   UNL     1      -0.599  11.778  20.423  0.00  0.00    +0.000 C 
ATOM      3  C   UNL     1      -0.932  12.183  21.855  0.00  0.00    +0.000 C 
ATOM      4  C   UNL     1      -1.700  13.482  22.032  0.00  0.00    +0.000 C 
ATOM      5  S   UNL     1      -0.659  14.861  21.559  0.00  0.00    +0.000 S 
ATOM      6  C   UNL     1      -0.352  14.292  19.728  0.00  0.00    +0.000 A 
ATOM      7  C   UNL     1      -0.640  15.459  19.000  0.00  0.00    +0.000 A 
ATOM      8  C   UNL     1       0.449  16.136  18.559  0.00  0.00    +0.000 A 
ATOM      9  F   UNL     1       0.307  17.397  18.106  0.00  0.00    +0.000 F 
ATOM     10  C   UNL     1       1.728  15.585  18.730  0.00  0.00    +0.000 A 
ATOM     11  C   UNL     1       1.921  14.219  19.175  0.00  0.00    +0.000 A 
ATOM     12  C   UNL     1       0.838  13.449  19.600  0.00  0.00    +0.000 A 
ENDROOT
BRANCH   1  16
ATOM     13  C   UNL     1       2.223   7.732  18.598  0.00  0.00    +0.000 A 
ATOM     14  C   UNL     1       1.608   7.900  19.870  0.00  0.00    +0.000 A 
ATOM     15  C   UNL     1       1.023   9.164  20.350  0.00  0.00    +0.000 A 
ATOM     16  C   UNL     1       1.011  10.349  19.586  0.00  0.00    +0.000 A 
ATOM     17  C   UNL     1       1.638  10.128  18.307  0.00  0.00    +0.000 A 
ATOM     18  C   UNL     1       2.237   8.897  17.843  0.00  0.00    +0.000 A 
BRANCH  13  20
ATOM     19  C   UNL     1       4.104   6.250  17.723  0.00  0.00    +0.000 C 
ATOM     20  C   UNL     1       2.812   6.457  18.048  0.00  0.00    +0.000 C 
BRANCH  19  22
ATOM     21  O   UNL     1       5.256   4.217  18.038  0.00  0.00    +0.000 OA
ATOM     22  C   UNL     1       4.869   5.062  17.245  0.00  0.00    +0.000 C 
BRANCH  22  23
ATOM     23  O   UNL     1       5.097   4.944  15.929  0.00  0.00    +0.000 OA
ATOM     24  H   UNL     1       5.311   4.061  15.596  0.00  0.00    +0.000 HD
ENDBRANCH  22  23
ENDBRANCH  19  22
ENDBRANCH  13  20
ENDBRANCH   1  16
BRANCH   2  25
ATOM     25  C   UNL     1      -1.623  11.688  19.309  0.00  0.00    +0.000 A 
ATOM     26  C   UNL     1      -2.983  12.039  19.571  0.00  0.00    +0.000 A 
ATOM     27  C   UNL     1      -4.012  11.850  18.658  0.00  0.00    +0.000 A 
ATOM     28  C   UNL     1      -3.687  11.295  17.434  0.00  0.00    +0.000 A 
ATOM     29  C   UNL     1      -2.367  10.987  17.123  0.00  0.00    +0.000 A 
ATOM     30  C   UNL     1      -1.334  11.184  18.056  0.00  0.00    +0.000 A 
BRANCH  28  31
ATOM     31  O   UNL     1      -4.663  11.084  16.513  0.00  0.00    +0.000 OA
ATOM     32  H   UNL     1      -4.738  10.123  16.367  0.00  0.00    +0.000 HD
ENDBRANCH  28  31
ENDBRANCH   2  25
TORSDOF 6
ENDMDL
MODEL 8
REMARK VINA RESULT:      -7.7      5.740      8.993
REMARK  Name = 
REMARK  6 active torsions:
REMARK  status: ('A' for Active; 'I' for Inactive)
REMARK    1  A    between atoms: C_2  and  O_3
REMARK    2  A    between atoms: C_2  and  C_4
REMARK    3  A    between atoms: C_5  and  C_6
REMARK    4  A    between atoms: C_9  and  C_10
REMARK    5  A    between atoms: C_11  and  C_12
REMARK    6  A    between atoms: C_15  and  O_16
REMARK                            x       y       z     vdW  Elec       q    Type
REMARK                         _______ _______ _______ _____ _____    ______ ____
ROOT
ATOM      1  C   UNL     1       4.567   4.271  18.692  0.00  0.00    +0.000 C 
ATOM      2  C   UNL     1       3.665   4.912  17.884  0.00  0.00    +0.000 C 
ATOM      3  C   UNL     1       3.045   4.095  16.755  0.00  0.00    +0.000 C 
ATOM      4  C   UNL     1       1.594   3.681  16.935  0.00  0.00    +0.000 C 
ATOM      5  S   UNL     1       1.473   2.495  18.273  0.00  0.00    +0.000 S 
ATOM      6  C   UNL     1       2.213   3.640  19.655  0.00  0.00    +0.000 A 
ATOM      7  C   UNL     1       1.270   3.508  20.689  0.00  0.00    +0.000 A 
ATOM      8  C   UNL     1       1.652   2.695  21.704  0.00  0.00    +0.000 A 
ATOM      9  F   UNL     1       0.735   2.272  22.596  0.00  0.00    +0.000 F 
ATOM     10  C   UNL     1       2.954   2.172  21.726  0.00  0.00    +0.000 A 
ATOM     11  C   UNL     1       3.980   2.632  20.812  0.00  0.00    +0.000 A 
ATOM     12  C   UNL     1       3.666   3.506  19.770  0.00  0.00    +0.000 A 
ENDROOT
BRANCH   1  16
ATOM     13  C   UNL     1       7.779   7.604  18.063  0.00  0.00    +0.000 A 
ATOM     14  C   UNL     1       7.924   6.621  19.081  0.00  0.00    +0.000 A 
ATOM     15  C   UNL     1       7.003   5.488  19.280  0.00  0.00    +0.000 A 
ATOM     16  C   UNL     1       5.873   5.260  18.469  0.00  0.00    +0.000 A 
ATOM     17  C   UNL     1       5.772   6.276  17.451  0.00  0.00    +0.000 A 
ATOM     18  C   UNL     1       6.657   7.403  17.270  0.00  0.00    +0.000 A 
BRANCH  13  20
ATOM     19  C   UNL     1       8.785   9.902  18.520  0.00  0.00    +0.000 C 
ATOM     20  C   UNL     1       8.705   8.765  17.799  0.00  0.00    +0.000 C 
BRANCH  19  22
ATOM     21  O   UNL     1      10.702  11.143  19.107  0.00  0.00    +0.000 OA
ATOM     22  C   UNL     1       9.668  11.102  18.456  0.00  0.00    +0.000 C 
BRANCH  22  23
ATOM     23  O   UNL     1       9.304  12.114  17.656  0.00  0.00    +0.000 OA
ATOM     24  H   UNL     1       9.389  13.010  18.012  0.00  0.00    +0.000 HD
ENDBRANCH  22  23
ENDBRANCH  19  22
ENDBRANCH  13  20
ENDBRANCH   1  16
BRANCH   2  25
ATOM     25  C   UNL     1       3.049   6.175  18.451  0.00  0.00    +0.000 A 
ATOM     26  C   UNL     1       2.772   6.258  19.850  0.00  0.00    +0.000 A 
ATOM     27  C   UNL     1       2.080   7.312  20.432  0.00  0.00    +0.000 A 
ATOM     28  C   UNL     1       1.646   8.329  19.602  0.00  0.00    +0.000 A 
ATOM     29  C   UNL     1       1.940   8.308  18.243  0.00  0.00    +0.000 A 
ATOM     30  C   UNL     1       2.642   7.236  17.666  0.00  0.00    +0.000 A 
BRANCH  28  31
ATOM     31  O   UNL     1       0.958   9.375  20.127  0.00  0.00    +0.000 OA
ATOM     32  H   UNL     1       0.050   9.349  19.771  0.00  0.00    +0.000 HD
ENDBRANCH  28  31
ENDBRANCH   2  25
TORSDOF 6
ENDMDL
MODEL 9
REMARK VINA RESULT:      -7.7      7.444      9.287
REMARK  Name = 
REMARK  6 active torsions:
REMARK  status: ('A' for Active; 'I' for Inactive)
REMARK    1  A    between atoms: C_2  and  O_3
REMARK    2  A    between atoms: C_2  and  C_4
REMARK    3  A    between atoms: C_5  and  C_6
REMARK    4  A    between atoms: C_9  and  C_10
REMARK    5  A    between atoms: C_11  and  C_12
REMARK    6  A    between atoms: C_15  and  O_16
REMARK                            x       y       z     vdW  Elec       q    Type
REMARK                         _______ _______ _______ _____ _____    ______ ____
ROOT
ATOM      1  C   UNL     1      10.113  13.492  19.411  0.00  0.00    +0.000 C 
ATOM      2  C   UNL     1       9.347  13.967  20.442  0.00  0.00    +0.000 C 
ATOM      3  C   UNL     1      10.076  14.371  21.718  0.00  0.00    +0.000 C 
ATOM      4  C   UNL     1      10.195  15.861  21.991  0.00  0.00    +0.000 C 
ATOM      5  S   UNL     1      11.275  16.607  20.771  0.00  0.00    +0.000 S 
ATOM      6  C   UNL     1      10.236  16.102  19.212  0.00  0.00    +0.000 A 
ATOM      7  C   UNL     1      10.138  17.317  18.511  0.00  0.00    +0.000 A 
ATOM      8  C   UNL     1      10.963  17.423  17.442  0.00  0.00    +0.000 A 
ATOM      9  F   UNL     1      11.162  18.629  16.875  0.00  0.00    +0.000 F 
ATOM     10  C   UNL     1      11.727  16.317  17.039  0.00  0.00    +0.000 A 
ATOM     11  C   UNL     1      11.514  14.996  17.594  0.00  0.00    +0.000 A 
ATOM     12  C   UNL     1      10.643  14.806  18.667  0.00  0.00    +0.000 A 
ENDROOT
BRANCH   1  16
ATOM     13  C   UNL     1       8.485   9.274  18.240  0.00  0.00    +0.000 A 
ATOM     14  C   UNL     1       9.039   9.521  19.527  0.00  0.00    +0.000 A 
ATOM     15  C   UNL     1       9.487  10.843  20.000  0.00  0.00    +0.000 A 
ATOM     16  C   UNL     1       9.406  12.011  19.215  0.00  0.00    +0.000 A 
ATOM     17  C   UNL     1       8.835  11.712  17.926  0.00  0.00    +0.000 A 
ATOM     18  C   UNL     1       8.420  10.413  17.449  0.00  0.00    +0.000 A 
BRANCH  13  20
ATOM     19  C   UNL     1       7.939   6.788  18.402  0.00  0.00    +0.000 C 
ATOM     20  C   UNL     1       7.988   7.949  17.717  0.00  0.00    +0.000 C 
BRANCH  19  22
ATOM     21  O   UNL     1       7.563   4.958  16.963  0.00  0.00    +0.000 OA
ATOM     22  C   UNL     1       7.424   5.425  18.084  0.00  0.00    +0.000 C 
BRANCH  22  23
ATOM     23  O   UNL     1       6.828   4.729  19.062  0.00  0.00    +0.000 OA
ATOM     24  H   UNL     1       6.057   4.198  18.818  0.00  0.00    +0.000 HD
ENDBRANCH  22  23
ENDBRANCH  19  22
ENDBRANCH  13  20
ENDBRANCH   1  16
BRANCH   2  25
ATOM     25  C   UNL     1       7.965  14.462  20.065  0.00  0.00    +0.000 A 
ATOM     26  C   UNL     1       7.622  14.615  18.687  0.00  0.00    +0.000 A 
ATOM     27  C   UNL     1       6.438  15.196  18.252  0.00  0.00    +0.000 A 
ATOM     28  C   UNL     1       5.553  15.642  19.216  0.00  0.00    +0.000 A 
ATOM     29  C   UNL     1       5.829  15.465  20.568  0.00  0.00    +0.000 A 
ATOM     30  C   UNL     1       7.030  14.875  20.995  0.00  0.00    +0.000 A 
BRANCH  28  31
ATOM     31  O   UNL     1       4.386  16.225  18.837  0.00  0.00    +0.000 OA
ATOM     32  H   UNL     1       4.421  16.372  17.873  0.00  0.00    +0.000 HD
ENDBRANCH  28  31
ENDBRANCH   2  25
TORSDOF 6
ENDMDL
