MODEL 1
REMARK VINA RESULT:      -8.3      0.000      0.000
REMARK  Name = 
REMARK  8 active torsions:
REMARK  status: ('A' for Active; 'I' for Inactive)
REMARK    1  A    between atoms: C_1  and  O_2
REMARK    2  A    between atoms: O_2  and  C_3
REMARK    3  A    between atoms: C_7  and  C_8
REMARK    4  A    between atoms: C_8  and  O_10
REMARK    5  A    between atoms: C_11  and  N_12
REMARK    6  A    between atoms: C_13  and  C_15
REMARK    7  A    between atoms: C_16  and  C_17
REMARK    8  A    between atoms: C_20  and  C_21
REMARK                            x       y       z     vdW  Elec       q    Type
REMARK                         _______ _______ _______ _____ _____    ______ ____
ROOT
ATOM      1  N   UNL     1       6.592   7.220  16.668  0.00  0.00    +0.000 N 
ATOM      2  C   UNL     1       7.497   7.380  17.706  0.00  0.00    +0.000 C 
ATOM      3  O   UNL     1       7.955   6.475  18.393  0.00  0.00    +0.000 OA
ATOM      4  H   UNL     1       6.614   7.919  15.933  0.00  0.00    +0.000 HD
ENDROOT
BRANCH   1  10
ATOM      5  C   UNL     1       6.657   5.157  15.307  0.00  0.00    +0.000 A 
ATOM      6  C   UNL     1       6.116   3.900  14.996  0.00  0.00    +0.000 A 
ATOM      7  C   UNL     1       5.036   3.388  15.713  0.00  0.00    +0.000 A 
ATOM      8  C   UNL     1       4.482   4.132  16.748  0.00  0.00    +0.000 A 
ATOM      9  C   UNL     1       4.985   5.405  17.054  0.00  0.00    +0.000 A 
ATOM     10  C   UNL     1       6.066   5.942  16.323  0.00  0.00    +0.000 A 
BRANCH   5  12
ATOM     11  C   UNL     1       7.941   5.357  13.316  0.00  0.00    +0.000 C 
ATOM     12  O   UNL     1       7.788   5.651  14.703  0.00  0.00    +0.000 OA
ENDBRANCH   5  12
BRANCH   9  13
ATOM     13  C   UNL     1       4.292   6.128  18.146  0.00  0.00    +0.000 C 
ATOM     14  O   UNL     1       3.615   7.123  17.955  0.00  0.00    +0.000 OA
BRANCH  13  15
ATOM     15  O   UNL     1       4.501   5.600  19.371  0.00  0.00    +0.000 OA
ATOM     16  H   UNL     1       3.929   4.828  19.564  0.00  0.00    +0.000 HD
ENDBRANCH  13  15
ENDBRANCH   9  13
ENDBRANCH   1  10
BRANCH   2  17
ATOM     17  C   UNL     1       8.043   8.768  17.766  0.00  0.00    +0.000 C 
ATOM     18  C   UNL     1       8.735   9.167  18.844  0.00  0.00    +0.000 C 
BRANCH  18  19
ATOM     19  C   UNL     1       9.395  10.475  18.993  0.00  0.00    +0.000 A 
ATOM     20  C   UNL     1       9.844  11.141  17.850  0.00  0.00    +0.000 A 
ATOM     21  C   UNL     1      10.384  12.433  17.937  0.00  0.00    +0.000 A 
ATOM     22  C   UNL     1      10.468  13.121  19.160  0.00  0.00    +0.000 A 
ATOM     23  C   UNL     1      10.024  12.431  20.302  0.00  0.00    +0.000 A 
ATOM     24  C   UNL     1       9.497  11.132  20.222  0.00  0.00    +0.000 A 
BRANCH  22  25
ATOM     25  C   UNL     1      10.973  14.516  19.231  0.00  0.00    +0.000 A 
ATOM     26  C   UNL     1      11.299  15.112  20.467  0.00  0.00    +0.000 A 
ATOM     27  C   UNL     1      11.768  16.430  20.544  0.00  0.00    +0.000 A 
ATOM     28  C   UNL     1      11.942  17.179  19.387  0.00  0.00    +0.000 A 
ATOM     29  C   UNL     1      11.645  16.613  18.152  0.00  0.00    +0.000 A 
ATOM     30  C   UNL     1      11.162  15.300  18.077  0.00  0.00    +0.000 A 
ENDBRANCH  22  25
ENDBRANCH  18  19
ENDBRANCH   2  17
TORSDOF 7
ENDMDL
MODEL 2
REMARK VINA RESULT:      -8.0      0.825      1.063
REMARK  Name = 
REMARK  8 active torsions:
REMARK  status: ('A' for Active; 'I' for Inactive)
REMARK    1  A    between atoms: C_1  and  O_2
REMARK    2  A    between atoms: O_2  and  C_3
REMARK    3  A    between atoms: C_7  and  C_8
REMARK    4  A    between atoms: C_8  and  O_10
REMARK    5  A    between atoms: C_11  and  N_12
REMARK    6  A    between atoms: C_13  and  C_15
REMARK    7  A    between atoms: C_16  and  C_17
REMARK    8  A    between atoms: C_20  and  C_21
REMARK                            x       y       z     vdW  Elec       q    Type
REMARK                         _______ _______ _______ _____ _____    ______ ____
ROOT
ATOM      1  N   UNL     1       6.260   7.313  16.797  0.00  0.00    +0.000 N 
ATOM      2  C   UNL     1       7.287   7.583  17.689  0.00  0.00    +0.000 C 
ATOM      3  O   UNL     1       7.869   6.750  18.372  0.00  0.00    +0.000 OA
ATOM      4  H   UNL     1       6.155   7.953  16.016  0.00  0.00    +0.000 HD
ENDROOT
BRANCH   1  10
ATOM      5  C   UNL     1       6.397   5.064  15.779  0.00  0.00    +0.000 A 
ATOM      6  C   UNL     1       5.868   3.773  15.632  0.00  0.00    +0.000 A 
ATOM      7  C   UNL     1       4.740   3.376  16.347  0.00  0.00    +0.000 A 
ATOM      8  C   UNL     1       4.126   4.270  17.216  0.00  0.00    +0.000 A 
ATOM      9  C   UNL     1       4.618   5.576  17.353  0.00  0.00    +0.000 A 
ATOM     10  C   UNL     1       5.748   5.996  16.620  0.00  0.00    +0.000 A 
BRANCH   5  12
ATOM     11  C   UNL     1       7.682   5.203  13.783  0.00  0.00    +0.000 C 
ATOM     12  O   UNL     1       7.569   5.461  15.181  0.00  0.00    +0.000 OA
ENDBRANCH   5  12
BRANCH   9  13
ATOM     13  C   UNL     1       3.860   6.458  18.272  0.00  0.00    +0.000 C 
ATOM     14  O   UNL     1       3.645   6.172  19.437  0.00  0.00    +0.000 OA
BRANCH  13  15
ATOM     15  O   UNL     1       3.411   7.593  17.695  0.00  0.00    +0.000 OA
ATOM     16  H   UNL     1       2.442   7.596  17.547  0.00  0.00    +0.000 HD
ENDBRANCH  13  15
ENDBRANCH   9  13
ENDBRANCH   1  10
BRANCH   2  17
ATOM     17  C   UNL     1       7.776   8.988  17.573  0.00  0.00    +0.000 C 
ATOM     18  C   UNL     1       8.706   9.444  18.427  0.00  0.00    +0.000 C 
BRANCH  18  19
ATOM     19  C   UNL     1       9.332  10.775  18.369  0.00  0.00    +0.000 A 
ATOM     20  C   UNL     1       8.651  11.818  17.736  0.00  0.00    +0.000 A 
ATOM     21  C   UNL     1       9.163  13.123  17.748  0.00  0.00    +0.000 A 
ATOM     22  C   UNL     1      10.356  13.445  18.419  0.00  0.00    +0.000 A 
ATOM     23  C   UNL     1      11.036  12.383  19.040  0.00  0.00    +0.000 A 
ATOM     24  C   UNL     1      10.534  11.071  19.018  0.00  0.00    +0.000 A 
BRANCH  22  25
ATOM     25  C   UNL     1      10.853  14.844  18.489  0.00  0.00    +0.000 A 
ATOM     26  C   UNL     1      11.865  15.214  19.398  0.00  0.00    +0.000 A 
ATOM     27  C   UNL     1      12.333  16.532  19.476  0.00  0.00    +0.000 A 
ATOM     28  C   UNL     1      11.815  17.509  18.635  0.00  0.00    +0.000 A 
ATOM     29  C   UNL     1      10.827  17.171  17.717  0.00  0.00    +0.000 A 
ATOM     30  C   UNL     1      10.349  15.856  17.649  0.00  0.00    +0.000 A 
ENDBRANCH  22  25
ENDBRANCH  18  19
ENDBRANCH   2  17
TORSDOF 7
ENDMDL
MODEL 3
REMARK VINA RESULT:      -7.9      7.179      9.521
REMARK  Name = 
REMARK  8 active torsions:
REMARK  status: ('A' for Active; 'I' for Inactive)
REMARK    1  A    between atoms: C_1  and  O_2
REMARK    2  A    between atoms: O_2  and  C_3
REMARK    3  A    between atoms: C_7  and  C_8
REMARK    4  A    between atoms: C_8  and  O_10
REMARK    5  A    between atoms: C_11  and  N_12
REMARK    6  A    between atoms: C_13  and  C_15
REMARK    7  A    between atoms: C_16  and  C_17
REMARK    8  A    between atoms: C_20  and  C_21
REMARK                            x       y       z     vdW  Elec       q    Type
REMARK                         _______ _______ _______ _____ _____    ______ ____
ROOT
ATOM      1  N   UNL     1       2.820   5.642  20.630  0.00  0.00    +0.000 N 
ATOM      2  C   UNL     1       2.257   6.717  19.960  0.00  0.00    +0.000 C 
ATOM      3  O   UNL     1       2.055   6.772  18.753  0.00  0.00    +0.000 OA
ATOM      4  H   UNL     1       2.558   5.525  21.604  0.00  0.00    +0.000 HD
ENDROOT
BRANCH   1  10
ATOM      5  C   UNL     1       4.442   4.493  19.160  0.00  0.00    +0.000 A 
ATOM      6  C   UNL     1       4.855   3.326  18.499  0.00  0.00    +0.000 A 
ATOM      7  C   UNL     1       4.150   2.133  18.647  0.00  0.00    +0.000 A 
ATOM      8  C   UNL     1       3.020   2.096  19.456  0.00  0.00    +0.000 A 
ATOM      9  C   UNL     1       2.571   3.258  20.099  0.00  0.00    +0.000 A 
ATOM     10  C   UNL     1       3.265   4.477  19.941  0.00  0.00    +0.000 A 
BRANCH   5  12
ATOM     11  C   UNL     1       6.551   5.534  18.811  0.00  0.00    +0.000 C 
ATOM     12  O   UNL     1       5.168   5.660  19.132  0.00  0.00    +0.000 OA
ENDBRANCH   5  12
BRANCH   9  13
ATOM     13  C   UNL     1       1.333   3.116  20.901  0.00  0.00    +0.000 C 
ATOM     14  O   UNL     1       1.306   2.559  21.985  0.00  0.00    +0.000 OA
BRANCH  13  15
ATOM     15  O   UNL     1       0.236   3.636  20.311  0.00  0.00    +0.000 OA
ATOM     16  H   UNL     1      -0.592   3.461  20.805  0.00  0.00    +0.000 HD
ENDBRANCH  13  15
ENDBRANCH   9  13
ENDBRANCH   1  10
BRANCH   2  17
ATOM     17  C   UNL     1       1.706   7.738  20.898  0.00  0.00    +0.000 C 
ATOM     18  C   UNL     1       1.053   8.806  20.414  0.00  0.00    +0.000 C 
BRANCH  18  19
ATOM     19  C   UNL     1       0.391   9.838  21.230  0.00  0.00    +0.000 A 
ATOM     20  C   UNL     1       0.227  11.119  20.699  0.00  0.00    +0.000 A 
ATOM     21  C   UNL     1      -0.488  12.101  21.401  0.00  0.00    +0.000 A 
ATOM     22  C   UNL     1      -1.094  11.833  22.641  0.00  0.00    +0.000 A 
ATOM     23  C   UNL     1      -0.910  10.542  23.166  0.00  0.00    +0.000 A 
ATOM     24  C   UNL     1      -0.181   9.560  22.475  0.00  0.00    +0.000 A 
BRANCH  22  25
ATOM     25  C   UNL     1      -1.912  12.857  23.341  0.00  0.00    +0.000 A 
ATOM     26  C   UNL     1      -1.351  14.084  23.749  0.00  0.00    +0.000 A 
ATOM     27  C   UNL     1      -2.114  15.052  24.417  0.00  0.00    +0.000 A 
ATOM     28  C   UNL     1      -3.460  14.825  24.676  0.00  0.00    +0.000 A 
ATOM     29  C   UNL     1      -4.045  13.630  24.272  0.00  0.00    +0.000 A 
ATOM     30  C   UNL     1      -3.279  12.658  23.617  0.00  0.00    +0.000 A 
ENDBRANCH  22  25
ENDBRANCH  18  19
ENDBRANCH   2  17
TORSDOF 7
ENDMDL
MODEL 4
REMARK VINA RESULT:      -7.8      1.225      3.001
REMARK  Name = 
REMARK  8 active torsions:
REMARK  status: ('A' for Active; 'I' for Inactive)
REMARK    1  A    between atoms: C_1  and  O_2
REMARK    2  A    between atoms: O_2  and  C_3
REMARK    3  A    between atoms: C_7  and  C_8
REMARK    4  A    between atoms: C_8  and  O_10
REMARK    5  A    between atoms: C_11  and  N_12
REMARK    6  A    between atoms: C_13  and  C_15
REMARK    7  A    between atoms: C_16  and  C_17
REMARK    8  A    between atoms: C_20  and  C_21
REMARK                            x       y       z     vdW  Elec       q    Type
REMARK                         _______ _______ _______ _____ _____    ______ ____
ROOT
ATOM      1  N   UNL     1       6.275   6.433  18.043  0.00  0.00    +0.000 N 
ATOM      2  C   UNL     1       7.487   6.170  18.664  0.00  0.00    +0.000 C 
ATOM      3  O   UNL     1       7.922   5.055  18.923  0.00  0.00    +0.000 OA
ATOM      4  H   UNL     1       6.213   7.298  17.515  0.00  0.00    +0.000 HD
ENDROOT
BRANCH   1  10
ATOM      5  C   UNL     1       4.250   5.080  18.462  0.00  0.00    +0.000 A 
ATOM      6  C   UNL     1       3.384   4.049  18.064  0.00  0.00    +0.000 A 
ATOM      7  C   UNL     1       3.592   3.362  16.870  0.00  0.00    +0.000 A 
ATOM      8  C   UNL     1       4.673   3.696  16.062  0.00  0.00    +0.000 A 
ATOM      9  C   UNL     1       5.568   4.700  16.456  0.00  0.00    +0.000 A 
ATOM     10  C   UNL     1       5.380   5.390  17.672  0.00  0.00    +0.000 A 
BRANCH   5  12
ATOM     11  C   UNL     1       2.747   6.497  19.640  0.00  0.00    +0.000 C 
ATOM     12  O   UNL     1       4.020   5.858  19.571  0.00  0.00    +0.000 OA
ENDBRANCH   5  12
BRANCH   9  13
ATOM     13  C   UNL     1       6.709   4.944  15.541  0.00  0.00    +0.000 C 
ATOM     14  O   UNL     1       7.841   4.560  15.778  0.00  0.00    +0.000 OA
BRANCH  13  15
ATOM     15  O   UNL     1       6.383   5.650  14.438  0.00  0.00    +0.000 OA
ATOM     16  H   UNL     1       6.352   5.106  13.623  0.00  0.00    +0.000 HD
ENDBRANCH  13  15
ENDBRANCH   9  13
ENDBRANCH   1  10
BRANCH   2  17
ATOM     17  C   UNL     1       8.330   7.395  18.792  0.00  0.00    +0.000 C 
ATOM     18  C   UNL     1       7.951   8.533  18.189  0.00  0.00    +0.000 C 
BRANCH  18  19
ATOM     19  C   UNL     1       8.644   9.826  18.304  0.00  0.00    +0.000 A 
ATOM     20  C   UNL     1       8.209  10.901  17.525  0.00  0.00    +0.000 A 
ATOM     21  C   UNL     1       8.774  12.176  17.679  0.00  0.00    +0.000 A 
ATOM     22  C   UNL     1       9.770  12.434  18.637  0.00  0.00    +0.000 A 
ATOM     23  C   UNL     1      10.206  11.339  19.404  0.00  0.00    +0.000 A 
ATOM     24  C   UNL     1       9.654  10.058  19.243  0.00  0.00    +0.000 A 
BRANCH  22  25
ATOM     25  C   UNL     1      10.310  13.803  18.843  0.00  0.00    +0.000 A 
ATOM     26  C   UNL     1      11.441  14.026  19.655  0.00  0.00    +0.000 A 
ATOM     27  C   UNL     1      11.951  15.314  19.861  0.00  0.00    +0.000 A 
ATOM     28  C   UNL     1      11.356  16.410  19.247  0.00  0.00    +0.000 A 
ATOM     29  C   UNL     1      10.249  16.219  18.428  0.00  0.00    +0.000 A 
ATOM     30  C   UNL     1       9.730  14.932  18.233  0.00  0.00    +0.000 A 
ENDBRANCH  22  25
ENDBRANCH  18  19
ENDBRANCH   2  17
TORSDOF 7
ENDMDL
MODEL 5
REMARK VINA RESULT:      -7.8      6.494      9.031
REMARK  Name = 
REMARK  8 active torsions:
REMARK  status: ('A' for Active; 'I' for Inactive)
REMARK    1  A    between atoms: C_1  and  O_2
REMARK    2  A    between atoms: O_2  and  C_3
REMARK    3  A    between atoms: C_7  and  C_8
REMARK    4  A    between atoms: C_8  and  O_10
REMARK    5  A    between atoms: C_11  and  N_12
REMARK    6  A    between atoms: C_13  and  C_15
REMARK    7  A    between atoms: C_16  and  C_17
REMARK    8  A    between atoms: C_20  and  C_21
REMARK                            x       y       z     vdW  Elec       q    Type
REMARK                         _______ _______ _______ _____ _____    ______ ____
ROOT
ATOM      1  N   UNL     1       2.976   6.522  17.941  0.00  0.00    +0.000 N 
ATOM      2  C   UNL     1       2.787   6.629  19.310  0.00  0.00    +0.000 C 
ATOM      3  O   UNL     1       3.380   5.974  20.160  0.00  0.00    +0.000 OA
ATOM      4  H   UNL     1       2.779   7.351  17.388  0.00  0.00    +0.000 HD
ENDROOT
BRANCH   1  10
ATOM      5  C   UNL     1       5.189   5.956  16.996  0.00  0.00    +0.000 A 
ATOM      6  C   UNL     1       6.060   4.998  16.452  0.00  0.00    +0.000 A 
ATOM      7  C   UNL     1       5.673   3.665  16.334  0.00  0.00    +0.000 A 
ATOM      8  C   UNL     1       4.407   3.275  16.757  0.00  0.00    +0.000 A 
ATOM      9  C   UNL     1       3.510   4.221  17.273  0.00  0.00    +0.000 A 
ATOM     10  C   UNL     1       3.883   5.578  17.379  0.00  0.00    +0.000 A 
BRANCH   5  12
ATOM     11  C   UNL     1       6.963   7.480  17.426  0.00  0.00    +0.000 C 
ATOM     12  O   UNL     1       5.568   7.255  17.235  0.00  0.00    +0.000 OA
ENDBRANCH   5  12
BRANCH   9  13
ATOM     13  C   UNL     1       2.173   3.705  17.651  0.00  0.00    +0.000 C 
ATOM     14  O   UNL     1       1.134   4.202  17.253  0.00  0.00    +0.000 OA
BRANCH  13  15
ATOM     15  O   UNL     1       2.212   2.652  18.495  0.00  0.00    +0.000 OA
ATOM     16  H   UNL     1       2.047   1.793  18.053  0.00  0.00    +0.000 HD
ENDBRANCH  13  15
ENDBRANCH   9  13
ENDBRANCH   1  10
BRANCH   2  17
ATOM     17  C   UNL     1       1.934   7.799  19.670  0.00  0.00    +0.000 C 
ATOM     18  C   UNL     1       1.203   7.770  20.796  0.00  0.00    +0.000 C 
BRANCH  18  19
ATOM     19  C   UNL     1       0.389   8.885  21.307  0.00  0.00    +0.000 A 
ATOM     20  C   UNL     1       0.039   8.905  22.659  0.00  0.00    +0.000 A 
ATOM     21  C   UNL     1      -0.647   9.999  23.208  0.00  0.00    +0.000 A 
ATOM     22  C   UNL     1      -0.981  11.127  22.438  0.00  0.00    +0.000 A 
ATOM     23  C   UNL     1      -0.633  11.086  21.076  0.00  0.00    +0.000 A 
ATOM     24  C   UNL     1       0.040   9.986  20.519  0.00  0.00    +0.000 A 
BRANCH  22  25
ATOM     25  C   UNL     1      -1.642  12.311  23.045  0.00  0.00    +0.000 A 
ATOM     26  C   UNL     1      -0.970  13.546  23.151  0.00  0.00    +0.000 A 
ATOM     27  C   UNL     1      -1.582  14.666  23.729  0.00  0.00    +0.000 A 
ATOM     28  C   UNL     1      -2.889  14.585  24.197  0.00  0.00    +0.000 A 
ATOM     29  C   UNL     1      -3.582  13.384  24.092  0.00  0.00    +0.000 A 
ATOM     30  C   UNL     1      -2.964  12.262  23.527  0.00  0.00    +0.000 A 
ENDBRANCH  22  25
ENDBRANCH  18  19
ENDBRANCH   2  17
TORSDOF 7
ENDMDL
MODEL 6
REMARK VINA RESULT:      -7.7      6.905      9.400
REMARK  Name = 
REMARK  8 active torsions:
REMARK  status: ('A' for Active; 'I' for Inactive)
REMARK    1  A    between atoms: C_1  and  O_2
REMARK    2  A    between atoms: O_2  and  C_3
REMARK    3  A    between atoms: C_7  and  C_8
REMARK    4  A    between atoms: C_8  and  O_10
REMARK    5  A    between atoms: C_11  and  N_12
REMARK    6  A    between atoms: C_13  and  C_15
REMARK    7  A    between atoms: C_16  and  C_17
REMARK    8  A    between atoms: C_20  and  C_21
REMARK                            x       y       z     vdW  Elec       q    Type
REMARK                         _______ _______ _______ _____ _____    ______ ____
ROOT
ATOM      1  N   UNL     1       3.022   6.052  20.107  0.00  0.00    +0.000 N 
ATOM      2  C   UNL     1       2.501   6.890  19.133  0.00  0.00    +0.000 C 
ATOM      3  O   UNL     1       2.357   6.600  17.951  0.00  0.00    +0.000 OA
ATOM      4  H   UNL     1       2.712   6.214  21.060  0.00  0.00    +0.000 HD
ENDROOT
BRANCH   1  10
ATOM      5  C   UNL     1       4.722   4.541  19.139  0.00  0.00    +0.000 A 
ATOM      6  C   UNL     1       5.155   3.236  18.856  0.00  0.00    +0.000 A 
ATOM      7  C   UNL     1       4.412   2.131  19.265  0.00  0.00    +0.000 A 
ATOM      8  C   UNL     1       3.223   2.320  19.960  0.00  0.00    +0.000 A 
ATOM      9  C   UNL     1       2.755   3.615  20.225  0.00  0.00    +0.000 A 
ATOM     10  C   UNL     1       3.489   4.742  19.798  0.00  0.00    +0.000 A 
BRANCH   5  12
ATOM     11  C   UNL     1       6.826   5.635  19.316  0.00  0.00    +0.000 C 
ATOM     12  O   UNL     1       5.477   5.654  18.854  0.00  0.00    +0.000 OA
ENDBRANCH   5  12
BRANCH   9  13
ATOM     13  C   UNL     1       1.455   3.701  20.933  0.00  0.00    +0.000 C 
ATOM     14  O   UNL     1       0.539   4.408  20.551  0.00  0.00    +0.000 OA
BRANCH  13  15
ATOM     15  O   UNL     1       1.390   2.944  22.049  0.00  0.00    +0.000 OA
ATOM     16  H   UNL     1       1.671   3.421  22.858  0.00  0.00    +0.000 HD
ENDBRANCH  13  15
ENDBRANCH   9  13
ENDBRANCH   1  10
BRANCH   2  17
ATOM     17  C   UNL     1       1.914   8.132  19.716  0.00  0.00    +0.000 C 
ATOM     18  C   UNL     1       0.941   8.042  20.637  0.00  0.00    +0.000 C 
BRANCH  18  19
ATOM     19  C   UNL     1       0.338   9.181  21.348  0.00  0.00    +0.000 A 
ATOM     20  C   UNL     1       0.162  10.389  20.669  0.00  0.00    +0.000 A 
ATOM     21  C   UNL     1      -0.501  11.466  21.277  0.00  0.00    +0.000 A 
ATOM     22  C   UNL     1      -1.041  11.368  22.571  0.00  0.00    +0.000 A 
ATOM     23  C   UNL     1      -0.844  10.151  23.246  0.00  0.00    +0.000 A 
ATOM     24  C   UNL     1      -0.167   9.075  22.647  0.00  0.00    +0.000 A 
BRANCH  22  25
ATOM     25  C   UNL     1      -1.806  12.489  23.178  0.00  0.00    +0.000 A 
ATOM     26  C   UNL     1      -3.150  12.326  23.569  0.00  0.00    +0.000 A 
ATOM     27  C   UNL     1      -3.881  13.379  24.134  0.00  0.00    +0.000 A 
ATOM     28  C   UNL     1      -3.281  14.615  24.341  0.00  0.00    +0.000 A 
ATOM     29  C   UNL     1      -1.951  14.801  23.979  0.00  0.00    +0.000 A 
ATOM     30  C   UNL     1      -1.225  13.752  23.401  0.00  0.00    +0.000 A 
ENDBRANCH  22  25
ENDBRANCH  18  19
ENDBRANCH   2  17
TORSDOF 7
ENDMDL
MODEL 7
REMARK VINA RESULT:      -7.7      7.060      9.365
REMARK  Name = 
REMARK  8 active torsions:
REMARK  status: ('A' for Active; 'I' for Inactive)
REMARK    1  A    between atoms: C_1  and  O_2
REMARK    2  A    between atoms: O_2  and  C_3
REMARK    3  A    between atoms: C_7  and  C_8
REMARK    4  A    between atoms: C_8  and  O_10
REMARK    5  A    between atoms: C_11  and  N_12
REMARK    6  A    between atoms: C_13  and  C_15
REMARK    7  A    between atoms: C_16  and  C_17
REMARK    8  A    between atoms: C_20  and  C_21
REMARK                            x       y       z     vdW  Elec       q    Type
REMARK                         _______ _______ _______ _____ _____    ______ ____
ROOT
ATOM      1  N   UNL     1       2.788   5.997  19.869  0.00  0.00    +0.000 N 
ATOM      2  C   UNL     1       2.332   7.170  19.286  0.00  0.00    +0.000 C 
ATOM      3  O   UNL     1       2.159   7.343  18.085  0.00  0.00    +0.000 OA
ATOM      4  H   UNL     1       2.498   5.822  20.825  0.00  0.00    +0.000 HD
ENDROOT
BRANCH   1  10
ATOM      5  C   UNL     1       4.369   4.811  18.383  0.00  0.00    +0.000 A 
ATOM      6  C   UNL     1       4.692   3.673  17.628  0.00  0.00    +0.000 A 
ATOM      7  C   UNL     1       3.847   2.565  17.607  0.00  0.00    +0.000 A 
ATOM      8  C   UNL     1       2.666   2.586  18.340  0.00  0.00    +0.000 A 
ATOM      9  C   UNL     1       2.308   3.725  19.074  0.00  0.00    +0.000 A 
ATOM     10  C   UNL     1       3.145   4.861  19.088  0.00  0.00    +0.000 A 
BRANCH   5  12
ATOM     11  C   UNL     1       5.581   6.560  17.322  0.00  0.00    +0.000 C 
ATOM     12  O   UNL     1       5.223   5.879  18.523  0.00  0.00    +0.000 OA
ENDBRANCH   5  12
BRANCH   9  13
ATOM     13  C   UNL     1       1.007   3.655  19.782  0.00  0.00    +0.000 C 
ATOM     14  O   UNL     1       0.746   4.339  20.756  0.00  0.00    +0.000 OA
BRANCH  13  15
ATOM     15  O   UNL     1       0.150   2.749  19.264  0.00  0.00    +0.000 OA
ATOM     16  H   UNL     1       0.465   1.825  19.348  0.00  0.00    +0.000 HD
ENDBRANCH  13  15
ENDBRANCH   9  13
ENDBRANCH   1  10
BRANCH   2  17
ATOM     17  C   UNL     1       1.852   8.152  20.302  0.00  0.00    +0.000 C 
ATOM     18  C   UNL     1       0.918   9.057  19.966  0.00  0.00    +0.000 C 
BRANCH  18  19
ATOM     19  C   UNL     1       0.301  10.021  20.891  0.00  0.00    +0.000 A 
ATOM     20  C   UNL     1       0.098  11.336  20.464  0.00  0.00    +0.000 A 
ATOM     21  C   UNL     1      -0.580  12.259  21.274  0.00  0.00    +0.000 A 
ATOM     22  C   UNL     1      -1.108  11.898  22.526  0.00  0.00    +0.000 A 
ATOM     23  C   UNL     1      -0.885  10.575  22.946  0.00  0.00    +0.000 A 
ATOM     24  C   UNL     1      -0.193   9.651  22.145  0.00  0.00    +0.000 A 
BRANCH  22  25
ATOM     25  C   UNL     1      -1.888  12.862  23.345  0.00  0.00    +0.000 A 
ATOM     26  C   UNL     1      -3.210  12.576  23.745  0.00  0.00    +0.000 A 
ATOM     27  C   UNL     1      -3.955  13.483  24.510  0.00  0.00    +0.000 A 
ATOM     28  C   UNL     1      -3.392  14.689  24.911  0.00  0.00    +0.000 A 
ATOM     29  C   UNL     1      -2.085  14.991  24.544  0.00  0.00    +0.000 A 
ATOM     30  C   UNL     1      -1.346  14.091  23.767  0.00  0.00    +0.000 A 
ENDBRANCH  22  25
ENDBRANCH  18  19
ENDBRANCH   2  17
TORSDOF 7
ENDMDL
MODEL 8
REMARK VINA RESULT:      -7.6      6.643      9.149
REMARK  Name = 
REMARK  8 active torsions:
REMARK  status: ('A' for Active; 'I' for Inactive)
REMARK    1  A    between atoms: C_1  and  O_2
REMARK    2  A    between atoms: O_2  and  C_3
REMARK    3  A    between atoms: C_7  and  C_8
REMARK    4  A    between atoms: C_8  and  O_10
REMARK    5  A    between atoms: C_11  and  N_12
REMARK    6  A    between atoms: C_13  and  C_15
REMARK    7  A    between atoms: C_16  and  C_17
REMARK    8  A    between atoms: C_20  and  C_21
REMARK                            x       y       z     vdW  Elec       q    Type
REMARK                         _______ _______ _______ _____ _____    ______ ____
ROOT
ATOM      1  N   UNL     1       2.870   6.620  18.117  0.00  0.00    +0.000 N 
ATOM      2  C   UNL     1       2.607   6.642  19.478  0.00  0.00    +0.000 C 
ATOM      3  O   UNL     1       3.045   5.843  20.297  0.00  0.00    +0.000 OA
ATOM      4  H   UNL     1       2.826   7.511  17.631  0.00  0.00    +0.000 HD
ENDROOT
BRANCH   1  10
ATOM      5  C   UNL     1       4.994   5.870  17.101  0.00  0.00    +0.000 A 
ATOM      6  C   UNL     1       5.760   4.844  16.526  0.00  0.00    +0.000 A 
ATOM      7  C   UNL     1       5.255   3.550  16.416  0.00  0.00    +0.000 A 
ATOM      8  C   UNL     1       3.975   3.269  16.879  0.00  0.00    +0.000 A 
ATOM      9  C   UNL     1       3.180   4.286  17.426  0.00  0.00    +0.000 A 
ATOM     10  C   UNL     1       3.673   5.605  17.524  0.00  0.00    +0.000 A 
BRANCH   5  12
ATOM     11  C   UNL     1       6.912   7.260  17.313  0.00  0.00    +0.000 C 
ATOM     12  O   UNL     1       5.492   7.130  17.331  0.00  0.00    +0.000 OA
ENDBRANCH   5  12
BRANCH   9  13
ATOM     13  C   UNL     1       1.816   3.885  17.846  0.00  0.00    +0.000 C 
ATOM     14  O   UNL     1       1.604   3.164  18.806  0.00  0.00    +0.000 OA
BRANCH  13  15
ATOM     15  O   UNL     1       0.835   4.369  17.055  0.00  0.00    +0.000 OA
ATOM     16  H   UNL     1       0.319   5.090  17.472  0.00  0.00    +0.000 HD
ENDBRANCH  13  15
ENDBRANCH   9  13
ENDBRANCH   1  10
BRANCH   2  17
ATOM     17  C   UNL     1       1.901   7.890  19.894  0.00  0.00    +0.000 C 
ATOM     18  C   UNL     1       1.166   7.898  21.018  0.00  0.00    +0.000 C 
BRANCH  18  19
ATOM     19  C   UNL     1       0.492   9.079  21.582  0.00  0.00    +0.000 A 
ATOM     20  C   UNL     1       0.171  10.144  20.738  0.00  0.00    +0.000 A 
ATOM     21  C   UNL     1      -0.562  11.242  21.212  0.00  0.00    +0.000 A 
ATOM     22  C   UNL     1      -1.030  11.304  22.537  0.00  0.00    +0.000 A 
ATOM     23  C   UNL     1      -0.688  10.230  23.377  0.00  0.00    +0.000 A 
ATOM     24  C   UNL     1       0.059   9.136  22.910  0.00  0.00    +0.000 A 
BRANCH  22  25
ATOM     25  C   UNL     1      -1.869  12.436  23.010  0.00  0.00    +0.000 A 
ATOM     26  C   UNL     1      -3.259  12.288  23.188  0.00  0.00    +0.000 A 
ATOM     27  C   UNL     1      -4.059  13.352  23.627  0.00  0.00    +0.000 A 
ATOM     28  C   UNL     1      -3.486  14.585  23.916  0.00  0.00    +0.000 A 
ATOM     29  C   UNL     1      -2.114  14.756  23.764  0.00  0.00    +0.000 A 
ATOM     30  C   UNL     1      -1.318  13.696  23.312  0.00  0.00    +0.000 A 
ENDBRANCH  22  25
ENDBRANCH  18  19
ENDBRANCH   2  17
TORSDOF 7
ENDMDL
MODEL 9
REMARK VINA RESULT:      -7.6      0.834      1.464
REMARK  Name = 
REMARK  8 active torsions:
REMARK  status: ('A' for Active; 'I' for Inactive)
REMARK    1  A    between atoms: C_1  and  O_2
REMARK    2  A    between atoms: O_2  and  C_3
REMARK    3  A    between atoms: C_7  and  C_8
REMARK    4  A    between atoms: C_8  and  O_10
REMARK    5  A    between atoms: C_11  and  N_12
REMARK    6  A    between atoms: C_13  and  C_15
REMARK    7  A    between atoms: C_16  and  C_17
REMARK    8  A    between atoms: C_20  and  C_21
REMARK                            x       y       z     vdW  Elec       q    Type
REMARK                         _______ _______ _______ _____ _____    ______ ____
ROOT
ATOM      1  N   UNL     1       6.768   6.773  16.955  0.00  0.00    +0.000 N 
ATOM      2  C   UNL     1       7.622   6.509  18.015  0.00  0.00    +0.000 C 
ATOM      3  O   UNL     1       7.930   5.393  18.416  0.00  0.00    +0.000 OA
ATOM      4  H   UNL     1       6.915   7.647  16.459  0.00  0.00    +0.000 HD
ENDROOT
BRANCH   1  10
ATOM      5  C   UNL     1       6.682   5.192  15.057  0.00  0.00    +0.000 A 
ATOM      6  C   UNL     1       6.019   4.159  14.376  0.00  0.00    +0.000 A 
ATOM      7  C   UNL     1       4.838   3.615  14.878  0.00  0.00    +0.000 A 
ATOM      8  C   UNL     1       4.306   4.102  16.066  0.00  0.00    +0.000 A 
ATOM      9  C   UNL     1       4.934   5.156  16.744  0.00  0.00    +0.000 A 
ATOM     10  C   UNL     1       6.119   5.729  16.236  0.00  0.00    +0.000 A 
BRANCH   5  12
ATOM     11  C   UNL     1       8.216   5.546  13.275  0.00  0.00    +0.000 C 
ATOM     12  O   UNL     1       7.904   5.681  14.659  0.00  0.00    +0.000 OA
ENDBRANCH   5  12
BRANCH   9  13
ATOM     13  C   UNL     1       4.256   5.626  17.976  0.00  0.00    +0.000 C 
ATOM     14  O   UNL     1       3.255   6.320  17.957  0.00  0.00    +0.000 OA
BRANCH  13  15
ATOM     15  O   UNL     1       4.864   5.237  19.117  0.00  0.00    +0.000 OA
ATOM     16  H   UNL     1       4.779   5.889  19.845  0.00  0.00    +0.000 HD
ENDBRANCH  13  15
ENDBRANCH   9  13
ENDBRANCH   1  10
BRANCH   2  17
ATOM     17  C   UNL     1       8.320   7.738  18.493  0.00  0.00    +0.000 C 
ATOM     18  C   UNL     1       8.093   8.914  17.887  0.00  0.00    +0.000 C 
BRANCH  18  19
ATOM     19  C   UNL     1       8.649  10.209  18.311  0.00  0.00    +0.000 A 
ATOM     20  C   UNL     1       9.466  10.258  19.443  0.00  0.00    +0.000 A 
ATOM     21  C   UNL     1      10.099  11.452  19.822  0.00  0.00    +0.000 A 
ATOM     22  C   UNL     1       9.968  12.631  19.069  0.00  0.00    +0.000 A 
ATOM     23  C   UNL     1       9.133  12.569  17.939  0.00  0.00    +0.000 A 
ATOM     24  C   UNL     1       8.485  11.380  17.565  0.00  0.00    +0.000 A 
BRANCH  22  25
ATOM     25  C   UNL     1      10.701  13.871  19.436  0.00  0.00    +0.000 A 
ATOM     26  C   UNL     1      11.632  14.456  18.553  0.00  0.00    +0.000 A 
ATOM     27  C   UNL     1      12.333  15.620  18.895  0.00  0.00    +0.000 A 
ATOM     28  C   UNL     1      12.108  16.238  20.119  0.00  0.00    +0.000 A 
ATOM     29  C   UNL     1      11.185  15.693  21.004  0.00  0.00    +0.000 A 
ATOM     30  C   UNL     1      10.495  14.521  20.668  0.00  0.00    +0.000 A 
ENDBRANCH  22  25
ENDBRANCH  18  19
ENDBRANCH   2  17
TORSDOF 7
ENDMDL
