MODEL 1
REMARK VINA RESULT:      -6.7      0.000      0.000
REMARK  Name = 
REMARK  1 active torsions:
REMARK  status: ('A' for Active; 'I' for Inactive)
REMARK    1  A    between atoms: C_1  and  C_2
REMARK                            x       y       z     vdW  Elec       q    Type
REMARK                         _______ _______ _______ _____ _____    ______ ____
ROOT
ATOM      1  C   UNL     1      -1.308  11.544  23.046  0.00  0.00    +0.000 C 
ATOM      2  C   UNL     1      -0.618  10.861  21.927  0.00  0.00    +0.000 A 
ATOM      3  N   UNL     1      -0.489  11.448  20.734  0.00  0.00    +0.000 NA
ATOM      4  S   UNL     1       0.360  10.367  19.772  0.00  0.00    +0.000 S 
ATOM      5  C   UNL     1       0.495   9.213  21.017  0.00  0.00    +0.000 A 
ATOM      6  N   UNL     1       1.103   7.993  20.908  0.00  0.00    +0.000 N 
ATOM      7  C   UNL     1       1.913   7.570  19.890  0.00  0.00    +0.000 C 
ATOM      8  O   UNL     1       2.278   8.283  18.960  0.00  0.00    +0.000 OA
ATOM      9  N   UNL     1       2.320   6.239  19.977  0.00  0.00    +0.000 N 
ATOM     10  C   UNL     1       1.933   5.262  21.019  0.00  0.00    +0.000 C 
ATOM     11  C   UNL     1       1.259   4.029  20.401  0.00  0.00    +0.000 C 
ATOM     12  C   UNL     1       2.133   3.525  19.305  0.00  0.00    +0.000 A 
ATOM     13  S   UNL     1       2.076   1.924  18.745  0.00  0.00    +0.000 S 
ATOM     14  C   UNL     1       3.318   2.232  17.609  0.00  0.00    +0.000 A 
ATOM     15  C   UNL     1       3.756   3.540  17.659  0.00  0.00    +0.000 A 
ATOM     16  C   UNL     1       3.061   4.308  18.646  0.00  0.00    +0.000 A 
ATOM     17  C   UNL     1       3.292   5.760  18.975  0.00  0.00    +0.000 C 
ATOM     18  N   UNL     1      -0.093   9.591  22.129  0.00  0.00    +0.000 NA
ATOM     19  H   UNL     1       1.092   7.501  21.780  0.00  0.00    +0.000 HD
ENDROOT
TORSDOF 0
ENDMDL
MODEL 2
REMARK VINA RESULT:      -6.2      1.058      1.110
REMARK  Name = 
REMARK  1 active torsions:
REMARK  status: ('A' for Active; 'I' for Inactive)
REMARK    1  A    between atoms: C_1  and  C_2
REMARK                            x       y       z     vdW  Elec       q    Type
REMARK                         _______ _______ _______ _____ _____    ______ ____
ROOT
ATOM      1  C   UNL     1      -1.100  12.629  21.195  0.00  0.00    +0.000 C 
ATOM      2  C   UNL     1      -0.360  11.697  20.312  0.00  0.00    +0.000 A 
ATOM      3  N   UNL     1      -0.063  12.028  19.053  0.00  0.00    +0.000 NA
ATOM      4  S   UNL     1       0.786  10.728  18.417  0.00  0.00    +0.000 S 
ATOM      5  C   UNL     1       0.699   9.837  19.865  0.00  0.00    +0.000 A 
ATOM      6  N   UNL     1       1.212   8.584  20.061  0.00  0.00    +0.000 N 
ATOM      7  C   UNL     1       2.082   7.919  19.241  0.00  0.00    +0.000 C 
ATOM      8  O   UNL     1       2.597   8.410  18.241  0.00  0.00    +0.000 OA
ATOM      9  N   UNL     1       2.367   6.608  19.625  0.00  0.00    +0.000 N 
ATOM     10  C   UNL     1       1.797   5.883  20.782  0.00  0.00    +0.000 C 
ATOM     11  C   UNL     1       1.089   4.596  20.335  0.00  0.00    +0.000 C 
ATOM     12  C   UNL     1       2.024   3.832  19.462  0.00  0.00    +0.000 A 
ATOM     13  S   UNL     1       1.891   2.159  19.213  0.00  0.00    +0.000 S 
ATOM     14  C   UNL     1       3.263   2.159  18.190  0.00  0.00    +0.000 A 
ATOM     15  C   UNL     1       3.800   3.422  18.041  0.00  0.00    +0.000 A 
ATOM     16  C   UNL     1       3.075   4.411  18.778  0.00  0.00    +0.000 A 
ATOM     17  C   UNL     1       3.392   5.882  18.850  0.00  0.00    +0.000 C 
ATOM     18  N   UNL     1       0.036  10.462  20.811  0.00  0.00    +0.000 NA
ATOM     19  H   UNL     1       1.072   8.275  21.003  0.00  0.00    +0.000 HD
ENDROOT
TORSDOF 0
ENDMDL
MODEL 3
REMARK VINA RESULT:      -6.1      1.689      1.918
REMARK  Name = 
REMARK  1 active torsions:
REMARK  status: ('A' for Active; 'I' for Inactive)
REMARK    1  A    between atoms: C_1  and  C_2
REMARK                            x       y       z     vdW  Elec       q    Type
REMARK                         _______ _______ _______ _____ _____    ______ ____
ROOT
ATOM      1  C   UNL     1      -2.148  12.253  21.535  0.00  0.00    +0.000 C 
ATOM      2  C   UNL     1      -1.358  11.640  20.443  0.00  0.00    +0.000 A 
ATOM      3  N   UNL     1      -1.432  12.103  19.192  0.00  0.00    +0.000 NA
ATOM      4  S   UNL     1      -0.382  11.163  18.283  0.00  0.00    +0.000 S 
ATOM      5  C   UNL     1       0.093  10.224  19.623  0.00  0.00    +0.000 A 
ATOM      6  N   UNL     1       0.983   9.185  19.591  0.00  0.00    +0.000 N 
ATOM      7  C   UNL     1       1.828   8.862  18.565  0.00  0.00    +0.000 C 
ATOM      8  O   UNL     1       1.962   9.534  17.547  0.00  0.00    +0.000 OA
ATOM      9  N   UNL     1       2.559   7.689  18.753  0.00  0.00    +0.000 N 
ATOM     10  C   UNL     1       2.475   6.771  19.910  0.00  0.00    +0.000 C 
ATOM     11  C   UNL     1       2.107   5.349  19.463  0.00  0.00    +0.000 C 
ATOM     12  C   UNL     1       3.031   4.955  18.364  0.00  0.00    +0.000 A 
ATOM     13  S   UNL     1       3.353   3.337  17.968  0.00  0.00    +0.000 S 
ATOM     14  C   UNL     1       4.428   3.811  16.724  0.00  0.00    +0.000 A 
ATOM     15  C   UNL     1       4.525   5.183  16.615  0.00  0.00    +0.000 A 
ATOM     16  C   UNL     1       3.703   5.863  17.568  0.00  0.00    +0.000 A 
ATOM     17  C   UNL     1       3.576   7.354  17.737  0.00  0.00    +0.000 C 
ATOM     18  N   UNL     1      -0.522  10.568  20.731  0.00  0.00    +0.000 NA
ATOM     19  H   UNL     1       1.133   8.806  20.506  0.00  0.00    +0.000 HD
ENDROOT
TORSDOF 0
ENDMDL
MODEL 4
REMARK VINA RESULT:      -6.0      2.109      7.503
REMARK  Name = 
REMARK  1 active torsions:
REMARK  status: ('A' for Active; 'I' for Inactive)
REMARK    1  A    between atoms: C_1  and  C_2
REMARK                            x       y       z     vdW  Elec       q    Type
REMARK                         _______ _______ _______ _____ _____    ______ ____
ROOT
ATOM      1  C   UNL     1       4.447   3.639  17.043  0.00  0.00    +0.000 C 
ATOM      2  C   UNL     1       3.666   4.356  18.077  0.00  0.00    +0.000 A 
ATOM      3  N   UNL     1       3.306   3.752  19.213  0.00  0.00    +0.000 NA
ATOM      4  S   UNL     1       2.471   4.900  20.107  0.00  0.00    +0.000 S 
ATOM      5  C   UNL     1       2.662   6.106  18.920  0.00  0.00    +0.000 A 
ATOM      6  N   UNL     1       2.176   7.383  18.997  0.00  0.00    +0.000 N 
ATOM      7  C   UNL     1       1.671   8.001  20.108  0.00  0.00    +0.000 C 
ATOM      8  O   UNL     1       1.670   7.504  21.231  0.00  0.00    +0.000 OA
ATOM      9  N   UNL     1       1.147   9.274  19.886  0.00  0.00    +0.000 N 
ATOM     10  C   UNL     1       1.055   9.977  18.587  0.00  0.00    +0.000 C 
ATOM     11  C   UNL     1      -0.398  10.354  18.263  0.00  0.00    +0.000 C 
ATOM     12  C   UNL     1      -0.969  11.058  19.446  0.00  0.00    +0.000 A 
ATOM     13  S   UNL     1      -2.296  12.109  19.339  0.00  0.00    +0.000 S 
ATOM     14  C   UNL     1      -2.235  12.426  21.019  0.00  0.00    +0.000 A 
ATOM     15  C   UNL     1      -1.221  11.728  21.643  0.00  0.00    +0.000 A 
ATOM     16  C   UNL     1      -0.477  10.917  20.729  0.00  0.00    +0.000 A 
ATOM     17  C   UNL     1       0.700  10.039  21.066  0.00  0.00    +0.000 C 
ATOM     18  N   UNL     1       3.310   5.681  17.860  0.00  0.00    +0.000 NA
ATOM     19  H   UNL     1       2.443   7.924  18.198  0.00  0.00    +0.000 HD
ENDROOT
TORSDOF 0
ENDMDL
MODEL 5
REMARK VINA RESULT:      -6.0      2.763      7.167
REMARK  Name = 
REMARK  1 active torsions:
REMARK  status: ('A' for Active; 'I' for Inactive)
REMARK    1  A    between atoms: C_1  and  C_2
REMARK                            x       y       z     vdW  Elec       q    Type
REMARK                         _______ _______ _______ _____ _____    ______ ____
ROOT
ATOM      1  C   UNL     1       2.036   2.620  21.469  0.00  0.00    +0.000 C 
ATOM      2  C   UNL     1       2.465   3.832  20.734  0.00  0.00    +0.000 A 
ATOM      3  N   UNL     1       3.581   3.836  20.000  0.00  0.00    +0.000 NA
ATOM      4  S   UNL     1       3.690   5.367  19.324  0.00  0.00    +0.000 S 
ATOM      5  C   UNL     1       2.244   5.898  20.051  0.00  0.00    +0.000 A 
ATOM      6  N   UNL     1       1.703   7.148  19.928  0.00  0.00    +0.000 N 
ATOM      7  C   UNL     1       2.068   8.113  19.028  0.00  0.00    +0.000 C 
ATOM      8  O   UNL     1       2.892   7.943  18.135  0.00  0.00    +0.000 OA
ATOM      9  N   UNL     1       1.423   9.338  19.187  0.00  0.00    +0.000 N 
ATOM     10  C   UNL     1       0.437   9.690  20.234  0.00  0.00    +0.000 C 
ATOM     11  C   UNL     1       0.905  10.903  21.050  0.00  0.00    +0.000 C 
ATOM     12  C   UNL     1       1.283  11.985  20.098  0.00  0.00    +0.000 A 
ATOM     13  S   UNL     1       1.314  13.624  20.534  0.00  0.00    +0.000 S 
ATOM     14  C   UNL     1       1.794  14.078  18.955  0.00  0.00    +0.000 A 
ATOM     15  C   UNL     1       1.934  12.988  18.120  0.00  0.00    +0.000 A 
ATOM     16  C   UNL     1       1.643  11.754  18.785  0.00  0.00    +0.000 A 
ATOM     17  C   UNL     1       1.684  10.379  18.173  0.00  0.00    +0.000 C 
ATOM     18  N   UNL     1       1.686   4.980  20.806  0.00  0.00    +0.000 NA
ATOM     19  H   UNL     1       0.831   7.218  20.415  0.00  0.00    +0.000 HD
ENDROOT
TORSDOF 0
ENDMDL
MODEL 6
REMARK VINA RESULT:      -5.9      4.834      7.838
REMARK  Name = 
REMARK  1 active torsions:
REMARK  status: ('A' for Active; 'I' for Inactive)
REMARK    1  A    between atoms: C_1  and  C_2
REMARK                            x       y       z     vdW  Elec       q    Type
REMARK                         _______ _______ _______ _____ _____    ______ ____
ROOT
ATOM      1  C   UNL     1       7.270   3.946  11.563  0.00  0.00    +0.000 C 
ATOM      2  C   UNL     1       7.010   4.394  12.951  0.00  0.00    +0.000 A 
ATOM      3  N   UNL     1       7.866   5.196  13.590  0.00  0.00    +0.000 NA
ATOM      4  S   UNL     1       7.199   5.480  15.102  0.00  0.00    +0.000 S 
ATOM      5  C   UNL     1       5.825   4.525  14.785  0.00  0.00    +0.000 A 
ATOM      6  N   UNL     1       4.800   4.290  15.659  0.00  0.00    +0.000 N 
ATOM      7  C   UNL     1       4.556   4.951  16.832  0.00  0.00    +0.000 C 
ATOM      8  O   UNL     1       5.195   5.925  17.218  0.00  0.00    +0.000 OA
ATOM      9  N   UNL     1       3.500   4.441  17.586  0.00  0.00    +0.000 N 
ATOM     10  C   UNL     1       2.669   3.260  17.258  0.00  0.00    +0.000 C 
ATOM     11  C   UNL     1       2.731   2.212  18.379  0.00  0.00    +0.000 C 
ATOM     12  C   UNL     1       2.440   2.896  19.670  0.00  0.00    +0.000 A 
ATOM     13  S   UNL     1       1.864   2.074  21.037  0.00  0.00    +0.000 S 
ATOM     14  C   UNL     1       1.810   3.527  21.940  0.00  0.00    +0.000 A 
ATOM     15  C   UNL     1       2.235   4.613  21.204  0.00  0.00    +0.000 A 
ATOM     16  C   UNL     1       2.614   4.252  19.872  0.00  0.00    +0.000 A 
ATOM     17  C   UNL     1       3.111   5.185  18.799  0.00  0.00    +0.000 C 
ATOM     18  N   UNL     1       5.851   3.975  13.593  0.00  0.00    +0.000 NA
ATOM     19  H   UNL     1       4.085   3.728  15.240  0.00  0.00    +0.000 HD
ENDROOT
TORSDOF 0
ENDMDL
MODEL 7
REMARK VINA RESULT:      -5.9      1.524      1.587
REMARK  Name = 
REMARK  1 active torsions:
REMARK  status: ('A' for Active; 'I' for Inactive)
REMARK    1  A    between atoms: C_1  and  C_2
REMARK                            x       y       z     vdW  Elec       q    Type
REMARK                         _______ _______ _______ _____ _____    ______ ____
ROOT
ATOM      1  C   UNL     1       0.103  13.444  21.849  0.00  0.00    +0.000 C 
ATOM      2  C   UNL     1       0.283  12.440  20.774  0.00  0.00    +0.000 A 
ATOM      3  N   UNL     1      -0.113  12.690  19.523  0.00  0.00    +0.000 NA
ATOM      4  S   UNL     1       0.287  11.329  18.627  0.00  0.00    +0.000 S 
ATOM      5  C   UNL     1       0.960  10.523  19.968  0.00  0.00    +0.000 A 
ATOM      6  N   UNL     1       1.501   9.267  19.953  0.00  0.00    +0.000 N 
ATOM      7  C   UNL     1       1.825   8.529  18.847  0.00  0.00    +0.000 C 
ATOM      8  O   UNL     1       1.749   8.946  17.696  0.00  0.00    +0.000 OA
ATOM      9  N   UNL     1       2.266   7.233  19.114  0.00  0.00    +0.000 N 
ATOM     10  C   UNL     1       2.376   6.593  20.444  0.00  0.00    +0.000 C 
ATOM     11  C   UNL     1       1.539   5.307  20.510  0.00  0.00    +0.000 C 
ATOM     12  C   UNL     1       1.891   4.465  19.333  0.00  0.00    +0.000 A 
ATOM     13  S   UNL     1       1.649   2.786  19.297  0.00  0.00    +0.000 S 
ATOM     14  C   UNL     1       2.297   2.684  17.716  0.00  0.00    +0.000 A 
ATOM     15  C   UNL     1       2.679   3.917  17.230  0.00  0.00    +0.000 A 
ATOM     16  C   UNL     1       2.438   4.970  18.169  0.00  0.00    +0.000 A 
ATOM     17  C   UNL     1       2.746   6.431  17.972  0.00  0.00    +0.000 C 
ATOM     18  N   UNL     1       0.879  11.223  21.077  0.00  0.00    +0.000 NA
ATOM     19  H   UNL     1       1.867   9.017  20.850  0.00  0.00    +0.000 HD
ENDROOT
TORSDOF 0
ENDMDL
MODEL 8
REMARK VINA RESULT:      -5.8      2.489      7.543
REMARK  Name = 
REMARK  1 active torsions:
REMARK  status: ('A' for Active; 'I' for Inactive)
REMARK    1  A    between atoms: C_1  and  C_2
REMARK                            x       y       z     vdW  Elec       q    Type
REMARK                         _______ _______ _______ _____ _____    ______ ____
ROOT
ATOM      1  C   UNL     1       5.907   3.676  15.321  0.00  0.00    +0.000 C 
ATOM      2  C   UNL     1       4.950   4.061  16.383  0.00  0.00    +0.000 A 
ATOM      3  N   UNL     1       4.393   3.142  17.177  0.00  0.00    +0.000 NA
ATOM      4  S   UNL     1       3.406   3.982  18.242  0.00  0.00    +0.000 S 
ATOM      5  C   UNL     1       3.804   5.496  17.570  0.00  0.00    +0.000 A 
ATOM      6  N   UNL     1       3.307   6.703  17.978  0.00  0.00    +0.000 N 
ATOM      7  C   UNL     1       2.607   6.954  19.127  0.00  0.00    +0.000 C 
ATOM      8  O   UNL     1       2.406   6.121  20.006  0.00  0.00    +0.000 OA
ATOM      9  N   UNL     1       2.126   8.257  19.250  0.00  0.00    +0.000 N 
ATOM     10  C   UNL     1       2.267   9.349  18.260  0.00  0.00    +0.000 C 
ATOM     11  C   UNL     1       0.896   9.890  17.834  0.00  0.00    +0.000 C 
ATOM     12  C   UNL     1       0.118  10.203  19.066  0.00  0.00    +0.000 A 
ATOM     13  S   UNL     1      -1.172  11.304  19.085  0.00  0.00    +0.000 S 
ATOM     14  C   UNL     1      -1.417  11.054  20.760  0.00  0.00    +0.000 A 
ATOM     15  C   UNL     1      -0.529  10.137  21.284  0.00  0.00    +0.000 A 
ATOM     16  C   UNL     1       0.371   9.626  20.295  0.00  0.00    +0.000 A 
ATOM     17  C   UNL     1       1.471   8.622  20.521  0.00  0.00    +0.000 C 
ATOM     18  N   UNL     1       4.634   5.402  16.557  0.00  0.00    +0.000 NA
ATOM     19  H   UNL     1       3.711   7.458  17.460  0.00  0.00    +0.000 HD
ENDROOT
TORSDOF 0
ENDMDL
MODEL 9
REMARK VINA RESULT:      -5.8      2.446      7.647
REMARK  Name = 
REMARK  1 active torsions:
REMARK  status: ('A' for Active; 'I' for Inactive)
REMARK    1  A    between atoms: C_1  and  C_2
REMARK                            x       y       z     vdW  Elec       q    Type
REMARK                         _______ _______ _______ _____ _____    ______ ____
ROOT
ATOM      1  C   UNL     1       4.726   5.211  16.655  0.00  0.00    +0.000 C 
ATOM      2  C   UNL     1       3.803   5.611  17.742  0.00  0.00    +0.000 A 
ATOM      3  N   UNL     1       3.340   4.715  18.618  0.00  0.00    +0.000 NA
ATOM      4  S   UNL     1       2.362   5.566  19.682  0.00  0.00    +0.000 S 
ATOM      5  C   UNL     1       2.638   7.054  18.901  0.00  0.00    +0.000 A 
ATOM      6  N   UNL     1       2.094   8.256  19.262  0.00  0.00    +0.000 N 
ATOM      7  C   UNL     1       1.441   8.541  20.429  0.00  0.00    +0.000 C 
ATOM      8  O   UNL     1       1.332   7.755  21.366  0.00  0.00    +0.000 OA
ATOM      9  N   UNL     1       0.893   9.822  20.499  0.00  0.00    +0.000 N 
ATOM     10  C   UNL     1       0.922  10.854  19.440  0.00  0.00    +0.000 C 
ATOM     11  C   UNL     1      -0.498  11.294  19.056  0.00  0.00    +0.000 C 
ATOM     12  C   UNL     1      -1.229  11.641  20.307  0.00  0.00    +0.000 A 
ATOM     13  S   UNL     1      -2.577  12.671  20.329  0.00  0.00    +0.000 S 
ATOM     14  C   UNL     1      -2.722  12.514  22.027  0.00  0.00    +0.000 A 
ATOM     15  C   UNL     1      -1.759  11.680  22.557  0.00  0.00    +0.000 A 
ATOM     16  C   UNL     1      -0.882  11.157  21.554  0.00  0.00    +0.000 A 
ATOM     17  C   UNL     1       0.283  10.229  21.780  0.00  0.00    +0.000 C 
ATOM     18  N   UNL     1       3.420   6.941  17.852  0.00  0.00    +0.000 NA
ATOM     19  H   UNL     1       2.429   8.998  18.678  0.00  0.00    +0.000 HD
ENDROOT
TORSDOF 0
ENDMDL
