MODEL 1
REMARK VINA RESULT:      -8.8      0.000      0.000
REMARK  Name = 
REMARK  3 active torsions:
REMARK  status: ('A' for Active; 'I' for Inactive)
REMARK    1  A    between atoms: C_4  and  C_5
REMARK    2  A    between atoms: C_9  and  N_10
REMARK    3  A    between atoms: C_17  and  C_18
REMARK                            x       y       z     vdW  Elec       q    Type
REMARK                         _______ _______ _______ _____ _____    ______ ____
ROOT
ATOM      1  O   UNL     1       1.857   9.229  17.325  0.00  0.00    +0.000 OA
ATOM      2  C   UNL     1       1.725   8.707  18.432  0.00  0.00    +0.000 C 
ATOM      3  C   UNL     1       2.034   7.242  18.597  0.00  0.00    +0.000 C 
ATOM      4  C   UNL     1       1.426   6.676  19.871  0.00  0.00    +0.000 C 
ATOM      5  C   UNL     1       1.855   7.547  21.057  0.00  0.00    +0.000 C 
ATOM      6  C   UNL     1       1.411   8.991  20.868  0.00  0.00    +0.000 C 
ATOM      7  C   UNL     1       1.318   9.527  19.628  0.00  0.00    +0.000 C 
ATOM      8  C   UNL     1       0.824  10.904  19.233  0.00  0.00    +0.000 C 
ATOM      9  N   UNL     1       0.868  11.906  20.315  0.00  0.00    +0.000 N 
ATOM     10  C   UNL     1      -0.049  11.703  21.363  0.00  0.00    +0.000 A 
ATOM     11  C   UNL     1      -1.088  12.627  21.556  0.00  0.00    +0.000 A 
ATOM     12  C   UNL     1      -2.071  12.410  22.521  0.00  0.00    +0.000 A 
ATOM     13  C   UNL     1      -2.018  11.271  23.317  0.00  0.00    +0.000 A 
ATOM     14  C   UNL     1      -0.965  10.367  23.165  0.00  0.00    +0.000 A 
ATOM     15  C   UNL     1       0.036  10.578  22.202  0.00  0.00    +0.000 A 
ATOM     16  N   UNL     1       1.046   9.602  22.057  0.00  0.00    +0.000 N 
ATOM     17  H   UNL     1       0.764  12.835  19.924  0.00  0.00    +0.000 HD
ATOM     18  H   UNL     1       1.223   9.076  22.905  0.00  0.00    +0.000 HD
ENDROOT
BRANCH   4  19
ATOM     19  C   UNL     1       1.789   5.213  20.049  0.00  0.00    +0.000 A 
ATOM     20  C   UNL     1       0.837   4.274  20.483  0.00  0.00    +0.000 A 
ATOM     21  C   UNL     1       1.193   2.940  20.696  0.00  0.00    +0.000 A 
ATOM     22  C   UNL     1       2.499   2.519  20.482  0.00  0.00    +0.000 A 
ATOM     23  C   UNL     1       3.458   3.441  20.043  0.00  0.00    +0.000 A 
ATOM     24  C   UNL     1       3.108   4.783  19.822  0.00  0.00    +0.000 A 
BRANCH  23  25
ATOM     25  N   UNL     1       4.843   3.001  19.841  0.00  0.00    +0.000 N 
ATOM     26  O   UNL     1       5.175   1.908  20.320  0.00  0.00    +0.000 OA
ATOM     27  O   UNL     1       5.593   3.751  19.200  0.00  0.00    +0.000 OA
ENDBRANCH  23  25
ENDBRANCH   4  19
BRANCH   8  28
ATOM     28  C   UNL     1      -0.542  10.883  18.532  0.00  0.00    +0.000 A 
ATOM     29  C   UNL     1      -1.392   9.762  18.593  0.00  0.00    +0.000 A 
ATOM     30  C   UNL     1      -2.592   9.730  17.883  0.00  0.00    +0.000 A 
ATOM     31  C   UNL     1      -2.976  10.829  17.121  0.00  0.00    +0.000 A 
ATOM     32  C   UNL     1      -2.168  11.964  17.080  0.00  0.00    +0.000 A 
ATOM     33  C   UNL     1      -0.960  11.993  17.781  0.00  0.00    +0.000 A 
ENDBRANCH   8  28
TORSDOF 3
ENDMDL
MODEL 2
REMARK VINA RESULT:      -8.8      0.082      1.033
REMARK  Name = 
REMARK  3 active torsions:
REMARK  status: ('A' for Active; 'I' for Inactive)
REMARK    1  A    between atoms: C_4  and  C_5
REMARK    2  A    between atoms: C_9  and  N_10
REMARK    3  A    between atoms: C_17  and  C_18
REMARK                            x       y       z     vdW  Elec       q    Type
REMARK                         _______ _______ _______ _____ _____    ______ ____
ROOT
ATOM      1  O   UNL     1       1.935   9.227  17.332  0.00  0.00    +0.000 OA
ATOM      2  C   UNL     1       1.785   8.698  18.434  0.00  0.00    +0.000 C 
ATOM      3  C   UNL     1       2.075   7.228  18.591  0.00  0.00    +0.000 C 
ATOM      4  C   UNL     1       1.446   6.660  19.854  0.00  0.00    +0.000 C 
ATOM      5  C   UNL     1       1.872   7.518  21.052  0.00  0.00    +0.000 C 
ATOM      6  C   UNL     1       1.445   8.967  20.868  0.00  0.00    +0.000 C 
ATOM      7  C   UNL     1       1.373   9.514  19.631  0.00  0.00    +0.000 C 
ATOM      8  C   UNL     1       0.899  10.899  19.242  0.00  0.00    +0.000 C 
ATOM      9  N   UNL     1       0.942  11.892  20.331  0.00  0.00    +0.000 N 
ATOM     10  C   UNL     1       0.010  11.692  21.367  0.00  0.00    +0.000 A 
ATOM     11  C   UNL     1      -1.021  12.626  21.555  0.00  0.00    +0.000 A 
ATOM     12  C   UNL     1      -2.017  12.413  22.506  0.00  0.00    +0.000 A 
ATOM     13  C   UNL     1      -1.986  11.267  23.294  0.00  0.00    +0.000 A 
ATOM     14  C   UNL     1      -0.942  10.353  23.148  0.00  0.00    +0.000 A 
ATOM     15  C   UNL     1       0.073  10.560  22.198  0.00  0.00    +0.000 A 
ATOM     16  N   UNL     1       1.073   9.574  22.057  0.00  0.00    +0.000 N 
ATOM     17  H   UNL     1       0.852  12.826  19.945  0.00  0.00    +0.000 HD
ATOM     18  H   UNL     1       1.235   9.040  22.904  0.00  0.00    +0.000 HD
ENDROOT
BRANCH   4  19
ATOM     19  C   UNL     1       1.791   5.192  20.025  0.00  0.00    +0.000 A 
ATOM     20  C   UNL     1       0.825   4.262  20.448  0.00  0.00    +0.000 A 
ATOM     21  C   UNL     1       1.164   2.922  20.655  0.00  0.00    +0.000 A 
ATOM     22  C   UNL     1       2.466   2.487  20.446  0.00  0.00    +0.000 A 
ATOM     23  C   UNL     1       3.439   3.401  20.018  0.00  0.00    +0.000 A 
ATOM     24  C   UNL     1       3.106   4.748  19.804  0.00  0.00    +0.000 A 
BRANCH  23  25
ATOM     25  N   UNL     1       4.819   2.945  19.822  0.00  0.00    +0.000 N 
ATOM     26  O   UNL     1       5.593   3.694  19.211  0.00  0.00    +0.000 OA
ATOM     27  O   UNL     1       5.126   1.835  20.282  0.00  0.00    +0.000 OA
ENDBRANCH  23  25
ENDBRANCH   4  19
BRANCH   8  28
ATOM     28  C   UNL     1      -0.459  10.899  18.524  0.00  0.00    +0.000 A 
ATOM     29  C   UNL     1      -0.934  12.030  17.834  0.00  0.00    +0.000 A 
ATOM     30  C   UNL     1      -2.205  12.039  17.258  0.00  0.00    +0.000 A 
ATOM     31  C   UNL     1      -3.010  10.908  17.337  0.00  0.00    +0.000 A 
ATOM     32  C   UNL     1      -2.541   9.763  17.981  0.00  0.00    +0.000 A 
ATOM     33  C   UNL     1      -1.274   9.757  18.569  0.00  0.00    +0.000 A 
ENDBRANCH   8  28
TORSDOF 3
ENDMDL
MODEL 3
REMARK VINA RESULT:      -8.8      4.904      7.698
REMARK  Name = 
REMARK  3 active torsions:
REMARK  status: ('A' for Active; 'I' for Inactive)
REMARK    1  A    between atoms: C_4  and  C_5
REMARK    2  A    between atoms: C_9  and  N_10
REMARK    3  A    between atoms: C_17  and  C_18
REMARK                            x       y       z     vdW  Elec       q    Type
REMARK                         _______ _______ _______ _____ _____    ______ ____
ROOT
ATOM      1  O   UNL     1       6.137   7.262  18.179  0.00  0.00    +0.000 OA
ATOM      2  C   UNL     1       5.848   6.215  17.599  0.00  0.00    +0.000 C 
ATOM      3  C   UNL     1       6.438   5.940  16.240  0.00  0.00    +0.000 C 
ATOM      4  C   UNL     1       5.670   4.855  15.501  0.00  0.00    +0.000 C 
ATOM      5  C   UNL     1       5.561   3.619  16.402  0.00  0.00    +0.000 C 
ATOM      6  C   UNL     1       4.856   3.953  17.709  0.00  0.00    +0.000 C 
ATOM      7  C   UNL     1       4.965   5.187  18.256  0.00  0.00    +0.000 C 
ATOM      8  C   UNL     1       4.283   5.730  19.495  0.00  0.00    +0.000 C 
ATOM      9  N   UNL     1       3.809   4.700  20.437  0.00  0.00    +0.000 N 
ATOM     10  C   UNL     1       2.725   3.922  19.987  0.00  0.00    +0.000 A 
ATOM     11  C   UNL     1       1.485   4.030  20.637  0.00  0.00    +0.000 A 
ATOM     12  C   UNL     1       0.365   3.350  20.161  0.00  0.00    +0.000 A 
ATOM     13  C   UNL     1       0.475   2.540  19.036  0.00  0.00    +0.000 A 
ATOM     14  C   UNL     1       1.712   2.390  18.407  0.00  0.00    +0.000 A 
ATOM     15  C   UNL     1       2.851   3.063  18.881  0.00  0.00    +0.000 A 
ATOM     16  N   UNL     1       4.063   2.916  18.173  0.00  0.00    +0.000 N 
ATOM     17  H   UNL     1       3.595   5.128  21.331  0.00  0.00    +0.000 HD
ATOM     18  H   UNL     1       4.133   2.038  17.671  0.00  0.00    +0.000 HD
ENDROOT
BRANCH   4  19
ATOM     19  C   UNL     1       6.307   4.553  14.156  0.00  0.00    +0.000 A 
ATOM     20  C   UNL     1       7.344   5.353  13.647  0.00  0.00    +0.000 A 
ATOM     21  C   UNL     1       7.888   5.102  12.384  0.00  0.00    +0.000 A 
ATOM     22  C   UNL     1       7.410   4.052  11.611  0.00  0.00    +0.000 A 
ATOM     23  C   UNL     1       6.381   3.241  12.108  0.00  0.00    +0.000 A 
ATOM     24  C   UNL     1       5.832   3.485  13.377  0.00  0.00    +0.000 A 
BRANCH  23  25
ATOM     25  N   UNL     1       5.860   2.148  11.279  0.00  0.00    +0.000 N 
ATOM     26  O   UNL     1       6.667   1.308  10.860  0.00  0.00    +0.000 OA
ATOM     27  O   UNL     1       4.642   2.135  11.052  0.00  0.00    +0.000 OA
ENDBRANCH  23  25
ENDBRANCH   4  19
BRANCH   8  28
ATOM     28  C   UNL     1       3.189   6.764  19.184  0.00  0.00    +0.000 A 
ATOM     29  C   UNL     1       2.912   7.179  17.867  0.00  0.00    +0.000 A 
ATOM     30  C   UNL     1       1.972   8.178  17.612  0.00  0.00    +0.000 A 
ATOM     31  C   UNL     1       1.273   8.758  18.665  0.00  0.00    +0.000 A 
ATOM     32  C   UNL     1       1.504   8.332  19.972  0.00  0.00    +0.000 A 
ATOM     33  C   UNL     1       2.454   7.340  20.231  0.00  0.00    +0.000 A 
ENDBRANCH   8  28
TORSDOF 3
ENDMDL
MODEL 4
REMARK VINA RESULT:      -8.6      1.135      1.324
REMARK  Name = 
REMARK  3 active torsions:
REMARK  status: ('A' for Active; 'I' for Inactive)
REMARK    1  A    between atoms: C_4  and  C_5
REMARK    2  A    between atoms: C_9  and  N_10
REMARK    3  A    between atoms: C_17  and  C_18
REMARK                            x       y       z     vdW  Elec       q    Type
REMARK                         _______ _______ _______ _____ _____    ______ ____
ROOT
ATOM      1  O   UNL     1       2.194   9.444  17.069  0.00  0.00    +0.000 OA
ATOM      2  C   UNL     1       2.077   8.711  18.052  0.00  0.00    +0.000 C 
ATOM      3  C   UNL     1       2.361   7.238  17.910  0.00  0.00    +0.000 C 
ATOM      4  C   UNL     1       1.771   6.436  19.060  0.00  0.00    +0.000 C 
ATOM      5  C   UNL     1       2.244   7.044  20.385  0.00  0.00    +0.000 C 
ATOM      6  C   UNL     1       1.823   8.502  20.502  0.00  0.00    +0.000 C 
ATOM      7  C   UNL     1       1.713   9.278  19.398  0.00  0.00    +0.000 C 
ATOM      8  C   UNL     1       1.237  10.713  19.302  0.00  0.00    +0.000 C 
ATOM      9  N   UNL     1       1.325  11.476  20.562  0.00  0.00    +0.000 N 
ATOM     10  C   UNL     1       0.428  11.079  21.571  0.00  0.00    +0.000 A 
ATOM     11  C   UNL     1      -0.589  11.960  21.974  0.00  0.00    +0.000 A 
ATOM     12  C   UNL     1      -1.553  11.566  22.900  0.00  0.00    +0.000 A 
ATOM     13  C   UNL     1      -1.504  10.290  23.448  0.00  0.00    +0.000 A 
ATOM     14  C   UNL     1      -0.473   9.420  23.090  0.00  0.00    +0.000 A 
ATOM     15  C   UNL     1       0.510   9.806  22.164  0.00  0.00    +0.000 A 
ATOM     16  N   UNL     1       1.497   8.866  21.799  0.00  0.00    +0.000 N 
ATOM     17  H   UNL     1       1.229  12.467  20.368  0.00  0.00    +0.000 HD
ATOM     18  H   UNL     1       1.684   8.177  22.519  0.00  0.00    +0.000 HD
ENDROOT
BRANCH   4  19
ATOM     19  C   UNL     1       2.110   4.962  18.929  0.00  0.00    +0.000 A 
ATOM     20  C   UNL     1       1.683   4.213  17.820  0.00  0.00    +0.000 A 
ATOM     21  C   UNL     1       1.952   2.844  17.734  0.00  0.00    +0.000 A 
ATOM     22  C   UNL     1       2.649   2.201  18.747  0.00  0.00    +0.000 A 
ATOM     23  C   UNL     1       3.088   2.936  19.857  0.00  0.00    +0.000 A 
ATOM     24  C   UNL     1       2.825   4.312  19.950  0.00  0.00    +0.000 A 
BRANCH  23  25
ATOM     25  N   UNL     1       3.803   2.250  20.939  0.00  0.00    +0.000 N 
ATOM     26  O   UNL     1       4.954   1.855  20.710  0.00  0.00    +0.000 OA
ATOM     27  O   UNL     1       3.208   2.110  22.018  0.00  0.00    +0.000 OA
ENDBRANCH  23  25
ENDBRANCH   4  19
BRANCH   8  28
ATOM     28  C   UNL     1      -0.145  10.854  18.647  0.00  0.00    +0.000 A 
ATOM     29  C   UNL     1      -0.985   9.743  18.438  0.00  0.00    +0.000 A 
ATOM     30  C   UNL     1      -2.201   9.878  17.768  0.00  0.00    +0.000 A 
ATOM     31  C   UNL     1      -2.611  11.129  17.319  0.00  0.00    +0.000 A 
ATOM     32  C   UNL     1      -1.812  12.248  17.551  0.00  0.00    +0.000 A 
ATOM     33  C   UNL     1      -0.588  12.113  18.212  0.00  0.00    +0.000 A 
ENDBRANCH   8  28
TORSDOF 3
ENDMDL
MODEL 5
REMARK VINA RESULT:      -8.5      1.136      1.534
REMARK  Name = 
REMARK  3 active torsions:
REMARK  status: ('A' for Active; 'I' for Inactive)
REMARK    1  A    between atoms: C_4  and  C_5
REMARK    2  A    between atoms: C_9  and  N_10
REMARK    3  A    between atoms: C_17  and  C_18
REMARK                            x       y       z     vdW  Elec       q    Type
REMARK                         _______ _______ _______ _____ _____    ______ ____
ROOT
ATOM      1  O   UNL     1       2.223   9.432  17.076  0.00  0.00    +0.000 OA
ATOM      2  C   UNL     1       2.094   8.701  18.059  0.00  0.00    +0.000 C 
ATOM      3  C   UNL     1       2.369   7.226  17.920  0.00  0.00    +0.000 C 
ATOM      4  C   UNL     1       1.766   6.429  19.067  0.00  0.00    +0.000 C 
ATOM      5  C   UNL     1       2.234   7.035  20.395  0.00  0.00    +0.000 C 
ATOM      6  C   UNL     1       1.823   8.496  20.507  0.00  0.00    +0.000 C 
ATOM      7  C   UNL     1       1.725   9.272  19.402  0.00  0.00    +0.000 C 
ATOM      8  C   UNL     1       1.260  10.710  19.301  0.00  0.00    +0.000 C 
ATOM      9  N   UNL     1       1.344  11.474  20.560  0.00  0.00    +0.000 N 
ATOM     10  C   UNL     1       0.438  11.084  21.564  0.00  0.00    +0.000 A 
ATOM     11  C   UNL     1      -0.576  11.973  21.959  0.00  0.00    +0.000 A 
ATOM     12  C   UNL     1      -1.549  11.586  22.879  0.00  0.00    +0.000 A 
ATOM     13  C   UNL     1      -1.513  10.310  23.429  0.00  0.00    +0.000 A 
ATOM     14  C   UNL     1      -0.485   9.433  23.079  0.00  0.00    +0.000 A 
ATOM     15  C   UNL     1       0.507   9.812  22.159  0.00  0.00    +0.000 A 
ATOM     16  N   UNL     1       1.490   8.864  21.801  0.00  0.00    +0.000 N 
ATOM     17  H   UNL     1       1.257  12.465  20.365  0.00  0.00    +0.000 HD
ATOM     18  H   UNL     1       1.668   8.175  22.524  0.00  0.00    +0.000 HD
ENDROOT
BRANCH   4  19
ATOM     19  C   UNL     1       2.096   4.953  18.940  0.00  0.00    +0.000 A 
ATOM     20  C   UNL     1       1.650   4.200  17.840  0.00  0.00    +0.000 A 
ATOM     21  C   UNL     1       1.911   2.829  17.758  0.00  0.00    +0.000 A 
ATOM     22  C   UNL     1       2.618   2.188  18.767  0.00  0.00    +0.000 A 
ATOM     23  C   UNL     1       3.075   2.926  19.866  0.00  0.00    +0.000 A 
ATOM     24  C   UNL     1       2.820   4.305  19.955  0.00  0.00    +0.000 A 
BRANCH  23  25
ATOM     25  N   UNL     1       3.800   2.242  20.943  0.00  0.00    +0.000 N 
ATOM     26  O   UNL     1       3.221   2.100  22.028  0.00  0.00    +0.000 OA
ATOM     27  O   UNL     1       4.949   1.848  20.696  0.00  0.00    +0.000 OA
ENDBRANCH  23  25
ENDBRANCH   4  19
BRANCH   8  28
ATOM     28  C   UNL     1      -0.117  10.860  18.636  0.00  0.00    +0.000 A 
ATOM     29  C   UNL     1      -0.628  12.118  18.261  0.00  0.00    +0.000 A 
ATOM     30  C   UNL     1      -1.913  12.243  17.734  0.00  0.00    +0.000 A 
ATOM     31  C   UNL     1      -2.699  11.110  17.545  0.00  0.00    +0.000 A 
ATOM     32  C   UNL     1      -2.195   9.852  17.872  0.00  0.00    +0.000 A 
ATOM     33  C   UNL     1      -0.913   9.726  18.412  0.00  0.00    +0.000 A 
ENDBRANCH   8  28
TORSDOF 3
ENDMDL
MODEL 6
REMARK VINA RESULT:      -8.5      3.094      8.591
REMARK  Name = 
REMARK  3 active torsions:
REMARK  status: ('A' for Active; 'I' for Inactive)
REMARK    1  A    between atoms: C_4  and  C_5
REMARK    2  A    between atoms: C_9  and  N_10
REMARK    3  A    between atoms: C_17  and  C_18
REMARK                            x       y       z     vdW  Elec       q    Type
REMARK                         _______ _______ _______ _____ _____    ______ ____
ROOT
ATOM      1  O   UNL     1       1.716   6.554  21.242  0.00  0.00    +0.000 OA
ATOM      2  C   UNL     1       1.889   7.220  20.220  0.00  0.00    +0.000 C 
ATOM      3  C   UNL     1       0.970   8.378  19.932  0.00  0.00    +0.000 C 
ATOM      4  C   UNL     1       1.044   8.808  18.474  0.00  0.00    +0.000 C 
ATOM      5  C   UNL     1       2.510   9.059  18.103  0.00  0.00    +0.000 C 
ATOM      6  C   UNL     1       3.353   7.811  18.318  0.00  0.00    +0.000 C 
ATOM      7  C   UNL     1       3.041   6.928  19.296  0.00  0.00    +0.000 C 
ATOM      8  C   UNL     1       3.703   5.602  19.612  0.00  0.00    +0.000 C 
ATOM      9  N   UNL     1       5.080   5.466  19.103  0.00  0.00    +0.000 N 
ATOM     10  C   UNL     1       5.200   5.373  17.703  0.00  0.00    +0.000 A 
ATOM     11  C   UNL     1       5.662   4.177  17.130  0.00  0.00    +0.000 A 
ATOM     12  C   UNL     1       5.702   4.014  15.747  0.00  0.00    +0.000 A 
ATOM     13  C   UNL     1       5.296   5.052  14.916  0.00  0.00    +0.000 A 
ATOM     14  C   UNL     1       4.878   6.262  15.473  0.00  0.00    +0.000 A 
ATOM     15  C   UNL     1       4.840   6.443  16.866  0.00  0.00    +0.000 A 
ATOM     16  N   UNL     1       4.356   7.668  17.372  0.00  0.00    +0.000 N 
ATOM     17  H   UNL     1       5.535   4.679  19.553  0.00  0.00    +0.000 HD
ATOM     18  H   UNL     1       4.487   8.448  16.736  0.00  0.00    +0.000 HD
ENDROOT
BRANCH   4  19
ATOM     19  C   UNL     1       0.152  10.008  18.211  0.00  0.00    +0.000 A 
ATOM     20  C   UNL     1       0.441  11.265  18.769  0.00  0.00    +0.000 A 
ATOM     21  C   UNL     1      -0.414  12.351  18.568  0.00  0.00    +0.000 A 
ATOM     22  C   UNL     1      -1.568  12.205  17.809  0.00  0.00    +0.000 A 
ATOM     23  C   UNL     1      -1.866  10.960  17.241  0.00  0.00    +0.000 A 
ATOM     24  C   UNL     1      -1.010   9.864  17.435  0.00  0.00    +0.000 A 
BRANCH  23  25
ATOM     25  N   UNL     1      -3.099  10.800  16.460  0.00  0.00    +0.000 N 
ATOM     26  O   UNL     1      -4.169  10.741  17.079  0.00  0.00    +0.000 OA
ATOM     27  O   UNL     1      -2.989  10.736  15.227  0.00  0.00    +0.000 OA
ENDBRANCH  23  25
ENDBRANCH   4  19
BRANCH   8  28
ATOM     28  C   UNL     1       2.838   4.386  19.245  0.00  0.00    +0.000 A 
ATOM     29  C   UNL     1       1.965   4.402  18.141  0.00  0.00    +0.000 A 
ATOM     30  C   UNL     1       1.127   3.319  17.872  0.00  0.00    +0.000 A 
ATOM     31  C   UNL     1       1.169   2.191  18.685  0.00  0.00    +0.000 A 
ATOM     32  C   UNL     1       2.056   2.141  19.760  0.00  0.00    +0.000 A 
ATOM     33  C   UNL     1       2.886   3.229  20.038  0.00  0.00    +0.000 A 
ENDBRANCH   8  28
TORSDOF 3
ENDMDL
MODEL 7
REMARK VINA RESULT:      -8.4      4.925      7.720
REMARK  Name = 
REMARK  3 active torsions:
REMARK  status: ('A' for Active; 'I' for Inactive)
REMARK    1  A    between atoms: C_4  and  C_5
REMARK    2  A    between atoms: C_9  and  N_10
REMARK    3  A    between atoms: C_17  and  C_18
REMARK                            x       y       z     vdW  Elec       q    Type
REMARK                         _______ _______ _______ _____ _____    ______ ____
ROOT
ATOM      1  O   UNL     1       6.241   7.167  18.183  0.00  0.00    +0.000 OA
ATOM      2  C   UNL     1       5.918   6.136  17.591  0.00  0.00    +0.000 C 
ATOM      3  C   UNL     1       6.489   5.863  16.224  0.00  0.00    +0.000 C 
ATOM      4  C   UNL     1       5.685   4.810  15.476  0.00  0.00    +0.000 C 
ATOM      5  C   UNL     1       5.548   3.566  16.362  0.00  0.00    +0.000 C 
ATOM      6  C   UNL     1       4.863   3.902  17.678  0.00  0.00    +0.000 C 
ATOM      7  C   UNL     1       5.011   5.125  18.241  0.00  0.00    +0.000 C 
ATOM      8  C   UNL     1       4.354   5.670  19.492  0.00  0.00    +0.000 C 
ATOM      9  N   UNL     1       3.858   4.641  20.425  0.00  0.00    +0.000 N 
ATOM     10  C   UNL     1       2.749   3.900  19.973  0.00  0.00    +0.000 A 
ATOM     11  C   UNL     1       1.518   4.034  20.634  0.00  0.00    +0.000 A 
ATOM     12  C   UNL     1       0.375   3.393  20.158  0.00  0.00    +0.000 A 
ATOM     13  C   UNL     1       0.453   2.596  19.021  0.00  0.00    +0.000 A 
ATOM     14  C   UNL     1       1.681   2.419  18.381  0.00  0.00    +0.000 A 
ATOM     15  C   UNL     1       2.842   3.053  18.855  0.00  0.00    +0.000 A 
ATOM     16  N   UNL     1       4.044   2.882  18.135  0.00  0.00    +0.000 N 
ATOM     17  H   UNL     1       3.663   5.062  21.326  0.00  0.00    +0.000 HD
ATOM     18  H   UNL     1       4.085   2.009  17.620  0.00  0.00    +0.000 HD
ENDROOT
BRANCH   4  19
ATOM     19  C   UNL     1       6.303   4.508  14.123  0.00  0.00    +0.000 A 
ATOM     20  C   UNL     1       7.332   5.310  13.598  0.00  0.00    +0.000 A 
ATOM     21  C   UNL     1       7.857   5.059  12.328  0.00  0.00    +0.000 A 
ATOM     22  C   UNL     1       7.369   4.009  11.561  0.00  0.00    +0.000 A 
ATOM     23  C   UNL     1       6.348   3.197  12.073  0.00  0.00    +0.000 A 
ATOM     24  C   UNL     1       5.817   3.440  13.350  0.00  0.00    +0.000 A 
BRANCH  23  25
ATOM     25  N   UNL     1       5.816   2.104  11.252  0.00  0.00    +0.000 N 
ATOM     26  O   UNL     1       4.604   2.107  11.003  0.00  0.00    +0.000 OA
ATOM     27  O   UNL     1       6.618   1.245  10.856  0.00  0.00    +0.000 OA
ENDBRANCH  23  25
ENDBRANCH   4  19
BRANCH   8  28
ATOM     28  C   UNL     1       3.288   6.738  19.204  0.00  0.00    +0.000 A 
ATOM     29  C   UNL     1       2.504   7.300  20.230  0.00  0.00    +0.000 A 
ATOM     30  C   UNL     1       1.485   8.209  19.940  0.00  0.00    +0.000 A 
ATOM     31  C   UNL     1       1.251   8.591  18.623  0.00  0.00    +0.000 A 
ATOM     32  C   UNL     1       2.043   8.076  17.598  0.00  0.00    +0.000 A 
ATOM     33  C   UNL     1       3.056   7.158  17.885  0.00  0.00    +0.000 A 
ENDBRANCH   8  28
TORSDOF 3
ENDMDL
MODEL 8
REMARK VINA RESULT:      -8.4      0.903      1.252
REMARK  Name = 
REMARK  3 active torsions:
REMARK  status: ('A' for Active; 'I' for Inactive)
REMARK    1  A    between atoms: C_4  and  C_5
REMARK    2  A    between atoms: C_9  and  N_10
REMARK    3  A    between atoms: C_17  and  C_18
REMARK                            x       y       z     vdW  Elec       q    Type
REMARK                         _______ _______ _______ _____ _____    ______ ____
ROOT
ATOM      1  O   UNL     1       1.936   9.351  17.273  0.00  0.00    +0.000 OA
ATOM      2  C   UNL     1       1.825   8.816  18.377  0.00  0.00    +0.000 C 
ATOM      3  C   UNL     1       2.196   7.365  18.533  0.00  0.00    +0.000 C 
ATOM      4  C   UNL     1       1.611   6.765  19.802  0.00  0.00    +0.000 C 
ATOM      5  C   UNL     1       1.999   7.646  20.995  0.00  0.00    +0.000 C 
ATOM      6  C   UNL     1       1.493   9.070  20.814  0.00  0.00    +0.000 C 
ATOM      7  C   UNL     1       1.380   9.610  19.577  0.00  0.00    +0.000 C 
ATOM      8  C   UNL     1       0.828  10.966  19.190  0.00  0.00    +0.000 C 
ATOM      9  N   UNL     1       0.826  11.962  20.277  0.00  0.00    +0.000 N 
ATOM     10  C   UNL     1      -0.084  11.713  21.322  0.00  0.00    +0.000 A 
ATOM     11  C   UNL     1      -1.163  12.590  21.519  0.00  0.00    +0.000 A 
ATOM     12  C   UNL     1      -2.138  12.324  22.479  0.00  0.00    +0.000 A 
ATOM     13  C   UNL     1      -2.037  11.183  23.268  0.00  0.00    +0.000 A 
ATOM     14  C   UNL     1      -0.946  10.327  23.113  0.00  0.00    +0.000 A 
ATOM     15  C   UNL     1       0.048  10.587  22.154  0.00  0.00    +0.000 A 
ATOM     16  N   UNL     1       1.099   9.657  22.005  0.00  0.00    +0.000 N 
ATOM     17  H   UNL     1       0.682  12.889  19.892  0.00  0.00    +0.000 HD
ATOM     18  H   UNL     1       1.298   9.134  22.851  0.00  0.00    +0.000 HD
ENDROOT
BRANCH   4  19
ATOM     19  C   UNL     1       2.037   5.318  19.971  0.00  0.00    +0.000 A 
ATOM     20  C   UNL     1       1.877   4.651  21.198  0.00  0.00    +0.000 A 
ATOM     21  C   UNL     1       2.322   3.337  21.362  0.00  0.00    +0.000 A 
ATOM     22  C   UNL     1       2.932   2.666  20.310  0.00  0.00    +0.000 A 
ATOM     23  C   UNL     1       3.093   3.315  19.079  0.00  0.00    +0.000 A 
ATOM     24  C   UNL     1       2.645   4.634  18.905  0.00  0.00    +0.000 A 
BRANCH  23  25
ATOM     25  N   UNL     1       3.760   2.614  17.976  0.00  0.00    +0.000 N 
ATOM     26  O   UNL     1       3.674   1.379  17.942  0.00  0.00    +0.000 OA
ATOM     27  O   UNL     1       4.367   3.304  17.144  0.00  0.00    +0.000 OA
ENDBRANCH  23  25
ENDBRANCH   4  19
BRANCH   8  28
ATOM     28  C   UNL     1      -0.535  10.891  18.484  0.00  0.00    +0.000 A 
ATOM     29  C   UNL     1      -1.053  11.976  17.751  0.00  0.00    +0.000 A 
ATOM     30  C   UNL     1      -2.327  11.918  17.186  0.00  0.00    +0.000 A 
ATOM     31  C   UNL     1      -3.094  10.765  17.320  0.00  0.00    +0.000 A 
ATOM     32  C   UNL     1      -2.582   9.665  18.008  0.00  0.00    +0.000 A 
ATOM     33  C   UNL     1      -1.311   9.726  18.585  0.00  0.00    +0.000 A 
ENDBRANCH   8  28
TORSDOF 3
ENDMDL
MODEL 9
REMARK VINA RESULT:      -8.4      3.097      8.566
REMARK  Name = 
REMARK  3 active torsions:
REMARK  status: ('A' for Active; 'I' for Inactive)
REMARK    1  A    between atoms: C_4  and  C_5
REMARK    2  A    between atoms: C_9  and  N_10
REMARK    3  A    between atoms: C_17  and  C_18
REMARK                            x       y       z     vdW  Elec       q    Type
REMARK                         _______ _______ _______ _____ _____    ______ ____
ROOT
ATOM      1  O   UNL     1       1.670   6.612  21.263  0.00  0.00    +0.000 OA
ATOM      2  C   UNL     1       1.845   7.271  20.237  0.00  0.00    +0.000 C 
ATOM      3  C   UNL     1       0.923   8.423  19.936  0.00  0.00    +0.000 C 
ATOM      4  C   UNL     1       1.001   8.842  18.476  0.00  0.00    +0.000 C 
ATOM      5  C   UNL     1       2.467   9.095  18.107  0.00  0.00    +0.000 C 
ATOM      6  C   UNL     1       3.313   7.850  18.334  0.00  0.00    +0.000 C 
ATOM      7  C   UNL     1       3.000   6.974  19.318  0.00  0.00    +0.000 C 
ATOM      8  C   UNL     1       3.665   5.653  19.647  0.00  0.00    +0.000 C 
ATOM      9  N   UNL     1       5.044   5.517  19.143  0.00  0.00    +0.000 N 
ATOM     10  C   UNL     1       5.169   5.414  17.745  0.00  0.00    +0.000 A 
ATOM     11  C   UNL     1       5.636   4.214  17.183  0.00  0.00    +0.000 A 
ATOM     12  C   UNL     1       5.681   4.041  15.800  0.00  0.00    +0.000 A 
ATOM     13  C   UNL     1       5.275   5.072  14.961  0.00  0.00    +0.000 A 
ATOM     14  C   UNL     1       4.851   6.285  15.506  0.00  0.00    +0.000 A 
ATOM     15  C   UNL     1       4.808   6.476  16.898  0.00  0.00    +0.000 A 
ATOM     16  N   UNL     1       4.319   7.704  17.393  0.00  0.00    +0.000 N 
ATOM     17  H   UNL     1       5.500   4.735  19.601  0.00  0.00    +0.000 HD
ATOM     18  H   UNL     1       4.451   8.478  16.752  0.00  0.00    +0.000 HD
ENDROOT
BRANCH   4  19
ATOM     19  C   UNL     1       0.106  10.037  18.201  0.00  0.00    +0.000 A 
ATOM     20  C   UNL     1       0.384  11.297  18.758  0.00  0.00    +0.000 A 
ATOM     21  C   UNL     1      -0.474  12.379  18.546  0.00  0.00    +0.000 A 
ATOM     22  C   UNL     1      -1.620  12.226  17.776  0.00  0.00    +0.000 A 
ATOM     23  C   UNL     1      -1.907  10.978  17.208  0.00  0.00    +0.000 A 
ATOM     24  C   UNL     1      -1.048   9.886  17.413  0.00  0.00    +0.000 A 
BRANCH  23  25
ATOM     25  N   UNL     1      -3.130  10.810  16.415  0.00  0.00    +0.000 N 
ATOM     26  O   UNL     1      -3.017  10.763  15.183  0.00  0.00    +0.000 OA
ATOM     27  O   UNL     1      -4.203  10.725  17.031  0.00  0.00    +0.000 OA
ENDBRANCH  23  25
ENDBRANCH   4  19
BRANCH   8  28
ATOM     28  C   UNL     1       2.805   4.432  19.287  0.00  0.00    +0.000 A 
ATOM     29  C   UNL     1       2.843   3.246  20.046  0.00  0.00    +0.000 A 
ATOM     30  C   UNL     1       2.117   2.120  19.657  0.00  0.00    +0.000 A 
ATOM     31  C   UNL     1       1.319   2.169  18.519  0.00  0.00    +0.000 A 
ATOM     32  C   UNL     1       1.236   3.346  17.776  0.00  0.00    +0.000 A 
ATOM     33  C   UNL     1       1.972   4.471  18.158  0.00  0.00    +0.000 A 
ENDBRANCH   8  28
TORSDOF 3
ENDMDL
