MODEL 1
REMARK VINA RESULT:      -6.6      0.000      0.000
REMARK  Name = 
REMARK  8 active torsions:
REMARK  status: ('A' for Active; 'I' for Inactive)
REMARK    1  A    between atoms: C_1  and  O_2
REMARK    2  A    between atoms: O_2  and  C_3
REMARK    3  A    between atoms: C_5  and  C_6
REMARK    4  A    between atoms: C_7  and  O_8
REMARK    5  A    between atoms: O_8  and  C_9
REMARK    6  A    between atoms: C_10  and  C_11
REMARK    7  A    between atoms: C_12  and  C_13
REMARK    8  A    between atoms: C_13  and  C_14
REMARK                            x       y       z     vdW  Elec       q    Type
REMARK                         _______ _______ _______ _____ _____    ______ ____
ROOT
ATOM      1  C   UNL     1       3.639   3.832  17.147  0.00  0.00    +0.000 A 
ATOM      2  C   UNL     1       4.842   3.710  16.441  0.00  0.00    +0.000 A 
ATOM      3  C   UNL     1       5.720   4.764  16.257  0.00  0.00    +0.000 A 
ATOM      4  C   UNL     1       7.064   4.384  15.698  0.00  0.00    +0.000 C 
ATOM      5  C   UNL     1       5.284   6.040  16.631  0.00  0.00    +0.000 A 
ATOM      6  C   UNL     1       4.033   6.223  17.302  0.00  0.00    +0.000 A 
ATOM      7  C   UNL     1       3.589   7.609  17.707  0.00  0.00    +0.000 C 
ATOM      8  C   UNL     1       3.207   5.109  17.632  0.00  0.00    +0.000 A 
ENDROOT
BRANCH   1  10
ATOM      9  C   UNL     1       3.499   1.657  18.179  0.00  0.00    +0.000 C 
ATOM     10  O   UNL     1       2.908   2.684  17.357  0.00  0.00    +0.000 OA
ENDBRANCH   1  10
BRANCH   5  11
ATOM     11  O   UNL     1       6.057   7.164  16.480  0.00  0.00    +0.000 OA
ATOM     12  C   UNL     1       7.110   7.310  17.426  0.00  0.00    +0.000 C 
ENDBRANCH   5  11
BRANCH   8  13
ATOM     13  C   UNL     1       2.114   5.305  18.714  0.00  0.00    +0.000 C 
BRANCH  13  14
ATOM     14  C   UNL     1       1.860   4.381  19.925  0.00  0.00    +0.000 C 
ATOM     15  N   UNL     1       0.783   3.642  20.100  0.00  0.00    +0.000 NA
ATOM     16  C   UNL     1       1.101   2.782  21.311  0.00  0.00    +0.000 C 
ATOM     17  C   UNL     1       2.587   2.964  21.613  0.00  0.00    +0.000 C 
ATOM     18  N   UNL     1       2.877   4.149  20.838  0.00  0.00    +0.000 N 
ATOM     19  H   UNL     1       3.836   4.269  20.527  0.00  0.00    +0.000 HD
ENDBRANCH  13  14
ENDBRANCH   8  13
TORSDOF 4
ENDMDL
MODEL 2
REMARK VINA RESULT:      -6.4      2.440      5.650
REMARK  Name = 
REMARK  8 active torsions:
REMARK  status: ('A' for Active; 'I' for Inactive)
REMARK    1  A    between atoms: C_1  and  O_2
REMARK    2  A    between atoms: O_2  and  C_3
REMARK    3  A    between atoms: C_5  and  C_6
REMARK    4  A    between atoms: C_7  and  O_8
REMARK    5  A    between atoms: O_8  and  C_9
REMARK    6  A    between atoms: C_10  and  C_11
REMARK    7  A    between atoms: C_12  and  C_13
REMARK    8  A    between atoms: C_13  and  C_14
REMARK                            x       y       z     vdW  Elec       q    Type
REMARK                         _______ _______ _______ _____ _____    ______ ____
ROOT
ATOM      1  C   UNL     1       2.365   6.084  19.588  0.00  0.00    +0.000 A 
ATOM      2  C   UNL     1       1.774   5.157  20.455  0.00  0.00    +0.000 A 
ATOM      3  C   UNL     1       1.797   3.791  20.231  0.00  0.00    +0.000 A 
ATOM      4  C   UNL     1       1.337   2.948  21.388  0.00  0.00    +0.000 C 
ATOM      5  C   UNL     1       2.265   3.349  18.988  0.00  0.00    +0.000 A 
ATOM      6  C   UNL     1       2.823   4.268  18.042  0.00  0.00    +0.000 A 
ATOM      7  C   UNL     1       3.333   3.765  16.712  0.00  0.00    +0.000 C 
ATOM      8  C   UNL     1       2.943   5.654  18.349  0.00  0.00    +0.000 A 
ENDROOT
BRANCH   1  10
ATOM      9  C   UNL     1       1.343   7.834  20.895  0.00  0.00    +0.000 C 
ATOM     10  O   UNL     1       2.372   7.404  19.980  0.00  0.00    +0.000 OA
ENDBRANCH   1  10
BRANCH   5  11
ATOM     11  O   UNL     1       2.318   2.022  18.643  0.00  0.00    +0.000 OA
ATOM     12  C   UNL     1       3.572   1.386  18.859  0.00  0.00    +0.000 C 
ENDBRANCH   5  11
BRANCH   8  13
ATOM     13  C   UNL     1       3.925   6.507  17.505  0.00  0.00    +0.000 C 
BRANCH  13  14
ATOM     14  C   UNL     1       5.466   6.478  17.602  0.00  0.00    +0.000 C 
ATOM     15  N   UNL     1       6.276   7.345  17.029  0.00  0.00    +0.000 NA
ATOM     16  C   UNL     1       7.650   7.008  17.583  0.00  0.00    +0.000 C 
ATOM     17  C   UNL     1       7.443   6.018  18.726  0.00  0.00    +0.000 C 
ATOM     18  N   UNL     1       6.083   5.597  18.475  0.00  0.00    +0.000 N 
ATOM     19  H   UNL     1       5.553   5.264  19.274  0.00  0.00    +0.000 HD
ENDBRANCH  13  14
ENDBRANCH   8  13
TORSDOF 4
ENDMDL
MODEL 3
REMARK VINA RESULT:      -6.4      2.951      6.157
REMARK  Name = 
REMARK  8 active torsions:
REMARK  status: ('A' for Active; 'I' for Inactive)
REMARK    1  A    between atoms: C_1  and  O_2
REMARK    2  A    between atoms: O_2  and  C_3
REMARK    3  A    between atoms: C_5  and  C_6
REMARK    4  A    between atoms: C_7  and  O_8
REMARK    5  A    between atoms: O_8  and  C_9
REMARK    6  A    between atoms: C_10  and  C_11
REMARK    7  A    between atoms: C_12  and  C_13
REMARK    8  A    between atoms: C_13  and  C_14
REMARK                            x       y       z     vdW  Elec       q    Type
REMARK                         _______ _______ _______ _____ _____    ______ ____
ROOT
ATOM      1  C   UNL     1       4.829   6.441  16.974  0.00  0.00    +0.000 A 
ATOM      2  C   UNL     1       3.938   7.180  17.763  0.00  0.00    +0.000 A 
ATOM      3  C   UNL     1       2.886   6.607  18.456  0.00  0.00    +0.000 A 
ATOM      4  C   UNL     1       2.200   7.514  19.440  0.00  0.00    +0.000 C 
ATOM      5  C   UNL     1       2.598   5.263  18.193  0.00  0.00    +0.000 A 
ATOM      6  C   UNL     1       3.444   4.480  17.344  0.00  0.00    +0.000 A 
ATOM      7  C   UNL     1       3.119   3.027  17.086  0.00  0.00    +0.000 C 
ATOM      8  C   UNL     1       4.619   5.039  16.763  0.00  0.00    +0.000 A 
ENDROOT
BRANCH   1  10
ATOM      9  C   UNL     1       7.001   7.434  17.302  0.00  0.00    +0.000 C 
ATOM     10  O   UNL     1       5.899   7.111  16.429  0.00  0.00    +0.000 OA
ENDBRANCH   1  10
BRANCH   5  11
ATOM     11  O   UNL     1       1.568   4.591  18.803  0.00  0.00    +0.000 OA
ATOM     12  C   UNL     1       1.823   4.168  20.138  0.00  0.00    +0.000 C 
ENDBRANCH   5  11
BRANCH   8  13
ATOM     13  C   UNL     1       5.705   4.067  16.234  0.00  0.00    +0.000 C 
BRANCH  13  14
ATOM     14  C   UNL     1       6.404   4.150  14.859  0.00  0.00    +0.000 C 
ATOM     15  N   UNL     1       5.983   3.560  13.759  0.00  0.00    +0.000 NA
ATOM     16  C   UNL     1       6.882   4.105  12.663  0.00  0.00    +0.000 C 
ATOM     17  C   UNL     1       7.674   5.262  13.266  0.00  0.00    +0.000 C 
ATOM     18  N   UNL     1       7.461   5.029  14.677  0.00  0.00    +0.000 N 
ATOM     19  H   UNL     1       7.522   5.837  15.288  0.00  0.00    +0.000 HD
ENDBRANCH  13  14
ENDBRANCH   8  13
TORSDOF 4
ENDMDL
MODEL 4
REMARK VINA RESULT:      -6.1      2.503      5.720
REMARK  Name = 
REMARK  8 active torsions:
REMARK  status: ('A' for Active; 'I' for Inactive)
REMARK    1  A    between atoms: C_1  and  O_2
REMARK    2  A    between atoms: O_2  and  C_3
REMARK    3  A    between atoms: C_5  and  C_6
REMARK    4  A    between atoms: C_7  and  O_8
REMARK    5  A    between atoms: O_8  and  C_9
REMARK    6  A    between atoms: C_10  and  C_11
REMARK    7  A    between atoms: C_12  and  C_13
REMARK    8  A    between atoms: C_13  and  C_14
REMARK                            x       y       z     vdW  Elec       q    Type
REMARK                         _______ _______ _______ _____ _____    ______ ____
ROOT
ATOM      1  C   UNL     1       2.261   6.121  19.730  0.00  0.00    +0.000 A 
ATOM      2  C   UNL     1       1.705   5.172  20.598  0.00  0.00    +0.000 A 
ATOM      3  C   UNL     1       1.730   3.812  20.347  0.00  0.00    +0.000 A 
ATOM      4  C   UNL     1       1.314   2.943  21.502  0.00  0.00    +0.000 C 
ATOM      5  C   UNL     1       2.159   3.397  19.082  0.00  0.00    +0.000 A 
ATOM      6  C   UNL     1       2.679   4.337  18.136  0.00  0.00    +0.000 A 
ATOM      7  C   UNL     1       3.148   3.863  16.780  0.00  0.00    +0.000 C 
ATOM      8  C   UNL     1       2.800   5.718  18.465  0.00  0.00    +0.000 A 
ENDROOT
BRANCH   1  10
ATOM      9  C   UNL     1       1.248   7.847  21.074  0.00  0.00    +0.000 C 
ATOM     10  O   UNL     1       2.273   7.432  20.147  0.00  0.00    +0.000 OA
ENDBRANCH   1  10
BRANCH   5  11
ATOM     11  O   UNL     1       2.209   2.077  18.709  0.00  0.00    +0.000 OA
ATOM     12  C   UNL     1       3.471   1.443  18.881  0.00  0.00    +0.000 C 
ENDBRANCH   5  11
BRANCH   8  13
ATOM     13  C   UNL     1       3.749   6.594  17.605  0.00  0.00    +0.000 C 
BRANCH  13  14
ATOM     14  C   UNL     1       5.255   6.342  17.373  0.00  0.00    +0.000 C 
ATOM     15  N   UNL     1       6.110   5.961  18.301  0.00  0.00    +0.000 NA
ATOM     16  C   UNL     1       7.390   5.661  17.541  0.00  0.00    +0.000 C 
ATOM     17  C   UNL     1       7.044   5.679  16.054  0.00  0.00    +0.000 C 
ATOM     18  N   UNL     1       5.761   6.342  16.083  0.00  0.00    +0.000 N 
ATOM     19  H   UNL     1       5.124   6.138  15.319  0.00  0.00    +0.000 HD
ENDBRANCH  13  14
ENDBRANCH   8  13
TORSDOF 4
ENDMDL
MODEL 5
REMARK VINA RESULT:      -6.1      2.623      5.761
REMARK  Name = 
REMARK  8 active torsions:
REMARK  status: ('A' for Active; 'I' for Inactive)
REMARK    1  A    between atoms: C_1  and  O_2
REMARK    2  A    between atoms: O_2  and  C_3
REMARK    3  A    between atoms: C_5  and  C_6
REMARK    4  A    between atoms: C_7  and  O_8
REMARK    5  A    between atoms: O_8  and  C_9
REMARK    6  A    between atoms: C_10  and  C_11
REMARK    7  A    between atoms: C_12  and  C_13
REMARK    8  A    between atoms: C_13  and  C_14
REMARK                            x       y       z     vdW  Elec       q    Type
REMARK                         _______ _______ _______ _____ _____    ______ ____
ROOT
ATOM      1  C   UNL     1       3.049   6.802  18.014  0.00  0.00    +0.000 A 
ATOM      2  C   UNL     1       2.163   6.254  18.950  0.00  0.00    +0.000 A 
ATOM      3  C   UNL     1       2.171   4.916  19.306  0.00  0.00    +0.000 A 
ATOM      4  C   UNL     1       1.325   4.569  20.499  0.00  0.00    +0.000 C 
ATOM      5  C   UNL     1       2.974   4.054  18.552  0.00  0.00    +0.000 A 
ATOM      6  C   UNL     1       3.852   4.560  17.541  0.00  0.00    +0.000 A 
ATOM      7  C   UNL     1       4.718   3.609  16.748  0.00  0.00    +0.000 C 
ATOM      8  C   UNL     1       3.955   5.959  17.292  0.00  0.00    +0.000 A 
ENDROOT
BRANCH   1  10
ATOM      9  C   UNL     1       1.845   8.872  18.296  0.00  0.00    +0.000 C 
ATOM     10  O   UNL     1       3.013   8.166  17.831  0.00  0.00    +0.000 OA
ENDBRANCH   1  10
BRANCH   5  11
ATOM     11  O   UNL     1       3.050   2.705  18.797  0.00  0.00    +0.000 OA
ATOM     12  C   UNL     1       3.961   2.323  19.821  0.00  0.00    +0.000 C 
ENDBRANCH   5  11
BRANCH   8  13
ATOM     13  C   UNL     1       5.200   6.476  16.526  0.00  0.00    +0.000 C 
BRANCH  13  14
ATOM     14  C   UNL     1       6.532   6.933  17.162  0.00  0.00    +0.000 C 
ATOM     15  N   UNL     1       7.010   8.160  17.115  0.00  0.00    +0.000 NA
ATOM     16  C   UNL     1       8.213   8.137  18.042  0.00  0.00    +0.000 C 
ATOM     17  C   UNL     1       8.172   6.811  18.799  0.00  0.00    +0.000 C 
ATOM     18  N   UNL     1       7.228   6.070  17.993  0.00  0.00    +0.000 N 
ATOM     19  H   UNL     1       6.710   5.332  18.460  0.00  0.00    +0.000 HD
ENDBRANCH  13  14
ENDBRANCH   8  13
TORSDOF 4
ENDMDL
MODEL 6
REMARK VINA RESULT:      -5.9      2.701      5.104
REMARK  Name = 
REMARK  8 active torsions:
REMARK  status: ('A' for Active; 'I' for Inactive)
REMARK    1  A    between atoms: C_1  and  O_2
REMARK    2  A    between atoms: O_2  and  C_3
REMARK    3  A    between atoms: C_5  and  C_6
REMARK    4  A    between atoms: C_7  and  O_8
REMARK    5  A    between atoms: O_8  and  C_9
REMARK    6  A    between atoms: C_10  and  C_11
REMARK    7  A    between atoms: C_12  and  C_13
REMARK    8  A    between atoms: C_13  and  C_14
REMARK                            x       y       z     vdW  Elec       q    Type
REMARK                         _______ _______ _______ _____ _____    ______ ____
ROOT
ATOM      1  C   UNL     1       2.532   5.021  20.071  0.00  0.00    +0.000 A 
ATOM      2  C   UNL     1       1.810   5.970  20.806  0.00  0.00    +0.000 A 
ATOM      3  C   UNL     1       1.611   7.269  20.373  0.00  0.00    +0.000 A 
ATOM      4  C   UNL     1       0.609   8.059  21.168  0.00  0.00    +0.000 C 
ATOM      5  C   UNL     1       2.327   7.691  19.248  0.00  0.00    +0.000 A 
ATOM      6  C   UNL     1       3.128   6.772  18.497  0.00  0.00    +0.000 A 
ATOM      7  C   UNL     1       3.882   7.249  17.278  0.00  0.00    +0.000 C 
ATOM      8  C   UNL     1       3.198   5.396  18.858  0.00  0.00    +0.000 A 
ENDROOT
BRANCH   1  10
ATOM      9  C   UNL     1       1.307   3.132  20.933  0.00  0.00    +0.000 C 
ATOM     10  O   UNL     1       2.563   3.733  20.555  0.00  0.00    +0.000 OA
ENDBRANCH   1  10
BRANCH   5  11
ATOM     11  O   UNL     1       2.228   8.961  18.736  0.00  0.00    +0.000 OA
ATOM     12  C   UNL     1       1.086   9.203  17.923  0.00  0.00    +0.000 C 
ENDBRANCH   5  11
BRANCH   8  13
ATOM     13  C   UNL     1       3.701   4.386  17.795  0.00  0.00    +0.000 C 
BRANCH  13  14
ATOM     14  C   UNL     1       5.155   4.247  17.291  0.00  0.00    +0.000 C 
ATOM     15  N   UNL     1       5.526   4.305  16.028  0.00  0.00    +0.000 NA
ATOM     16  C   UNL     1       7.044   4.317  16.075  0.00  0.00    +0.000 C 
ATOM     17  C   UNL     1       7.445   4.521  17.534  0.00  0.00    +0.000 C 
ATOM     18  N   UNL     1       6.199   4.224  18.201  0.00  0.00    +0.000 N 
ATOM     19  H   UNL     1       6.052   4.655  19.109  0.00  0.00    +0.000 HD
ENDBRANCH  13  14
ENDBRANCH   8  13
TORSDOF 4
ENDMDL
MODEL 7
REMARK VINA RESULT:      -5.8      2.455      5.743
REMARK  Name = 
REMARK  8 active torsions:
REMARK  status: ('A' for Active; 'I' for Inactive)
REMARK    1  A    between atoms: C_1  and  O_2
REMARK    2  A    between atoms: O_2  and  C_3
REMARK    3  A    between atoms: C_5  and  C_6
REMARK    4  A    between atoms: C_7  and  O_8
REMARK    5  A    between atoms: O_8  and  C_9
REMARK    6  A    between atoms: C_10  and  C_11
REMARK    7  A    between atoms: C_12  and  C_13
REMARK    8  A    between atoms: C_13  and  C_14
REMARK                            x       y       z     vdW  Elec       q    Type
REMARK                         _______ _______ _______ _____ _____    ______ ____
ROOT
ATOM      1  C   UNL     1       3.120   5.910  17.881  0.00  0.00    +0.000 A 
ATOM      2  C   UNL     1       2.545   6.559  18.981  0.00  0.00    +0.000 A 
ATOM      3  C   UNL     1       1.860   5.889  19.980  0.00  0.00    +0.000 A 
ATOM      4  C   UNL     1       1.538   6.714  21.195  0.00  0.00    +0.000 C 
ATOM      5  C   UNL     1       1.572   4.536  19.769  0.00  0.00    +0.000 A 
ATOM      6  C   UNL     1       2.086   3.843  18.627  0.00  0.00    +0.000 A 
ATOM      7  C   UNL     1       1.772   2.379  18.428  0.00  0.00    +0.000 C 
ATOM      8  C   UNL     1       2.927   4.504  17.685  0.00  0.00    +0.000 A 
ENDROOT
BRANCH   1  10
ATOM      9  C   UNL     1       5.072   7.282  17.535  0.00  0.00    +0.000 C 
ATOM     10  O   UNL     1       3.871   6.674  17.016  0.00  0.00    +0.000 OA
ENDBRANCH   1  10
BRANCH   5  11
ATOM     11  O   UNL     1       0.883   3.773  20.678  0.00  0.00    +0.000 OA
ATOM     12  C   UNL     1       1.684   3.107  21.647  0.00  0.00    +0.000 C 
ENDBRANCH   5  11
BRANCH   8  13
ATOM     13  C   UNL     1       3.793   3.631  16.740  0.00  0.00    +0.000 C 
BRANCH  13  14
ATOM     14  C   UNL     1       5.257   3.909  16.335  0.00  0.00    +0.000 C 
ATOM     15  N   UNL     1       5.647   4.325  15.147  0.00  0.00    +0.000 NA
ATOM     16  C   UNL     1       7.123   4.637  15.316  0.00  0.00    +0.000 C 
ATOM     17  C   UNL     1       7.425   4.584  16.812  0.00  0.00    +0.000 C 
ATOM     18  N   UNL     1       6.252   3.895  17.299  0.00  0.00    +0.000 N 
ATOM     19  H   UNL     1       5.986   4.071  18.263  0.00  0.00    +0.000 HD
ENDBRANCH  13  14
ENDBRANCH   8  13
TORSDOF 4
ENDMDL
MODEL 8
REMARK VINA RESULT:      -5.8      2.783      6.151
REMARK  Name = 
REMARK  8 active torsions:
REMARK  status: ('A' for Active; 'I' for Inactive)
REMARK    1  A    between atoms: C_1  and  O_2
REMARK    2  A    between atoms: O_2  and  C_3
REMARK    3  A    between atoms: C_5  and  C_6
REMARK    4  A    between atoms: C_7  and  O_8
REMARK    5  A    between atoms: O_8  and  C_9
REMARK    6  A    between atoms: C_10  and  C_11
REMARK    7  A    between atoms: C_12  and  C_13
REMARK    8  A    between atoms: C_13  and  C_14
REMARK                            x       y       z     vdW  Elec       q    Type
REMARK                         _______ _______ _______ _____ _____    ______ ____
ROOT
ATOM      1  C   UNL     1       4.015   5.633  17.450  0.00  0.00    +0.000 A 
ATOM      2  C   UNL     1       3.131   6.130  18.416  0.00  0.00    +0.000 A 
ATOM      3  C   UNL     1       2.466   5.320  19.320  0.00  0.00    +0.000 A 
ATOM      4  C   UNL     1       1.763   6.049  20.432  0.00  0.00    +0.000 C 
ATOM      5  C   UNL     1       2.542   3.937  19.124  0.00  0.00    +0.000 A 
ATOM      6  C   UNL     1       3.385   3.382  18.109  0.00  0.00    +0.000 A 
ATOM      7  C   UNL     1       3.460   1.884  17.926  0.00  0.00    +0.000 C 
ATOM      8  C   UNL     1       4.192   4.220  17.287  0.00  0.00    +0.000 A 
ENDROOT
BRANCH   1  10
ATOM      9  C   UNL     1       5.837   7.202  17.284  0.00  0.00    +0.000 C 
ATOM     10  O   UNL     1       4.699   6.549  16.685  0.00  0.00    +0.000 OA
ENDBRANCH   1  10
BRANCH   5  11
ATOM     11  O   UNL     1       1.910   3.034  19.943  0.00  0.00    +0.000 OA
ATOM     12  C   UNL     1       2.556   2.782  21.185  0.00  0.00    +0.000 C 
ENDBRANCH   5  11
BRANCH   8  13
ATOM     13  C   UNL     1       5.382   3.574  16.530  0.00  0.00    +0.000 C 
BRANCH  13  14
ATOM     14  C   UNL     1       6.033   4.111  15.237  0.00  0.00    +0.000 C 
ATOM     15  N   UNL     1       7.203   4.714  15.173  0.00  0.00    +0.000 NA
ATOM     16  C   UNL     1       7.478   4.861  13.687  0.00  0.00    +0.000 C 
ATOM     17  C   UNL     1       6.429   4.029  12.952  0.00  0.00    +0.000 C 
ATOM     18  N   UNL     1       5.465   3.817  14.008  0.00  0.00    +0.000 N 
ATOM     19  H   UNL     1       4.884   2.988  13.936  0.00  0.00    +0.000 HD
ENDBRANCH  13  14
ENDBRANCH   8  13
TORSDOF 4
ENDMDL
MODEL 9
REMARK VINA RESULT:      -5.8      1.934      2.403
REMARK  Name = 
REMARK  8 active torsions:
REMARK  status: ('A' for Active; 'I' for Inactive)
REMARK    1  A    between atoms: C_1  and  O_2
REMARK    2  A    between atoms: O_2  and  C_3
REMARK    3  A    between atoms: C_5  and  C_6
REMARK    4  A    between atoms: C_7  and  O_8
REMARK    5  A    between atoms: O_8  and  C_9
REMARK    6  A    between atoms: C_10  and  C_11
REMARK    7  A    between atoms: C_12  and  C_13
REMARK    8  A    between atoms: C_13  and  C_14
REMARK                            x       y       z     vdW  Elec       q    Type
REMARK                         _______ _______ _______ _____ _____    ______ ____
ROOT
ATOM      1  C   UNL     1       5.050   4.552  19.118  0.00  0.00    +0.000 A 
ATOM      2  C   UNL     1       6.384   4.782  19.476  0.00  0.00    +0.000 A 
ATOM      3  C   UNL     1       7.190   5.707  18.833  0.00  0.00    +0.000 A 
ATOM      4  C   UNL     1       8.500   5.992  19.513  0.00  0.00    +0.000 C 
ATOM      5  C   UNL     1       6.696   6.287  17.660  0.00  0.00    +0.000 A 
ATOM      6  C   UNL     1       5.357   6.034  17.219  0.00  0.00    +0.000 A 
ATOM      7  C   UNL     1       4.843   6.682  15.955  0.00  0.00    +0.000 C 
ATOM      8  C   UNL     1       4.480   5.206  17.977  0.00  0.00    +0.000 A 
ENDROOT
BRANCH   1  10
ATOM      9  C   UNL     1       4.450   2.277  19.644  0.00  0.00    +0.000 C 
ATOM     10  O   UNL     1       4.322   3.689  19.907  0.00  0.00    +0.000 OA
ENDBRANCH   1  10
BRANCH   5  11
ATOM     11  O   UNL     1       7.409   7.201  16.925  0.00  0.00    +0.000 OA
ATOM     12  C   UNL     1       7.655   8.444  17.573  0.00  0.00    +0.000 C 
ENDBRANCH   5  11
BRANCH   8  13
ATOM     13  C   UNL     1       2.957   5.315  17.709  0.00  0.00    +0.000 C 
BRANCH  13  14
ATOM     14  C   UNL     1       1.863   4.396  18.295  0.00  0.00    +0.000 C 
ATOM     15  N   UNL     1       1.394   3.311  17.712  0.00  0.00    +0.000 NA
ATOM     16  C   UNL     1       0.505   2.667  18.761  0.00  0.00    +0.000 C 
ATOM     17  C   UNL     1       0.756   3.403  20.076  0.00  0.00    +0.000 C 
ATOM     18  N   UNL     1       1.429   4.588  19.597  0.00  0.00    +0.000 N 
ATOM     19  H   UNL     1       2.056   5.052  20.247  0.00  0.00    +0.000 HD
ENDBRANCH  13  14
ENDBRANCH   8  13
TORSDOF 4
ENDMDL
