MODEL 1
REMARK VINA RESULT:      -8.5      0.000      0.000
REMARK  Name = 
REMARK  7 active torsions:
REMARK  status: ('A' for Active; 'I' for Inactive)
REMARK    1  A    between atoms: C_1  and  O_2
REMARK    2  A    between atoms: O_2  and  C_3
REMARK    3  A    between atoms: C_6  and  C_7
REMARK    4  A    between atoms: C_7  and  N_8
REMARK    5  A    between atoms: C_9  and  C_11
REMARK    6  A    between atoms: C_11  and  C_12
REMARK    7  A    between atoms: C_11  and  N_13
REMARK                            x       y       z     vdW  Elec       q    Type
REMARK                         _______ _______ _______ _____ _____    ______ ____
ROOT
ATOM      1  N   UNL     1       1.849   5.654  20.790  0.00  0.00    +0.000 N 
ATOM      2  C   UNL     1       2.358   6.723  20.105  0.00  0.00    +0.000 C 
ATOM      3  O   UNL     1       3.345   6.554  19.384  0.00  0.00    +0.000 OA
ATOM      4  N   UNL     1       1.623   7.877  19.978  0.00  0.00    +0.000 N 
ATOM      5  C   UNL     1       1.836   8.613  18.707  0.00  0.00    +0.000 C 
ATOM      6  C   UNL     1       0.893   9.790  18.774  0.00  0.00    +0.000 C 
ATOM      7  N   UNL     1       0.743   9.896  20.209  0.00  0.00    +0.000 N 
ATOM      8  C   UNL     1       0.965   8.719  20.867  0.00  0.00    +0.000 A 
ATOM      9  N   UNL     1       0.467   8.829  22.082  0.00  0.00    +0.000 NA
ATOM     10  C   UNL     1      -0.064  10.161  22.138  0.00  0.00    +0.000 A 
ATOM     11  C   UNL     1      -0.868  10.851  23.071  0.00  0.00    +0.000 A 
ATOM     12  C   UNL     1      -1.230  12.206  22.817  0.00  0.00    +0.000 A 
ATOM     13  C   UNL     1      -0.753  12.888  21.699  0.00  0.00    +0.000 A 
ATOM     14  C   UNL     1       0.018  12.237  20.763  0.00  0.00    +0.000 A 
ATOM     15  C   UNL     1       0.271  10.877  20.991  0.00  0.00    +0.000 A 
ATOM     16  H   UNL     1       1.505   5.896  21.713  0.00  0.00    +0.000 HD
ENDROOT
BRANCH   1  17
ATOM     17  C   UNL     1       2.599   4.365  20.647  0.00  0.00    +0.000 C 
ATOM     18  C   UNL     1       2.111   3.317  21.646  0.00  0.00    +0.000 C 
BRANCH  17  20
ATOM     19  N   UNL     1       3.628   3.808  18.459  0.00  0.00    +0.000 N 
ATOM     20  C   UNL     1       2.500   3.658  19.245  0.00  0.00    +0.000 C 
ATOM     21  O   UNL     1       1.440   3.212  18.809  0.00  0.00    +0.000 OA
ATOM     22  H   UNL     1       4.483   4.075  18.927  0.00  0.00    +0.000 HD
BRANCH  19  23
ATOM     23  C   UNL     1       3.657   3.498  17.046  0.00  0.00    +0.000 C 
BRANCH  23  27
ATOM     24  C   UNL     1       7.112   5.086  14.972  0.00  0.00    +0.000 A 
ATOM     25  C   UNL     1       5.961   4.733  14.270  0.00  0.00    +0.000 A 
ATOM     26  C   UNL     1       4.848   4.219  14.940  0.00  0.00    +0.000 A 
ATOM     27  C   UNL     1       4.874   4.026  16.327  0.00  0.00    +0.000 A 
ATOM     28  C   UNL     1       6.037   4.382  17.028  0.00  0.00    +0.000 A 
ATOM     29  C   UNL     1       7.149   4.910  16.354  0.00  0.00    +0.000 A 
BRANCH  24  31
ATOM     30  C   UNL     1       8.045   5.300  12.804  0.00  0.00    +0.000 C 
ATOM     31  O   UNL     1       8.136   5.560  14.198  0.00  0.00    +0.000 OA
ENDBRANCH  24  31
ENDBRANCH  23  27
ENDBRANCH  19  23
ENDBRANCH  17  20
ENDBRANCH   1  17
TORSDOF 5
ENDMDL
MODEL 2
REMARK VINA RESULT:      -8.4      1.241      1.778
REMARK  Name = 
REMARK  7 active torsions:
REMARK  status: ('A' for Active; 'I' for Inactive)
REMARK    1  A    between atoms: C_1  and  O_2
REMARK    2  A    between atoms: O_2  and  C_3
REMARK    3  A    between atoms: C_6  and  C_7
REMARK    4  A    between atoms: C_7  and  N_8
REMARK    5  A    between atoms: C_9  and  C_11
REMARK    6  A    between atoms: C_11  and  C_12
REMARK    7  A    between atoms: C_11  and  N_13
REMARK                            x       y       z     vdW  Elec       q    Type
REMARK                         _______ _______ _______ _____ _____    ______ ____
ROOT
ATOM      1  N   UNL     1       1.358   5.316  20.869  0.00  0.00    +0.000 N 
ATOM      2  C   UNL     1       2.094   6.354  20.367  0.00  0.00    +0.000 C 
ATOM      3  O   UNL     1       3.162   6.108  19.801  0.00  0.00    +0.000 OA
ATOM      4  N   UNL     1       1.528   7.597  20.223  0.00  0.00    +0.000 N 
ATOM      5  C   UNL     1       2.034   8.381  19.070  0.00  0.00    +0.000 C 
ATOM      6  C   UNL     1       1.235   9.662  19.085  0.00  0.00    +0.000 C 
ATOM      7  N   UNL     1       0.859   9.693  20.482  0.00  0.00    +0.000 N 
ATOM      8  C   UNL     1       0.830   8.456  21.065  0.00  0.00    +0.000 A 
ATOM      9  N   UNL     1       0.151   8.550  22.189  0.00  0.00    +0.000 NA
ATOM     10  C   UNL     1      -0.226   9.932  22.274  0.00  0.00    +0.000 A 
ATOM     11  C   UNL     1      -1.091  10.657  23.122  0.00  0.00    +0.000 A 
ATOM     12  C   UNL     1      -1.248  12.060  22.929  0.00  0.00    +0.000 A 
ATOM     13  C   UNL     1      -0.515  12.747  21.963  0.00  0.00    +0.000 A 
ATOM     14  C   UNL     1       0.323  12.066  21.110  0.00  0.00    +0.000 A 
ATOM     15  C   UNL     1       0.377  10.673  21.259  0.00  0.00    +0.000 A 
ATOM     16  H   UNL     1       0.893   5.539  21.742  0.00  0.00    +0.000 HD
ENDROOT
BRANCH   1  17
ATOM     17  C   UNL     1       1.968   3.954  20.738  0.00  0.00    +0.000 C 
ATOM     18  C   UNL     1       1.011   2.861  21.211  0.00  0.00    +0.000 C 
BRANCH  17  20
ATOM     19  N   UNL     1       3.731   3.222  19.152  0.00  0.00    +0.000 N 
ATOM     20  C   UNL     1       2.387   3.519  19.285  0.00  0.00    +0.000 C 
ATOM     21  O   UNL     1       1.636   3.650  18.320  0.00  0.00    +0.000 OA
ATOM     22  H   UNL     1       4.245   3.024  19.999  0.00  0.00    +0.000 HD
BRANCH  19  23
ATOM     23  C   UNL     1       4.389   3.083  17.870  0.00  0.00    +0.000 C 
BRANCH  23  27
ATOM     24  C   UNL     1       7.036   6.352  16.837  0.00  0.00    +0.000 A 
ATOM     25  C   UNL     1       7.162   5.694  18.059  0.00  0.00    +0.000 A 
ATOM     26  C   UNL     1       6.306   4.640  18.391  0.00  0.00    +0.000 A 
ATOM     27  C   UNL     1       5.289   4.240  17.515  0.00  0.00    +0.000 A 
ATOM     28  C   UNL     1       5.167   4.909  16.287  0.00  0.00    +0.000 A 
ATOM     29  C   UNL     1       6.036   5.959  15.950  0.00  0.00    +0.000 A 
BRANCH  24  31
ATOM     30  C   UNL     1       7.964   8.376  17.649  0.00  0.00    +0.000 C 
ATOM     31  O   UNL     1       7.922   7.376  16.640  0.00  0.00    +0.000 OA
ENDBRANCH  24  31
ENDBRANCH  23  27
ENDBRANCH  19  23
ENDBRANCH  17  20
ENDBRANCH   1  17
TORSDOF 5
ENDMDL
MODEL 3
REMARK VINA RESULT:      -7.8      3.428     10.500
REMARK  Name = 
REMARK  7 active torsions:
REMARK  status: ('A' for Active; 'I' for Inactive)
REMARK    1  A    between atoms: C_1  and  O_2
REMARK    2  A    between atoms: O_2  and  C_3
REMARK    3  A    between atoms: C_6  and  C_7
REMARK    4  A    between atoms: C_7  and  N_8
REMARK    5  A    between atoms: C_9  and  C_11
REMARK    6  A    between atoms: C_11  and  C_12
REMARK    7  A    between atoms: C_11  and  N_13
REMARK                            x       y       z     vdW  Elec       q    Type
REMARK                         _______ _______ _______ _____ _____    ______ ____
ROOT
ATOM      1  N   UNL     1       1.257   9.095  19.463  0.00  0.00    +0.000 N 
ATOM      2  C   UNL     1       1.911   8.722  18.322  0.00  0.00    +0.000 C 
ATOM      3  O   UNL     1       2.059   9.552  17.422  0.00  0.00    +0.000 OA
ATOM      4  N   UNL     1       2.647   7.563  18.293  0.00  0.00    +0.000 N 
ATOM      5  C   UNL     1       3.845   7.608  17.419  0.00  0.00    +0.000 C 
ATOM      6  C   UNL     1       4.511   6.264  17.598  0.00  0.00    +0.000 C 
ATOM      7  N   UNL     1       3.369   5.486  18.025  0.00  0.00    +0.000 N 
ATOM      8  C   UNL     1       2.392   6.235  18.619  0.00  0.00    +0.000 A 
ATOM      9  N   UNL     1       1.592   5.420  19.274  0.00  0.00    +0.000 NA
ATOM     10  C   UNL     1       2.129   4.111  19.032  0.00  0.00    +0.000 A 
ATOM     11  C   UNL     1       1.858   2.832  19.567  0.00  0.00    +0.000 A 
ATOM     12  C   UNL     1       2.596   1.707  19.098  0.00  0.00    +0.000 A 
ATOM     13  C   UNL     1       3.534   1.828  18.074  0.00  0.00    +0.000 A 
ATOM     14  C   UNL     1       3.832   3.063  17.545  0.00  0.00    +0.000 A 
ATOM     15  C   UNL     1       3.162   4.164  18.100  0.00  0.00    +0.000 A 
ATOM     16  H   UNL     1       0.677   8.360  19.852  0.00  0.00    +0.000 HD
ENDROOT
BRANCH   1  17
ATOM     17  C   UNL     1       0.711  10.490  19.483  0.00  0.00    +0.000 C 
ATOM     18  C   UNL     1      -0.714  10.544  18.932  0.00  0.00    +0.000 C 
BRANCH  17  20
ATOM     19  N   UNL     1      -0.548  10.906  21.581  0.00  0.00    +0.000 N 
ATOM     20  C   UNL     1       0.621  11.180  20.894  0.00  0.00    +0.000 C 
ATOM     21  O   UNL     1       1.411  12.054  21.248  0.00  0.00    +0.000 OA
ATOM     22  H   UNL     1      -1.078  10.099  21.283  0.00  0.00    +0.000 HD
BRANCH  19  23
ATOM     23  C   UNL     1      -0.972  11.646  22.750  0.00  0.00    +0.000 C 
BRANCH  23  27
ATOM     24  C   UNL     1      -4.969  13.298  22.500  0.00  0.00    +0.000 A 
ATOM     25  C   UNL     1      -4.473  12.815  23.710  0.00  0.00    +0.000 A 
ATOM     26  C   UNL     1      -3.184  12.282  23.789  0.00  0.00    +0.000 A 
ATOM     27  C   UNL     1      -2.373  12.198  22.649  0.00  0.00    +0.000 A 
ATOM     28  C   UNL     1      -2.880  12.683  21.434  0.00  0.00    +0.000 A 
ATOM     29  C   UNL     1      -4.171  13.230  21.360  0.00  0.00    +0.000 A 
BRANCH  24  31
ATOM     30  C   UNL     1      -7.044  13.583  21.391  0.00  0.00    +0.000 C 
ATOM     31  O   UNL     1      -6.249  13.778  22.553  0.00  0.00    +0.000 OA
ENDBRANCH  24  31
ENDBRANCH  23  27
ENDBRANCH  19  23
ENDBRANCH  17  20
ENDBRANCH   1  17
TORSDOF 5
ENDMDL
MODEL 4
REMARK VINA RESULT:      -7.7      3.456      9.446
REMARK  Name = 
REMARK  7 active torsions:
REMARK  status: ('A' for Active; 'I' for Inactive)
REMARK    1  A    between atoms: C_1  and  O_2
REMARK    2  A    between atoms: O_2  and  C_3
REMARK    3  A    between atoms: C_6  and  C_7
REMARK    4  A    between atoms: C_7  and  N_8
REMARK    5  A    between atoms: C_9  and  C_11
REMARK    6  A    between atoms: C_11  and  C_12
REMARK    7  A    between atoms: C_11  and  N_13
REMARK                            x       y       z     vdW  Elec       q    Type
REMARK                         _______ _______ _______ _____ _____    ______ ____
ROOT
ATOM      1  N   UNL     1       1.682   7.781  19.983  0.00  0.00    +0.000 N 
ATOM      2  C   UNL     1       1.878   6.431  20.080  0.00  0.00    +0.000 C 
ATOM      3  O   UNL     1       1.394   5.826  21.039  0.00  0.00    +0.000 OA
ATOM      4  N   UNL     1       2.332   5.718  18.997  0.00  0.00    +0.000 N 
ATOM      5  C   UNL     1       1.817   4.330  18.905  0.00  0.00    +0.000 C 
ATOM      6  C   UNL     1       2.398   3.780  17.626  0.00  0.00    +0.000 C 
ATOM      7  N   UNL     1       3.556   4.638  17.500  0.00  0.00    +0.000 N 
ATOM      8  C   UNL     1       3.408   5.845  18.126  0.00  0.00    +0.000 A 
ATOM      9  N   UNL     1       4.332   6.661  17.663  0.00  0.00    +0.000 NA
ATOM     10  C   UNL     1       5.074   5.875  16.719  0.00  0.00    +0.000 A 
ATOM     11  C   UNL     1       6.068   6.180  15.764  0.00  0.00    +0.000 A 
ATOM     12  C   UNL     1       6.611   5.136  14.960  0.00  0.00    +0.000 A 
ATOM     13  C   UNL     1       6.231   3.807  15.141  0.00  0.00    +0.000 A 
ATOM     14  C   UNL     1       5.252   3.481  16.052  0.00  0.00    +0.000 A 
ATOM     15  C   UNL     1       4.666   4.544  16.754  0.00  0.00    +0.000 A 
ATOM     16  H   UNL     1       2.484   8.277  19.610  0.00  0.00    +0.000 HD
ENDROOT
BRANCH   1  17
ATOM     17  C   UNL     1       0.938   8.421  21.115  0.00  0.00    +0.000 C 
ATOM     18  C   UNL     1       1.890   8.941  22.191  0.00  0.00    +0.000 C 
BRANCH  17  20
ATOM     19  N   UNL     1       0.152  10.058  19.424  0.00  0.00    +0.000 N 
ATOM     20  C   UNL     1       0.041   9.658  20.743  0.00  0.00    +0.000 C 
ATOM     21  O   UNL     1      -0.527  10.338  21.598  0.00  0.00    +0.000 OA
ATOM     22  H   UNL     1       0.535   9.388  18.771  0.00  0.00    +0.000 HD
BRANCH  19  23
ATOM     23  C   UNL     1      -0.347  11.325  18.934  0.00  0.00    +0.000 C 
BRANCH  23  27
ATOM     24  C   UNL     1      -4.574  11.220  17.991  0.00  0.00    +0.000 A 
ATOM     25  C   UNL     1      -3.661  10.465  17.255  0.00  0.00    +0.000 A 
ATOM     26  C   UNL     1      -2.298  10.501  17.560  0.00  0.00    +0.000 A 
ATOM     27  C   UNL     1      -1.817  11.314  18.594  0.00  0.00    +0.000 A 
ATOM     28  C   UNL     1      -2.741  12.073  19.329  0.00  0.00    +0.000 A 
ATOM     29  C   UNL     1      -4.112  12.026  19.029  0.00  0.00    +0.000 A 
BRANCH  24  31
ATOM     30  C   UNL     1      -6.827  10.789  18.588  0.00  0.00    +0.000 C 
ATOM     31  O   UNL     1      -5.874  11.110  17.582  0.00  0.00    +0.000 OA
ENDBRANCH  24  31
ENDBRANCH  23  27
ENDBRANCH  19  23
ENDBRANCH  17  20
ENDBRANCH   1  17
TORSDOF 5
ENDMDL
MODEL 5
REMARK VINA RESULT:      -7.7      3.465     10.637
REMARK  Name = 
REMARK  7 active torsions:
REMARK  status: ('A' for Active; 'I' for Inactive)
REMARK    1  A    between atoms: C_1  and  O_2
REMARK    2  A    between atoms: O_2  and  C_3
REMARK    3  A    between atoms: C_6  and  C_7
REMARK    4  A    between atoms: C_7  and  N_8
REMARK    5  A    between atoms: C_9  and  C_11
REMARK    6  A    between atoms: C_11  and  C_12
REMARK    7  A    between atoms: C_11  and  N_13
REMARK                            x       y       z     vdW  Elec       q    Type
REMARK                         _______ _______ _______ _____ _____    ______ ____
ROOT
ATOM      1  N   UNL     1       1.230   8.969  19.413  0.00  0.00    +0.000 N 
ATOM      2  C   UNL     1       1.918   8.611  18.287  0.00  0.00    +0.000 C 
ATOM      3  O   UNL     1       2.084   9.450  17.398  0.00  0.00    +0.000 OA
ATOM      4  N   UNL     1       2.666   7.459  18.269  0.00  0.00    +0.000 N 
ATOM      5  C   UNL     1       3.887   7.522  17.428  0.00  0.00    +0.000 C 
ATOM      6  C   UNL     1       4.559   6.183  17.613  0.00  0.00    +0.000 C 
ATOM      7  N   UNL     1       3.413   5.391  18.003  0.00  0.00    +0.000 N 
ATOM      8  C   UNL     1       2.414   6.126  18.577  0.00  0.00    +0.000 A 
ATOM      9  N   UNL     1       1.603   5.298  19.203  0.00  0.00    +0.000 NA
ATOM     10  C   UNL     1       2.159   3.996  18.965  0.00  0.00    +0.000 A 
ATOM     11  C   UNL     1       1.885   2.711  19.481  0.00  0.00    +0.000 A 
ATOM     12  C   UNL     1       2.646   1.596  19.023  0.00  0.00    +0.000 A 
ATOM     13  C   UNL     1       3.610   1.734  18.026  0.00  0.00    +0.000 A 
ATOM     14  C   UNL     1       3.911   2.977  17.516  0.00  0.00    +0.000 A 
ATOM     15  C   UNL     1       3.217   4.066  18.062  0.00  0.00    +0.000 A 
ATOM     16  H   UNL     1       0.646   8.225  19.780  0.00  0.00    +0.000 HD
ENDROOT
BRANCH   1  17
ATOM     17  C   UNL     1       0.671  10.359  19.429  0.00  0.00    +0.000 C 
ATOM     18  C   UNL     1      -0.733  10.407  18.829  0.00  0.00    +0.000 C 
BRANCH  17  20
ATOM     19  N   UNL     1      -0.766  11.423  21.150  0.00  0.00    +0.000 N 
ATOM     20  C   UNL     1       0.524  11.030  20.844  0.00  0.00    +0.000 C 
ATOM     21  O   UNL     1       1.500  11.374  21.511  0.00  0.00    +0.000 OA
ATOM     22  H   UNL     1      -1.514  11.003  20.615  0.00  0.00    +0.000 HD
BRANCH  19  23
ATOM     23  C   UNL     1      -1.086  12.306  22.251  0.00  0.00    +0.000 C 
BRANCH  23  27
ATOM     24  C   UNL     1      -5.342  12.982  22.696  0.00  0.00    +0.000 A 
ATOM     25  C   UNL     1      -4.743  13.017  21.438  0.00  0.00    +0.000 A 
ATOM     26  C   UNL     1      -3.371  12.800  21.296  0.00  0.00    +0.000 A 
ATOM     27  C   UNL     1      -2.563  12.568  22.417  0.00  0.00    +0.000 A 
ATOM     28  C   UNL     1      -3.172  12.536  23.681  0.00  0.00    +0.000 A 
ATOM     29  C   UNL     1      -4.554  12.742  23.820  0.00  0.00    +0.000 A 
BRANCH  24  31
ATOM     30  C   UNL     1      -7.438  12.604  23.735  0.00  0.00    +0.000 C 
ATOM     31  O   UNL     1      -6.688  13.227  22.701  0.00  0.00    +0.000 OA
ENDBRANCH  24  31
ENDBRANCH  23  27
ENDBRANCH  19  23
ENDBRANCH  17  20
ENDBRANCH   1  17
TORSDOF 5
ENDMDL
MODEL 6
REMARK VINA RESULT:      -7.7      3.341      8.776
REMARK  Name = 
REMARK  7 active torsions:
REMARK  status: ('A' for Active; 'I' for Inactive)
REMARK    1  A    between atoms: C_1  and  O_2
REMARK    2  A    between atoms: O_2  and  C_3
REMARK    3  A    between atoms: C_6  and  C_7
REMARK    4  A    between atoms: C_7  and  N_8
REMARK    5  A    between atoms: C_9  and  C_11
REMARK    6  A    between atoms: C_11  and  C_12
REMARK    7  A    between atoms: C_11  and  N_13
REMARK                            x       y       z     vdW  Elec       q    Type
REMARK                         _______ _______ _______ _____ _____    ______ ____
ROOT
ATOM      1  N   UNL     1       1.675   7.737  20.234  0.00  0.00    +0.000 N 
ATOM      2  C   UNL     1       1.865   6.383  20.252  0.00  0.00    +0.000 C 
ATOM      3  O   UNL     1       1.405   5.728  21.190  0.00  0.00    +0.000 OA
ATOM      4  N   UNL     1       2.286   5.728  19.119  0.00  0.00    +0.000 N 
ATOM      5  C   UNL     1       1.761   4.349  18.967  0.00  0.00    +0.000 C 
ATOM      6  C   UNL     1       2.304   3.867  17.644  0.00  0.00    +0.000 C 
ATOM      7  N   UNL     1       3.462   4.726  17.533  0.00  0.00    +0.000 N 
ATOM      8  C   UNL     1       3.339   5.897  18.227  0.00  0.00    +0.000 A 
ATOM      9  N   UNL     1       4.254   6.735  17.784  0.00  0.00    +0.000 NA
ATOM     10  C   UNL     1       4.965   5.998  16.779  0.00  0.00    +0.000 A 
ATOM     11  C   UNL     1       5.934   6.351  15.815  0.00  0.00    +0.000 A 
ATOM     12  C   UNL     1       6.449   5.350  14.940  0.00  0.00    +0.000 A 
ATOM     13  C   UNL     1       6.067   4.014  15.059  0.00  0.00    +0.000 A 
ATOM     14  C   UNL     1       5.112   3.643  15.978  0.00  0.00    +0.000 A 
ATOM     15  C   UNL     1       4.551   4.668  16.752  0.00  0.00    +0.000 A 
ATOM     16  H   UNL     1       2.469   8.249  19.866  0.00  0.00    +0.000 HD
ENDROOT
BRANCH   1  17
ATOM     17  C   UNL     1       0.966   8.317  21.419  0.00  0.00    +0.000 C 
ATOM     18  C   UNL     1       1.947   8.930  22.417  0.00  0.00    +0.000 C 
BRANCH  17  20
ATOM     19  N   UNL     1      -0.051   9.904  19.804  0.00  0.00    +0.000 N 
ATOM     20  C   UNL     1      -0.067   9.465  21.116  0.00  0.00    +0.000 C 
ATOM     21  O   UNL     1      -0.663  10.063  22.011  0.00  0.00    +0.000 OA
ATOM     22  H   UNL     1       0.369   9.291  19.120  0.00  0.00    +0.000 HD
BRANCH  19  23
ATOM     23  C   UNL     1      -0.695  11.124  19.369  0.00  0.00    +0.000 C 
BRANCH  23  27
ATOM     24  C   UNL     1      -3.490  10.501  16.119  0.00  0.00    +0.000 A 
ATOM     25  C   UNL     1      -2.272   9.824  16.150  0.00  0.00    +0.000 A 
ATOM     26  C   UNL     1      -1.371  10.027  17.198  0.00  0.00    +0.000 A 
ATOM     27  C   UNL     1      -1.662  10.933  18.226  0.00  0.00    +0.000 A 
ATOM     28  C   UNL     1      -2.889  11.613  18.188  0.00  0.00    +0.000 A 
ATOM     29  C   UNL     1      -3.798  11.398  17.140  0.00  0.00    +0.000 A 
BRANCH  24  31
ATOM     30  C   UNL     1      -3.592   9.969  13.811  0.00  0.00    +0.000 C 
ATOM     31  O   UNL     1      -4.274  10.227  15.031  0.00  0.00    +0.000 OA
ENDBRANCH  24  31
ENDBRANCH  23  27
ENDBRANCH  19  23
ENDBRANCH  17  20
ENDBRANCH   1  17
TORSDOF 5
ENDMDL
MODEL 7
REMARK VINA RESULT:      -7.7      3.154      8.842
REMARK  Name = 
REMARK  7 active torsions:
REMARK  status: ('A' for Active; 'I' for Inactive)
REMARK    1  A    between atoms: C_1  and  O_2
REMARK    2  A    between atoms: O_2  and  C_3
REMARK    3  A    between atoms: C_6  and  C_7
REMARK    4  A    between atoms: C_7  and  N_8
REMARK    5  A    between atoms: C_9  and  C_11
REMARK    6  A    between atoms: C_11  and  C_12
REMARK    7  A    between atoms: C_11  and  N_13
REMARK                            x       y       z     vdW  Elec       q    Type
REMARK                         _______ _______ _______ _____ _____    ______ ____
ROOT
ATOM      1  N   UNL     1       1.947   7.557  20.301  0.00  0.00    +0.000 N 
ATOM      2  C   UNL     1       2.006   6.193  20.212  0.00  0.00    +0.000 C 
ATOM      3  O   UNL     1       1.436   5.515  21.071  0.00  0.00    +0.000 OA
ATOM      4  N   UNL     1       2.420   5.593  19.048  0.00  0.00    +0.000 N 
ATOM      5  C   UNL     1       1.774   4.289  18.756  0.00  0.00    +0.000 C 
ATOM      6  C   UNL     1       2.337   3.863  17.422  0.00  0.00    +0.000 C 
ATOM      7  N   UNL     1       3.576   4.609  17.435  0.00  0.00    +0.000 N 
ATOM      8  C   UNL     1       3.529   5.727  18.221  0.00  0.00    +0.000 A 
ATOM      9  N   UNL     1       4.542   6.502  17.891  0.00  0.00    +0.000 NA
ATOM     10  C   UNL     1       5.231   5.781  16.859  0.00  0.00    +0.000 A 
ATOM     11  C   UNL     1       6.279   6.111  15.972  0.00  0.00    +0.000 A 
ATOM     12  C   UNL     1       6.740   5.138  15.039  0.00  0.00    +0.000 A 
ATOM     13  C   UNL     1       6.227   3.842  15.027  0.00  0.00    +0.000 A 
ATOM     14  C   UNL     1       5.194   3.495  15.868  0.00  0.00    +0.000 A 
ATOM     15  C   UNL     1       4.693   4.506  16.702  0.00  0.00    +0.000 A 
ATOM     16  H   UNL     1       2.804   8.015  20.014  0.00  0.00    +0.000 HD
ENDROOT
BRANCH   1  17
ATOM     17  C   UNL     1       1.236   8.108  21.499  0.00  0.00    +0.000 C 
ATOM     18  C   UNL     1       2.129   9.056  22.297  0.00  0.00    +0.000 C 
BRANCH  17  20
ATOM     19  N   UNL     1       0.127  10.025  20.380  0.00  0.00    +0.000 N 
ATOM     20  C   UNL     1      -0.070   8.936  21.210  0.00  0.00    +0.000 C 
ATOM     21  O   UNL     1      -1.111   8.761  21.842  0.00  0.00    +0.000 OA
ATOM     22  H   UNL     1       0.966  10.028  19.817  0.00  0.00    +0.000 HD
BRANCH  19  23
ATOM     23  C   UNL     1      -0.850  11.080  20.210  0.00  0.00    +0.000 C 
BRANCH  23  27
ATOM     24  C   UNL     1      -3.188  10.800  16.574  0.00  0.00    +0.000 A 
ATOM     25  C   UNL     1      -3.620  11.588  17.640  0.00  0.00    +0.000 A 
ATOM     26  C   UNL     1      -2.865  11.676  18.812  0.00  0.00    +0.000 A 
ATOM     27  C   UNL     1      -1.672  10.956  18.951  0.00  0.00    +0.000 A 
ATOM     28  C   UNL     1      -1.244  10.163  17.876  0.00  0.00    +0.000 A 
ATOM     29  C   UNL     1      -1.997  10.086  16.694  0.00  0.00    +0.000 A 
BRANCH  24  31
ATOM     30  C   UNL     1      -3.599  10.012  14.377  0.00  0.00    +0.000 C 
ATOM     31  O   UNL     1      -4.024  10.786  15.492  0.00  0.00    +0.000 OA
ENDBRANCH  24  31
ENDBRANCH  23  27
ENDBRANCH  19  23
ENDBRANCH  17  20
ENDBRANCH   1  17
TORSDOF 5
ENDMDL
MODEL 8
REMARK VINA RESULT:      -7.6      3.246     10.130
REMARK  Name = 
REMARK  7 active torsions:
REMARK  status: ('A' for Active; 'I' for Inactive)
REMARK    1  A    between atoms: C_1  and  O_2
REMARK    2  A    between atoms: O_2  and  C_3
REMARK    3  A    between atoms: C_6  and  C_7
REMARK    4  A    between atoms: C_7  and  N_8
REMARK    5  A    between atoms: C_9  and  C_11
REMARK    6  A    between atoms: C_11  and  C_12
REMARK    7  A    between atoms: C_11  and  N_13
REMARK                            x       y       z     vdW  Elec       q    Type
REMARK                         _______ _______ _______ _____ _____    ______ ____
ROOT
ATOM      1  N   UNL     1       1.255   9.359  19.185  0.00  0.00    +0.000 N 
ATOM      2  C   UNL     1       1.876   8.600  18.232  0.00  0.00    +0.000 C 
ATOM      3  O   UNL     1       1.952   9.035  17.080  0.00  0.00    +0.000 OA
ATOM      4  N   UNL     1       2.658   7.532  18.599  0.00  0.00    +0.000 N 
ATOM      5  C   UNL     1       3.816   7.273  17.708  0.00  0.00    +0.000 C 
ATOM      6  C   UNL     1       4.543   6.111  18.339  0.00  0.00    +0.000 C 
ATOM      7  N   UNL     1       3.454   5.524  19.088  0.00  0.00    +0.000 N 
ATOM      8  C   UNL     1       2.472   6.419  19.411  0.00  0.00    +0.000 A 
ATOM      9  N   UNL     1       1.735   5.890  20.366  0.00  0.00    +0.000 NA
ATOM     10  C   UNL     1       2.315   4.599  20.602  0.00  0.00    +0.000 A 
ATOM     11  C   UNL     1       2.121   3.609  21.590  0.00  0.00    +0.000 A 
ATOM     12  C   UNL     1       2.885   2.407  21.536  0.00  0.00    +0.000 A 
ATOM     13  C   UNL     1       3.774   2.156  20.492  0.00  0.00    +0.000 A 
ATOM     14  C   UNL     1       3.997   3.110  19.524  0.00  0.00    +0.000 A 
ATOM     15  C   UNL     1       3.306   4.322  19.663  0.00  0.00    +0.000 A 
ATOM     16  H   UNL     1       0.723   8.810  19.851  0.00  0.00    +0.000 HD
ENDROOT
BRANCH   1  17
ATOM     17  C   UNL     1       0.652  10.646  18.711  0.00  0.00    +0.000 C 
ATOM     18  C   UNL     1      -0.808  10.466  18.300  0.00  0.00    +0.000 C 
BRANCH  17  20
ATOM     19  N   UNL     1       0.102  11.484  20.982  0.00  0.00    +0.000 N 
ATOM     20  C   UNL     1       0.632  11.827  19.751  0.00  0.00    +0.000 C 
ATOM     21  O   UNL     1       0.857  12.992  19.425  0.00  0.00    +0.000 OA
ATOM     22  H   UNL     1       0.055  10.499  21.204  0.00  0.00    +0.000 HD
BRANCH  19  23
ATOM     23  C   UNL     1      -0.279  12.459  21.981  0.00  0.00    +0.000 C 
BRANCH  23  27
ATOM     24  C   UNL     1      -4.558  12.623  22.634  0.00  0.00    +0.000 A 
ATOM     25  C   UNL     1      -4.026  12.783  21.355  0.00  0.00    +0.000 A 
ATOM     26  C   UNL     1      -2.646  12.731  21.146  0.00  0.00    +0.000 A 
ATOM     27  C   UNL     1      -1.766  12.542  22.220  0.00  0.00    +0.000 A 
ATOM     28  C   UNL     1      -2.308  12.384  23.505  0.00  0.00    +0.000 A 
ATOM     29  C   UNL     1      -3.696  12.424  23.710  0.00  0.00    +0.000 A 
BRANCH  24  31
ATOM     30  C   UNL     1      -6.597  13.037  21.498  0.00  0.00    +0.000 C 
ATOM     31  O   UNL     1      -5.921  12.712  22.706  0.00  0.00    +0.000 OA
ENDBRANCH  24  31
ENDBRANCH  23  27
ENDBRANCH  19  23
ENDBRANCH  17  20
ENDBRANCH   1  17
TORSDOF 5
ENDMDL
MODEL 9
REMARK VINA RESULT:      -7.5      3.486     10.658
REMARK  Name = 
REMARK  7 active torsions:
REMARK  status: ('A' for Active; 'I' for Inactive)
REMARK    1  A    between atoms: C_1  and  O_2
REMARK    2  A    between atoms: O_2  and  C_3
REMARK    3  A    between atoms: C_6  and  C_7
REMARK    4  A    between atoms: C_7  and  N_8
REMARK    5  A    between atoms: C_9  and  C_11
REMARK    6  A    between atoms: C_11  and  C_12
REMARK    7  A    between atoms: C_11  and  N_13
REMARK                            x       y       z     vdW  Elec       q    Type
REMARK                         _______ _______ _______ _____ _____    ______ ____
ROOT
ATOM      1  N   UNL     1       1.160   9.307  19.592  0.00  0.00    +0.000 N 
ATOM      2  C   UNL     1       1.711   8.668  18.515  0.00  0.00    +0.000 C 
ATOM      3  O   UNL     1       1.654   9.207  17.408  0.00  0.00    +0.000 OA
ATOM      4  N   UNL     1       2.567   7.609  18.703  0.00  0.00    +0.000 N 
ATOM      5  C   UNL     1       3.638   7.487  17.683  0.00  0.00    +0.000 C 
ATOM      6  C   UNL     1       4.470   6.309  18.128  0.00  0.00    +0.000 C 
ATOM      7  N   UNL     1       3.485   5.606  18.920  0.00  0.00    +0.000 N 
ATOM      8  C   UNL     1       2.507   6.420  19.420  0.00  0.00    +0.000 A 
ATOM      9  N   UNL     1       1.890   5.773  20.388  0.00  0.00    +0.000 NA
ATOM     10  C   UNL     1       2.541   4.495  20.444  0.00  0.00    +0.000 A 
ATOM     11  C   UNL     1       2.485   3.412  21.347  0.00  0.00    +0.000 A 
ATOM     12  C   UNL     1       3.286   2.257  21.107  0.00  0.00    +0.000 A 
ATOM     13  C   UNL     1       4.074   2.144  19.962  0.00  0.00    +0.000 A 
ATOM     14  C   UNL     1       4.162   3.191  19.072  0.00  0.00    +0.000 A 
ATOM     15  C   UNL     1       3.442   4.351  19.391  0.00  0.00    +0.000 A 
ATOM     16  H   UNL     1       0.720   8.676  20.251  0.00  0.00    +0.000 HD
ENDROOT
BRANCH   1  17
ATOM     17  C   UNL     1       0.464  10.602  19.302  0.00  0.00    +0.000 C 
ATOM     18  C   UNL     1      -0.965  10.374  18.811  0.00  0.00    +0.000 C 
BRANCH  17  20
ATOM     19  N   UNL     1      -0.980  12.018  20.741  0.00  0.00    +0.000 N 
ATOM     20  C   UNL     1       0.318  11.596  20.512  0.00  0.00    +0.000 C 
ATOM     21  O   UNL     1       1.292  12.119  21.053  0.00  0.00    +0.000 OA
ATOM     22  H   UNL     1      -1.721  11.459  20.342  0.00  0.00    +0.000 HD
BRANCH  19  23
ATOM     23  C   UNL     1      -1.311  13.135  21.599  0.00  0.00    +0.000 C 
BRANCH  23  27
ATOM     24  C   UNL     1      -5.167  12.864  23.553  0.00  0.00    +0.000 A 
ATOM     25  C   UNL     1      -4.003  12.487  24.220  0.00  0.00    +0.000 A 
ATOM     26  C   UNL     1      -2.760  12.574  23.588  0.00  0.00    +0.000 A 
ATOM     27  C   UNL     1      -2.660  13.018  22.264  0.00  0.00    +0.000 A 
ATOM     28  C   UNL     1      -3.836  13.394  21.597  0.00  0.00    +0.000 A 
ATOM     29  C   UNL     1      -5.083  13.318  22.239  0.00  0.00    +0.000 A 
BRANCH  24  31
ATOM     30  C   UNL     1      -7.495  12.419  23.534  0.00  0.00    +0.000 C 
ATOM     31  O   UNL     1      -6.319  12.716  24.276  0.00  0.00    +0.000 OA
ENDBRANCH  24  31
ENDBRANCH  23  27
ENDBRANCH  19  23
ENDBRANCH  17  20
ENDBRANCH   1  17
TORSDOF 5
ENDMDL
