MODEL 1
REMARK VINA RESULT:      -8.8      0.000      0.000
REMARK  Name = 
REMARK  6 active torsions:
REMARK  status: ('A' for Active; 'I' for Inactive)
REMARK    1  A    between atoms: C_2  and  C_22
REMARK    2  A    between atoms: N_3  and  C_4
REMARK    3  A    between atoms: C_8  and  N_9
REMARK    4  A    between atoms: C_10  and  C_12
REMARK    5  A    between atoms: C_15  and  N_16
REMARK    6  A    between atoms: C_25  and  N_26
REMARK                            x       y       z     vdW  Elec       q    Type
REMARK                         _______ _______ _______ _____ _____    ______ ____
ROOT
ATOM      1  C   UNL     1       1.931   5.262  20.791  0.00  0.00    +0.000 A 
ATOM      2  C   UNL     1       1.849   4.099  21.559  0.00  0.00    +0.000 A 
ATOM      3  C   UNL     1       2.503   2.939  21.162  0.00  0.00    +0.000 A 
ATOM      4  C   UNL     1       3.242   2.928  19.983  0.00  0.00    +0.000 A 
ATOM      5  C   UNL     1       3.318   4.065  19.177  0.00  0.00    +0.000 A 
ATOM      6  C   UNL     1       2.655   5.235  19.588  0.00  0.00    +0.000 A 
ENDROOT
BRANCH   1   9
ATOM      7  O   UNL     1       2.164   7.905  19.555  0.00  0.00    +0.000 OA
ATOM      8  C   UNL     1       1.485   7.695  20.554  0.00  0.00    +0.000 C 
ATOM      9  N   UNL     1       1.302   6.470  21.177  0.00  0.00    +0.000 N 
ATOM     10  H   UNL     1       0.649   6.405  21.944  0.00  0.00    +0.000 HD
BRANCH   8  11
ATOM     11  C   UNL     1       0.782   8.868  21.145  0.00  0.00    +0.000 A 
ATOM     12  C   UNL     1       0.827  10.151  20.588  0.00  0.00    +0.000 A 
ATOM     13  C   UNL     1       0.163  11.209  21.222  0.00  0.00    +0.000 A 
ATOM     14  C   UNL     1      -0.534  10.982  22.419  0.00  0.00    +0.000 A 
ATOM     15  C   UNL     1      -0.566   9.708  22.992  0.00  0.00    +0.000 A 
ATOM     16  C   UNL     1       0.093   8.658  22.351  0.00  0.00    +0.000 A 
BRANCH  14  17
ATOM     17  N   UNL     1      -1.220  12.094  23.084  0.00  0.00    +0.000 N 
ATOM     18  O   UNL     1      -2.426  11.958  23.337  0.00  0.00    +0.000 OA
ATOM     19  O   UNL     1      -0.553  13.103  23.360  0.00  0.00    +0.000 OA
ENDBRANCH  14  17
ENDBRANCH   8  11
ENDBRANCH   1   9
BRANCH   5  20
ATOM     20  N   UNL     1       4.074   4.099  17.979  0.00  0.00    +0.000 N 
ATOM     21  C   UNL     1       5.443   4.305  17.903  0.00  0.00    +0.000 C 
ATOM     22  O   UNL     1       6.215   4.377  18.853  0.00  0.00    +0.000 OA
ATOM     23  H   UNL     1       3.552   3.973  17.125  0.00  0.00    +0.000 HD
BRANCH  21  24
ATOM     24  C   UNL     1       6.040   4.455  16.547  0.00  0.00    +0.000 A 
ATOM     25  C   UNL     1       5.224   4.116  15.452  0.00  0.00    +0.000 A 
ATOM     26  C   UNL     1       5.686   4.250  14.143  0.00  0.00    +0.000 A 
ATOM     27  C   UNL     1       6.980   4.732  13.924  0.00  0.00    +0.000 A 
ATOM     28  C   UNL     1       7.803   5.084  15.005  0.00  0.00    +0.000 A 
ATOM     29  C   UNL     1       7.331   4.948  16.317  0.00  0.00    +0.000 A 
BRANCH  27  30
ATOM     30  N   UNL     1       7.473   4.883  12.551  0.00  0.00    +0.000 N 
ATOM     31  O   UNL     1       8.148   5.888  12.285  0.00  0.00    +0.000 OA
ATOM     32  O   UNL     1       7.181   3.996  11.735  0.00  0.00    +0.000 OA
ENDBRANCH  27  30
ENDBRANCH  21  24
ENDBRANCH   5  20
TORSDOF 6
ENDMDL
MODEL 2
REMARK VINA RESULT:      -8.7      0.130     10.291
REMARK  Name = 
REMARK  6 active torsions:
REMARK  status: ('A' for Active; 'I' for Inactive)
REMARK    1  A    between atoms: C_2  and  C_22
REMARK    2  A    between atoms: N_3  and  C_4
REMARK    3  A    between atoms: C_8  and  N_9
REMARK    4  A    between atoms: C_10  and  C_12
REMARK    5  A    between atoms: C_15  and  N_16
REMARK    6  A    between atoms: C_25  and  N_26
REMARK                            x       y       z     vdW  Elec       q    Type
REMARK                         _______ _______ _______ _____ _____    ______ ____
ROOT
ATOM      1  C   UNL     1       3.334   4.127  19.162  0.00  0.00    +0.000 A 
ATOM      2  C   UNL     1       3.216   2.939  19.885  0.00  0.00    +0.000 A 
ATOM      3  C   UNL     1       2.452   2.886  21.044  0.00  0.00    +0.000 A 
ATOM      4  C   UNL     1       1.802   4.029  21.499  0.00  0.00    +0.000 A 
ATOM      5  C   UNL     1       1.925   5.241  20.816  0.00  0.00    +0.000 A 
ATOM      6  C   UNL     1       2.698   5.284  19.643  0.00  0.00    +0.000 A 
ENDROOT
BRANCH   1   9
ATOM      7  O   UNL     1       6.232   4.383  18.841  0.00  0.00    +0.000 OA
ATOM      8  C   UNL     1       5.457   4.361  17.891  0.00  0.00    +0.000 C 
ATOM      9  N   UNL     1       4.080   4.213  17.962  0.00  0.00    +0.000 N 
ATOM     10  H   UNL     1       3.554   4.124  17.105  0.00  0.00    +0.000 HD
BRANCH   8  11
ATOM     11  C   UNL     1       6.055   4.497  16.534  0.00  0.00    +0.000 A 
ATOM     12  C   UNL     1       7.323   5.044  16.305  0.00  0.00    +0.000 A 
ATOM     13  C   UNL     1       7.803   5.164  14.994  0.00  0.00    +0.000 A 
ATOM     14  C   UNL     1       7.008   4.747  13.915  0.00  0.00    +0.000 A 
ATOM     15  C   UNL     1       5.732   4.218  14.135  0.00  0.00    +0.000 A 
ATOM     16  C   UNL     1       5.264   4.096  15.444  0.00  0.00    +0.000 A 
BRANCH  14  17
ATOM     17  N   UNL     1       7.510   4.883  12.545  0.00  0.00    +0.000 N 
ATOM     18  O   UNL     1       7.228   3.986  11.737  0.00  0.00    +0.000 OA
ATOM     19  O   UNL     1       8.182   5.889  12.272  0.00  0.00    +0.000 OA
ENDBRANCH  14  17
ENDBRANCH   8  11
ENDBRANCH   1   9
BRANCH   5  20
ATOM     20  N   UNL     1       1.265   6.422  21.238  0.00  0.00    +0.000 N 
ATOM     21  C   UNL     1       1.414   7.672  20.655  0.00  0.00    +0.000 C 
ATOM     22  O   UNL     1       2.042   7.920  19.632  0.00  0.00    +0.000 OA
ATOM     23  H   UNL     1       0.653   6.325  22.034  0.00  0.00    +0.000 HD
BRANCH  21  24
ATOM     24  C   UNL     1       0.753   8.824  21.327  0.00  0.00    +0.000 A 
ATOM     25  C   UNL     1       0.749  10.048  20.634  0.00  0.00    +0.000 A 
ATOM     26  C   UNL     1       0.130  11.177  21.171  0.00  0.00    +0.000 A 
ATOM     27  C   UNL     1      -0.497  11.081  22.417  0.00  0.00    +0.000 A 
ATOM     28  C   UNL     1      -0.511   9.865  23.117  0.00  0.00    +0.000 A 
ATOM     29  C   UNL     1       0.112   8.735  22.570  0.00  0.00    +0.000 A 
BRANCH  27  30
ATOM     30  N   UNL     1      -1.157  12.260  22.988  0.00  0.00    +0.000 N 
ATOM     31  O   UNL     1      -2.390  12.229  23.114  0.00  0.00    +0.000 OA
ATOM     32  O   UNL     1      -0.441  13.221  23.306  0.00  0.00    +0.000 OA
ENDBRANCH  27  30
ENDBRANCH  21  24
ENDBRANCH   5  20
TORSDOF 6
ENDMDL
MODEL 3
REMARK VINA RESULT:      -8.6      0.203      1.497
REMARK  Name = 
REMARK  6 active torsions:
REMARK  status: ('A' for Active; 'I' for Inactive)
REMARK    1  A    between atoms: C_2  and  C_22
REMARK    2  A    between atoms: N_3  and  C_4
REMARK    3  A    between atoms: C_8  and  N_9
REMARK    4  A    between atoms: C_10  and  C_12
REMARK    5  A    between atoms: C_15  and  N_16
REMARK    6  A    between atoms: C_25  and  N_26
REMARK                            x       y       z     vdW  Elec       q    Type
REMARK                         _______ _______ _______ _____ _____    ______ ____
ROOT
ATOM      1  C   UNL     1       1.890   5.116  20.807  0.00  0.00    +0.000 A 
ATOM      2  C   UNL     1       1.829   3.932  21.544  0.00  0.00    +0.000 A 
ATOM      3  C   UNL     1       2.457   2.780  21.089  0.00  0.00    +0.000 A 
ATOM      4  C   UNL     1       3.147   2.796  19.881  0.00  0.00    +0.000 A 
ATOM      5  C   UNL     1       3.201   3.956  19.105  0.00  0.00    +0.000 A 
ATOM      6  C   UNL     1       2.565   5.118  19.575  0.00  0.00    +0.000 A 
ENDROOT
BRANCH   1   9
ATOM      7  O   UNL     1       2.141   7.802  19.671  0.00  0.00    +0.000 OA
ATOM      8  C   UNL     1       1.477   7.563  20.674  0.00  0.00    +0.000 C 
ATOM      9  N   UNL     1       1.288   6.317  21.252  0.00  0.00    +0.000 N 
ATOM     10  H   UNL     1       0.649   6.232  22.029  0.00  0.00    +0.000 HD
BRANCH   8  11
ATOM     11  C   UNL     1       0.805   8.722  21.324  0.00  0.00    +0.000 A 
ATOM     12  C   UNL     1       0.212   8.655  22.591  0.00  0.00    +0.000 A 
ATOM     13  C   UNL     1      -0.427   9.783  23.121  0.00  0.00    +0.000 A 
ATOM     14  C   UNL     1      -0.482  10.972  22.377  0.00  0.00    +0.000 A 
ATOM     15  C   UNL     1       0.090  11.040  21.103  0.00  0.00    +0.000 A 
ATOM     16  C   UNL     1       0.731   9.914  20.585  0.00  0.00    +0.000 A 
BRANCH  14  17
ATOM     17  N   UNL     1      -1.160  12.147  22.931  0.00  0.00    +0.000 N 
ATOM     18  O   UNL     1      -0.464  13.131  23.220  0.00  0.00    +0.000 OA
ATOM     19  O   UNL     1      -2.391  12.091  23.074  0.00  0.00    +0.000 OA
ENDBRANCH  14  17
ENDBRANCH   8  11
ENDBRANCH   1   9
BRANCH   5  20
ATOM     20  N   UNL     1       3.908   4.019  17.878  0.00  0.00    +0.000 N 
ATOM     21  C   UNL     1       5.265   4.272  17.750  0.00  0.00    +0.000 C 
ATOM     22  O   UNL     1       6.071   4.368  18.670  0.00  0.00    +0.000 OA
ATOM     23  H   UNL     1       3.358   3.877  17.045  0.00  0.00    +0.000 HD
BRANCH  21  24
ATOM     24  C   UNL     1       5.803   4.446  16.373  0.00  0.00    +0.000 A 
ATOM     25  C   UNL     1       7.123   4.921  16.261  0.00  0.00    +0.000 A 
ATOM     26  C   UNL     1       7.723   5.089  15.012  0.00  0.00    +0.000 A 
ATOM     27  C   UNL     1       6.995   4.776  13.860  0.00  0.00    +0.000 A 
ATOM     28  C   UNL     1       5.681   4.293  13.955  0.00  0.00    +0.000 A 
ATOM     29  C   UNL     1       5.086   4.125  15.213  0.00  0.00    +0.000 A 
BRANCH  27  30
ATOM     30  N   UNL     1       7.619   4.943  12.543  0.00  0.00    +0.000 N 
ATOM     31  O   UNL     1       7.385   4.085  11.679  0.00  0.00    +0.000 OA
ATOM     32  O   UNL     1       8.347   5.932  12.374  0.00  0.00    +0.000 OA
ENDBRANCH  27  30
ENDBRANCH  21  24
ENDBRANCH   5  20
TORSDOF 6
ENDMDL
MODEL 4
REMARK VINA RESULT:      -8.6      0.318      1.088
REMARK  Name = 
REMARK  6 active torsions:
REMARK  status: ('A' for Active; 'I' for Inactive)
REMARK    1  A    between atoms: C_2  and  C_22
REMARK    2  A    between atoms: N_3  and  C_4
REMARK    3  A    between atoms: C_8  and  N_9
REMARK    4  A    between atoms: C_10  and  C_12
REMARK    5  A    between atoms: C_15  and  N_16
REMARK    6  A    between atoms: C_25  and  N_26
REMARK                            x       y       z     vdW  Elec       q    Type
REMARK                         _______ _______ _______ _____ _____    ______ ____
ROOT
ATOM      1  C   UNL     1       1.765   5.200  20.719  0.00  0.00    +0.000 A 
ATOM      2  C   UNL     1       1.761   4.051  21.512  0.00  0.00    +0.000 A 
ATOM      3  C   UNL     1       2.458   2.916  21.120  0.00  0.00    +0.000 A 
ATOM      4  C   UNL     1       3.162   2.914  19.919  0.00  0.00    +0.000 A 
ATOM      5  C   UNL     1       3.160   4.036  19.089  0.00  0.00    +0.000 A 
ATOM      6  C   UNL     1       2.454   5.182  19.496  0.00  0.00    +0.000 A 
ENDROOT
BRANCH   1   9
ATOM      7  O   UNL     1       2.191   7.925  19.739  0.00  0.00    +0.000 OA
ATOM      8  C   UNL     1       1.369   7.651  20.607  0.00  0.00    +0.000 C 
ATOM      9  N   UNL     1       1.091   6.385  21.099  0.00  0.00    +0.000 N 
ATOM     10  H   UNL     1       0.330   6.273  21.754  0.00  0.00    +0.000 HD
BRANCH   8  11
ATOM     11  C   UNL     1       0.591   8.786  21.176  0.00  0.00    +0.000 A 
ATOM     12  C   UNL     1       0.162   9.882  20.416  0.00  0.00    +0.000 A 
ATOM     13  C   UNL     1      -0.540  10.925  21.034  0.00  0.00    +0.000 A 
ATOM     14  C   UNL     1      -0.800  10.876  22.412  0.00  0.00    +0.000 A 
ATOM     15  C   UNL     1      -0.358   9.795  23.181  0.00  0.00    +0.000 A 
ATOM     16  C   UNL     1       0.336   8.756  22.558  0.00  0.00    +0.000 A 
BRANCH  14  17
ATOM     17  N   UNL     1      -1.527  11.974  23.055  0.00  0.00    +0.000 N 
ATOM     18  O   UNL     1      -0.978  13.085  23.092  0.00  0.00    +0.000 OA
ATOM     19  O   UNL     1      -2.651  11.730  23.521  0.00  0.00    +0.000 OA
ENDBRANCH  14  17
ENDBRANCH   8  11
ENDBRANCH   1   9
BRANCH   5  20
ATOM     20  N   UNL     1       3.878   4.080  17.868  0.00  0.00    +0.000 N 
ATOM     21  C   UNL     1       5.243   4.292  17.751  0.00  0.00    +0.000 C 
ATOM     22  O   UNL     1       6.044   4.361  18.677  0.00  0.00    +0.000 OA
ATOM     23  H   UNL     1       3.331   3.956  17.030  0.00  0.00    +0.000 HD
BRANCH  21  24
ATOM     24  C   UNL     1       5.797   4.452  16.378  0.00  0.00    +0.000 A 
ATOM     25  C   UNL     1       7.028   5.125  16.263  0.00  0.00    +0.000 A 
ATOM     26  C   UNL     1       7.638   5.299  15.021  0.00  0.00    +0.000 A 
ATOM     27  C   UNL     1       7.013   4.791  13.878  0.00  0.00    +0.000 A 
ATOM     28  C   UNL     1       5.789   4.110  13.977  0.00  0.00    +0.000 A 
ATOM     29  C   UNL     1       5.183   3.937  15.228  0.00  0.00    +0.000 A 
BRANCH  27  30
ATOM     30  N   UNL     1       7.649   4.963  12.567  0.00  0.00    +0.000 N 
ATOM     31  O   UNL     1       8.415   5.927  12.419  0.00  0.00    +0.000 OA
ATOM     32  O   UNL     1       7.379   4.136  11.685  0.00  0.00    +0.000 OA
ENDBRANCH  27  30
ENDBRANCH  21  24
ENDBRANCH   5  20
TORSDOF 6
ENDMDL
MODEL 5
REMARK VINA RESULT:      -8.5      3.504      6.706
REMARK  Name = 
REMARK  6 active torsions:
REMARK  status: ('A' for Active; 'I' for Inactive)
REMARK    1  A    between atoms: C_2  and  C_22
REMARK    2  A    between atoms: N_3  and  C_4
REMARK    3  A    between atoms: C_8  and  N_9
REMARK    4  A    between atoms: C_10  and  C_12
REMARK    5  A    between atoms: C_15  and  N_16
REMARK    6  A    between atoms: C_25  and  N_26
REMARK                            x       y       z     vdW  Elec       q    Type
REMARK                         _______ _______ _______ _____ _____    ______ ____
ROOT
ATOM      1  C   UNL     1      -0.546  11.803  19.943  0.00  0.00    +0.000 A 
ATOM      2  C   UNL     1       0.191  12.809  19.317  0.00  0.00    +0.000 A 
ATOM      3  C   UNL     1       1.345  12.506  18.606  0.00  0.00    +0.000 A 
ATOM      4  C   UNL     1       1.782  11.187  18.523  0.00  0.00    +0.000 A 
ATOM      5  C   UNL     1       1.085  10.162  19.165  0.00  0.00    +0.000 A 
ATOM      6  C   UNL     1      -0.084  10.478  19.879  0.00  0.00    +0.000 A 
ENDROOT
BRANCH   1   9
ATOM      7  O   UNL     1      -0.868  12.471  22.775  0.00  0.00    +0.000 OA
ATOM      8  C   UNL     1      -1.817  12.353  22.007  0.00  0.00    +0.000 C 
ATOM      9  N   UNL     1      -1.742  12.070  20.652  0.00  0.00    +0.000 N 
ATOM     10  H   UNL     1      -2.590  12.082  20.103  0.00  0.00    +0.000 HD
BRANCH   8  11
ATOM     11  C   UNL     1      -3.176  12.544  22.586  0.00  0.00    +0.000 A 
ATOM     12  C   UNL     1      -3.458  12.398  23.950  0.00  0.00    +0.000 A 
ATOM     13  C   UNL     1      -4.769  12.566  24.411  0.00  0.00    +0.000 A 
ATOM     14  C   UNL     1      -5.798  12.867  23.506  0.00  0.00    +0.000 A 
ATOM     15  C   UNL     1      -5.528  12.995  22.140  0.00  0.00    +0.000 A 
ATOM     16  C   UNL     1      -4.218  12.833  21.688  0.00  0.00    +0.000 A 
BRANCH  14  17
ATOM     17  N   UNL     1      -7.171  13.033  23.992  0.00  0.00    +0.000 N 
ATOM     18  O   UNL     1      -7.509  14.156  24.392  0.00  0.00    +0.000 OA
ATOM     19  O   UNL     1      -7.916  12.041  23.970  0.00  0.00    +0.000 OA
ENDBRANCH  14  17
ENDBRANCH   8  11
ENDBRANCH   1   9
BRANCH   5  20
ATOM     20  N   UNL     1       1.487   8.805  19.089  0.00  0.00    +0.000 N 
ATOM     21  C   UNL     1       1.668   7.963  20.176  0.00  0.00    +0.000 C 
ATOM     22  O   UNL     1       1.403   8.227  21.344  0.00  0.00    +0.000 OA
ATOM     23  H   UNL     1       1.662   8.448  18.162  0.00  0.00    +0.000 HD
BRANCH  21  24
ATOM     24  C   UNL     1       2.236   6.613  19.910  0.00  0.00    +0.000 A 
ATOM     25  C   UNL     1       3.078   6.486  18.790  0.00  0.00    +0.000 A 
ATOM     26  C   UNL     1       3.678   5.267  18.476  0.00  0.00    +0.000 A 
ATOM     27  C   UNL     1       3.438   4.159  19.295  0.00  0.00    +0.000 A 
ATOM     28  C   UNL     1       2.608   4.271  20.422  0.00  0.00    +0.000 A 
ATOM     29  C   UNL     1       2.010   5.500  20.731  0.00  0.00    +0.000 A 
BRANCH  27  30
ATOM     30  N   UNL     1       4.070   2.874  18.978  0.00  0.00    +0.000 N 
ATOM     31  O   UNL     1       4.763   2.338  19.855  0.00  0.00    +0.000 OA
ATOM     32  O   UNL     1       3.876   2.402  17.848  0.00  0.00    +0.000 OA
ENDBRANCH  27  30
ENDBRANCH  21  24
ENDBRANCH   5  20
TORSDOF 6
ENDMDL
MODEL 6
REMARK VINA RESULT:      -8.5      3.669      6.798
REMARK  Name = 
REMARK  6 active torsions:
REMARK  status: ('A' for Active; 'I' for Inactive)
REMARK    1  A    between atoms: C_2  and  C_22
REMARK    2  A    between atoms: N_3  and  C_4
REMARK    3  A    between atoms: C_8  and  N_9
REMARK    4  A    between atoms: C_10  and  C_12
REMARK    5  A    between atoms: C_15  and  N_16
REMARK    6  A    between atoms: C_25  and  N_26
REMARK                            x       y       z     vdW  Elec       q    Type
REMARK                         _______ _______ _______ _____ _____    ______ ____
ROOT
ATOM      1  C   UNL     1      -0.536  11.943  19.912  0.00  0.00    +0.000 A 
ATOM      2  C   UNL     1       0.191  12.964  19.299  0.00  0.00    +0.000 A 
ATOM      3  C   UNL     1       1.346  12.681  18.582  0.00  0.00    +0.000 A 
ATOM      4  C   UNL     1       1.793  11.367  18.477  0.00  0.00    +0.000 A 
ATOM      5  C   UNL     1       1.106  10.326  19.105  0.00  0.00    +0.000 A 
ATOM      6  C   UNL     1      -0.064  10.623  19.826  0.00  0.00    +0.000 A 
ENDROOT
BRANCH   1   9
ATOM      7  O   UNL     1      -0.880  12.346  22.791  0.00  0.00    +0.000 OA
ATOM      8  C   UNL     1      -1.819  12.343  22.003  0.00  0.00    +0.000 C 
ATOM      9  N   UNL     1      -1.733  12.188  20.628  0.00  0.00    +0.000 N 
ATOM     10  H   UNL     1      -2.570  12.289  20.072  0.00  0.00    +0.000 HD
BRANCH   8  11
ATOM     11  C   UNL     1      -3.179  12.533  22.580  0.00  0.00    +0.000 A 
ATOM     12  C   UNL     1      -3.454  12.431  23.949  0.00  0.00    +0.000 A 
ATOM     13  C   UNL     1      -4.767  12.595  24.409  0.00  0.00    +0.000 A 
ATOM     14  C   UNL     1      -5.803  12.847  23.498  0.00  0.00    +0.000 A 
ATOM     15  C   UNL     1      -5.540  12.930  22.127  0.00  0.00    +0.000 A 
ATOM     16  C   UNL     1      -4.228  12.773  21.677  0.00  0.00    +0.000 A 
BRANCH  14  17
ATOM     17  N   UNL     1      -7.177  13.008  23.983  0.00  0.00    +0.000 N 
ATOM     18  O   UNL     1      -7.522  14.133  24.374  0.00  0.00    +0.000 OA
ATOM     19  O   UNL     1      -7.916  12.012  23.969  0.00  0.00    +0.000 OA
ENDBRANCH  14  17
ENDBRANCH   8  11
ENDBRANCH   1   9
BRANCH   5  20
ATOM     20  N   UNL     1       1.519   8.974  19.007  0.00  0.00    +0.000 N 
ATOM     21  C   UNL     1       1.701   8.115  20.080  0.00  0.00    +0.000 C 
ATOM     22  O   UNL     1       1.429   8.356  21.251  0.00  0.00    +0.000 OA
ATOM     23  H   UNL     1       1.700   8.635  18.075  0.00  0.00    +0.000 HD
BRANCH  21  24
ATOM     24  C   UNL     1       2.281   6.774  19.793  0.00  0.00    +0.000 A 
ATOM     25  C   UNL     1       1.936   5.731  20.673  0.00  0.00    +0.000 A 
ATOM     26  C   UNL     1       2.408   4.434  20.469  0.00  0.00    +0.000 A 
ATOM     27  C   UNL     1       3.233   4.174  19.371  0.00  0.00    +0.000 A 
ATOM     28  C   UNL     1       3.579   5.202  18.479  0.00  0.00    +0.000 A 
ATOM     29  C   UNL     1       3.099   6.502  18.689  0.00  0.00    +0.000 A 
BRANCH  27  30
ATOM     30  N   UNL     1       3.730   2.813  19.144  0.00  0.00    +0.000 N 
ATOM     31  O   UNL     1       3.166   2.128  18.278  0.00  0.00    +0.000 OA
ATOM     32  O   UNL     1       4.682   2.426  19.838  0.00  0.00    +0.000 OA
ENDBRANCH  27  30
ENDBRANCH  21  24
ENDBRANCH   5  20
TORSDOF 6
ENDMDL
MODEL 7
REMARK VINA RESULT:      -8.4      3.754     11.854
REMARK  Name = 
REMARK  6 active torsions:
REMARK  status: ('A' for Active; 'I' for Inactive)
REMARK    1  A    between atoms: C_2  and  C_22
REMARK    2  A    between atoms: N_3  and  C_4
REMARK    3  A    between atoms: C_8  and  N_9
REMARK    4  A    between atoms: C_10  and  C_12
REMARK    5  A    between atoms: C_15  and  N_16
REMARK    6  A    between atoms: C_25  and  N_26
REMARK                            x       y       z     vdW  Elec       q    Type
REMARK                         _______ _______ _______ _____ _____    ______ ____
ROOT
ATOM      1  C   UNL     1       1.224  10.026  19.066  0.00  0.00    +0.000 A 
ATOM      2  C   UNL     1       1.973  11.007  18.414  0.00  0.00    +0.000 A 
ATOM      3  C   UNL     1       1.583  12.340  18.452  0.00  0.00    +0.000 A 
ATOM      4  C   UNL     1       0.429  12.706  19.137  0.00  0.00    +0.000 A 
ATOM      5  C   UNL     1      -0.359  11.745  19.773  0.00  0.00    +0.000 A 
ATOM      6  C   UNL     1       0.045  10.399  19.732  0.00  0.00    +0.000 A 
ENDROOT
BRANCH   1   9
ATOM      7  O   UNL     1       1.478   8.225  21.359  0.00  0.00    +0.000 OA
ATOM      8  C   UNL     1       1.729   7.879  20.210  0.00  0.00    +0.000 C 
ATOM      9  N   UNL     1       1.604   8.663  19.073  0.00  0.00    +0.000 N 
ATOM     10  H   UNL     1       1.759   8.240  18.170  0.00  0.00    +0.000 HD
BRANCH   8  11
ATOM     11  C   UNL     1       2.202   6.480  20.020  0.00  0.00    +0.000 A 
ATOM     12  C   UNL     1       1.721   5.397  20.767  0.00  0.00    +0.000 A 
ATOM     13  C   UNL     1       2.240   4.115  20.548  0.00  0.00    +0.000 A 
ATOM     14  C   UNL     1       3.247   3.920  19.591  0.00  0.00    +0.000 A 
ATOM     15  C   UNL     1       3.746   4.999  18.855  0.00  0.00    +0.000 A 
ATOM     16  C   UNL     1       3.220   6.273  19.074  0.00  0.00    +0.000 A 
BRANCH  14  17
ATOM     17  N   UNL     1       3.794   2.578  19.372  0.00  0.00    +0.000 N 
ATOM     18  O   UNL     1       4.771   2.236  20.053  0.00  0.00    +0.000 OA
ATOM     19  O   UNL     1       3.244   1.861  18.522  0.00  0.00    +0.000 OA
ENDBRANCH  14  17
ENDBRANCH   8  11
ENDBRANCH   1   9
BRANCH   5  20
ATOM     20  N   UNL     1      -1.532  12.080  20.496  0.00  0.00    +0.000 N 
ATOM     21  C   UNL     1      -1.592  12.303  21.863  0.00  0.00    +0.000 C 
ATOM     22  O   UNL     1      -0.634  12.354  22.627  0.00  0.00    +0.000 OA
ATOM     23  H   UNL     1      -2.380  12.143  19.953  0.00  0.00    +0.000 HD
BRANCH  21  24
ATOM     24  C   UNL     1      -2.938  12.498  22.467  0.00  0.00    +0.000 A 
ATOM     25  C   UNL     1      -3.995  12.789  21.585  0.00  0.00    +0.000 A 
ATOM     26  C   UNL     1      -5.297  12.961  22.055  0.00  0.00    +0.000 A 
ATOM     27  C   UNL     1      -5.548  12.838  23.425  0.00  0.00    +0.000 A 
ATOM     28  C   UNL     1      -4.506  12.540  24.317  0.00  0.00    +0.000 A 
ATOM     29  C   UNL     1      -3.201  12.366  23.837  0.00  0.00    +0.000 A 
BRANCH  27  30
ATOM     30  N   UNL     1      -6.915  13.011  23.929  0.00  0.00    +0.000 N 
ATOM     31  O   UNL     1      -7.623  12.000  24.038  0.00  0.00    +0.000 OA
ATOM     32  O   UNL     1      -7.281  14.162  24.212  0.00  0.00    +0.000 OA
ENDBRANCH  27  30
ENDBRANCH  21  24
ENDBRANCH   5  20
TORSDOF 6
ENDMDL
MODEL 8
REMARK VINA RESULT:      -8.3      3.808     11.885
REMARK  Name = 
REMARK  6 active torsions:
REMARK  status: ('A' for Active; 'I' for Inactive)
REMARK    1  A    between atoms: C_2  and  C_22
REMARK    2  A    between atoms: N_3  and  C_4
REMARK    3  A    between atoms: C_8  and  N_9
REMARK    4  A    between atoms: C_10  and  C_12
REMARK    5  A    between atoms: C_15  and  N_16
REMARK    6  A    between atoms: C_25  and  N_26
REMARK                            x       y       z     vdW  Elec       q    Type
REMARK                         _______ _______ _______ _____ _____    ______ ____
ROOT
ATOM      1  C   UNL     1       1.229   9.966  19.036  0.00  0.00    +0.000 A 
ATOM      2  C   UNL     1       2.033  10.947  18.454  0.00  0.00    +0.000 A 
ATOM      3  C   UNL     1       1.649  12.282  18.473  0.00  0.00    +0.000 A 
ATOM      4  C   UNL     1       0.447  12.650  19.068  0.00  0.00    +0.000 A 
ATOM      5  C   UNL     1      -0.395  11.689  19.632  0.00  0.00    +0.000 A 
ATOM      6  C   UNL     1       0.004  10.341  19.611  0.00  0.00    +0.000 A 
ENDROOT
BRANCH   1   9
ATOM      7  O   UNL     1       1.537   8.212  21.360  0.00  0.00    +0.000 OA
ATOM      8  C   UNL     1       1.752   7.839  20.211  0.00  0.00    +0.000 C 
ATOM      9  N   UNL     1       1.600   8.600  19.062  0.00  0.00    +0.000 N 
ATOM     10  H   UNL     1       1.725   8.157  18.164  0.00  0.00    +0.000 HD
BRANCH   8  11
ATOM     11  C   UNL     1       2.210   6.433  20.038  0.00  0.00    +0.000 A 
ATOM     12  C   UNL     1       1.745   5.371  20.823  0.00  0.00    +0.000 A 
ATOM     13  C   UNL     1       2.248   4.080  20.617  0.00  0.00    +0.000 A 
ATOM     14  C   UNL     1       3.224   3.857  19.633  0.00  0.00    +0.000 A 
ATOM     15  C   UNL     1       3.707   4.916  18.859  0.00  0.00    +0.000 A 
ATOM     16  C   UNL     1       3.197   6.198  19.066  0.00  0.00    +0.000 A 
BRANCH  14  17
ATOM     17  N   UNL     1       3.755   2.506  19.427  0.00  0.00    +0.000 N 
ATOM     18  O   UNL     1       4.762   2.178  20.071  0.00  0.00    +0.000 OA
ATOM     19  O   UNL     1       3.163   1.768  18.624  0.00  0.00    +0.000 OA
ENDBRANCH  14  17
ENDBRANCH   8  11
ENDBRANCH   1   9
BRANCH   5  20
ATOM     20  N   UNL     1      -1.619  12.025  20.263  0.00  0.00    +0.000 N 
ATOM     21  C   UNL     1      -1.764  12.351  21.603  0.00  0.00    +0.000 C 
ATOM     22  O   UNL     1      -0.853  12.506  22.410  0.00  0.00    +0.000 OA
ATOM     23  H   UNL     1      -2.437  12.008  19.674  0.00  0.00    +0.000 HD
BRANCH  21  24
ATOM     24  C   UNL     1      -3.149  12.532  22.118  0.00  0.00    +0.000 A 
ATOM     25  C   UNL     1      -3.319  12.485  23.514  0.00  0.00    +0.000 A 
ATOM     26  C   UNL     1      -4.576  12.671  24.091  0.00  0.00    +0.000 A 
ATOM     27  C   UNL     1      -5.677  12.910  23.263  0.00  0.00    +0.000 A 
ATOM     28  C   UNL     1      -5.522  12.969  21.869  0.00  0.00    +0.000 A 
ATOM     29  C   UNL     1      -4.256  12.783  21.297  0.00  0.00    +0.000 A 
BRANCH  27  30
ATOM     30  N   UNL     1      -7.001  13.113  23.860  0.00  0.00    +0.000 N 
ATOM     31  O   UNL     1      -7.331  14.272  24.154  0.00  0.00    +0.000 OA
ATOM     32  O   UNL     1      -7.710  12.112  24.040  0.00  0.00    +0.000 OA
ENDBRANCH  27  30
ENDBRANCH  21  24
ENDBRANCH   5  20
TORSDOF 6
ENDMDL
MODEL 9
REMARK VINA RESULT:      -8.3      0.455     10.247
REMARK  Name = 
REMARK  6 active torsions:
REMARK  status: ('A' for Active; 'I' for Inactive)
REMARK    1  A    between atoms: C_2  and  C_22
REMARK    2  A    between atoms: N_3  and  C_4
REMARK    3  A    between atoms: C_8  and  N_9
REMARK    4  A    between atoms: C_10  and  C_12
REMARK    5  A    between atoms: C_15  and  N_16
REMARK    6  A    between atoms: C_25  and  N_26
REMARK                            x       y       z     vdW  Elec       q    Type
REMARK                         _______ _______ _______ _____ _____    ______ ____
ROOT
ATOM      1  C   UNL     1       3.475   3.897  19.184  0.00  0.00    +0.000 A 
ATOM      2  C   UNL     1       3.434   2.784  20.025  0.00  0.00    +0.000 A 
ATOM      3  C   UNL     1       2.719   2.820  21.216  0.00  0.00    +0.000 A 
ATOM      4  C   UNL     1       2.043   3.979  21.584  0.00  0.00    +0.000 A 
ATOM      5  C   UNL     1       2.090   5.120  20.780  0.00  0.00    +0.000 A 
ATOM      6  C   UNL     1       2.814   5.073  19.576  0.00  0.00    +0.000 A 
ENDROOT
BRANCH   1   9
ATOM      7  O   UNL     1       5.811   5.480  18.404  0.00  0.00    +0.000 OA
ATOM      8  C   UNL     1       5.257   4.692  17.645  0.00  0.00    +0.000 C 
ATOM      9  N   UNL     1       4.169   3.889  17.951  0.00  0.00    +0.000 N 
ATOM     10  H   UNL     1       3.852   3.216  17.268  0.00  0.00    +0.000 HD
BRANCH   8  11
ATOM     11  C   UNL     1       5.815   4.584  16.268  0.00  0.00    +0.000 A 
ATOM     12  C   UNL     1       7.104   5.008  15.926  0.00  0.00    +0.000 A 
ATOM     13  C   UNL     1       7.544   4.899  14.600  0.00  0.00    +0.000 A 
ATOM     14  C   UNL     1       6.688   4.378  13.618  0.00  0.00    +0.000 A 
ATOM     15  C   UNL     1       5.392   3.971  13.948  0.00  0.00    +0.000 A 
ATOM     16  C   UNL     1       4.963   4.077  15.272  0.00  0.00    +0.000 A 
BRANCH  14  17
ATOM     17  N   UNL     1       7.149   4.275  12.230  0.00  0.00    +0.000 N 
ATOM     18  O   UNL     1       7.071   3.167  11.679  0.00  0.00    +0.000 OA
ATOM     19  O   UNL     1       7.585   5.301  11.687  0.00  0.00    +0.000 OA
ENDBRANCH  14  17
ENDBRANCH   8  11
ENDBRANCH   1   9
BRANCH   5  20
ATOM     20  N   UNL     1       1.401   6.314  21.112  0.00  0.00    +0.000 N 
ATOM     21  C   UNL     1       1.575   7.537  20.483  0.00  0.00    +0.000 C 
ATOM     22  O   UNL     1       2.258   7.745  19.486  0.00  0.00    +0.000 OA
ATOM     23  H   UNL     1       0.747   6.247  21.876  0.00  0.00    +0.000 HD
BRANCH  21  24
ATOM     24  C   UNL     1       0.871   8.713  21.066  0.00  0.00    +0.000 A 
ATOM     25  C   UNL     1       0.137   8.494  22.246  0.00  0.00    +0.000 A 
ATOM     26  C   UNL     1      -0.533   9.540  22.880  0.00  0.00    +0.000 A 
ATOM     27  C   UNL     1      -0.467  10.824  22.330  0.00  0.00    +0.000 A 
ATOM     28  C   UNL     1       0.269  11.061  21.158  0.00  0.00    +0.000 A 
ATOM     29  C   UNL     1       0.941  10.005  20.528  0.00  0.00    +0.000 A 
BRANCH  27  30
ATOM     30  N   UNL     1      -1.162  11.933  22.992  0.00  0.00    +0.000 N 
ATOM     31  O   UNL     1      -0.521  12.972  23.207  0.00  0.00    +0.000 OA
ATOM     32  O   UNL     1      -2.351  11.761  23.302  0.00  0.00    +0.000 OA
ENDBRANCH  27  30
ENDBRANCH  21  24
ENDBRANCH   5  20
TORSDOF 6
ENDMDL
