MODEL 1
REMARK VINA RESULT:      -8.3      0.000      0.000
REMARK  Name = 
REMARK  5 active torsions:
REMARK  status: ('A' for Active; 'I' for Inactive)
REMARK    1  A    between atoms: C_2  and  O_3
REMARK    2  A    between atoms: C_2  and  C_4
REMARK    3  A    between atoms: N_6  and  C_7
REMARK    4  A    between atoms: C_7  and  C_8
REMARK    5  A    between atoms: C_11  and  C_12
REMARK                            x       y       z     vdW  Elec       q    Type
REMARK                         _______ _______ _______ _____ _____    ______ ____
ROOT
ATOM      1  C   UNL     1       5.453   4.734  18.979  0.00  0.00    +0.000 A 
ATOM      2  C   UNL     1       4.737   5.790  18.541  0.00  0.00    +0.000 A 
ATOM      3  N   UNL     1       3.359   5.799  18.253  0.00  0.00    +0.000 N 
ATOM      4  C   UNL     1       2.641   4.642  18.457  0.00  0.00    +0.000 A 
ATOM      5  C   UNL     1       1.260   4.383  18.238  0.00  0.00    +0.000 A 
ATOM      6  C   UNL     1       0.910   3.093  18.583  0.00  0.00    +0.000 A 
ATOM      7  S   UNL     1       2.257   2.185  19.128  0.00  0.00    +0.000 S 
ATOM      8  C   UNL     1       3.289   3.514  18.921  0.00  0.00    +0.000 A 
ATOM      9  C   UNL     1       4.709   3.462  19.188  0.00  0.00    +0.000 A 
ATOM     10  O   UNL     1       5.337   2.462  19.544  0.00  0.00    +0.000 OA
ENDROOT
BRANCH   1  12
ATOM     11  O   UNL     1       7.387   5.499  20.123  0.00  0.00    +0.000 OA
ATOM     12  C   UNL     1       6.904   4.874  19.189  0.00  0.00    +0.000 C 
BRANCH  12  13
ATOM     13  O   UNL     1       7.678   4.273  18.258  0.00  0.00    +0.000 OA
ATOM     14  H   UNL     1       7.804   3.302  18.386  0.00  0.00    +0.000 HD
ENDBRANCH  12  13
ENDBRANCH   1  12
BRANCH   3  15
ATOM     15  C   UNL     1       2.755   6.954  17.562  0.00  0.00    +0.000 C 
BRANCH  15  16
ATOM     16  C   UNL     1       2.139   7.975  18.498  0.00  0.00    +0.000 A 
ATOM     17  C   UNL     1       1.627   9.188  18.022  0.00  0.00    +0.000 A 
ATOM     18  C   UNL     1       0.958  10.075  18.883  0.00  0.00    +0.000 A 
ATOM     19  C   UNL     1       0.776   9.785  20.247  0.00  0.00    +0.000 A 
ATOM     20  C   UNL     1       1.324   8.577  20.711  0.00  0.00    +0.000 A 
ATOM     21  C   UNL     1       1.997   7.695  19.859  0.00  0.00    +0.000 A 
BRANCH  19  22
ATOM     22  C   UNL     1       0.017  10.677  21.161  0.00  0.00    +0.000 A 
ATOM     23  C   UNL     1      -0.604  10.191  22.325  0.00  0.00    +0.000 A 
ATOM     24  C   UNL     1      -1.277  11.047  23.208  0.00  0.00    +0.000 A 
ATOM     25  C   UNL     1      -1.333  12.414  22.951  0.00  0.00    +0.000 A 
ATOM     26  C   UNL     1      -0.733  12.922  21.807  0.00  0.00    +0.000 A 
ATOM     27  C   UNL     1      -0.077  12.062  20.920  0.00  0.00    +0.000 A 
ENDBRANCH  19  22
ENDBRANCH  15  16
ENDBRANCH   3  15
TORSDOF 5
ENDMDL
MODEL 2
REMARK VINA RESULT:      -8.1      5.552      9.082
REMARK  Name = 
REMARK  5 active torsions:
REMARK  status: ('A' for Active; 'I' for Inactive)
REMARK    1  A    between atoms: C_2  and  O_3
REMARK    2  A    between atoms: C_2  and  C_4
REMARK    3  A    between atoms: N_6  and  C_7
REMARK    4  A    between atoms: C_7  and  C_8
REMARK    5  A    between atoms: C_11  and  C_12
REMARK                            x       y       z     vdW  Elec       q    Type
REMARK                         _______ _______ _______ _____ _____    ______ ____
ROOT
ATOM      1  C   UNL     1      -2.540  11.071  17.399  0.00  0.00    +0.000 A 
ATOM      2  C   UNL     1      -1.302  10.930  17.917  0.00  0.00    +0.000 A 
ATOM      3  N   UNL     1      -0.880  11.357  19.190  0.00  0.00    +0.000 N 
ATOM      4  C   UNL     1      -1.803  11.952  20.020  0.00  0.00    +0.000 A 
ATOM      5  C   UNL     1      -1.637  12.476  21.331  0.00  0.00    +0.000 A 
ATOM      6  C   UNL     1      -2.816  12.979  21.845  0.00  0.00    +0.000 A 
ATOM      7  S   UNL     1      -4.108  12.859  20.728  0.00  0.00    +0.000 S 
ATOM      8  C   UNL     1      -3.101  12.123  19.579  0.00  0.00    +0.000 A 
ATOM      9  C   UNL     1      -3.556  11.732  18.263  0.00  0.00    +0.000 A 
ATOM     10  O   UNL     1      -4.687  11.920  17.808  0.00  0.00    +0.000 OA
ENDROOT
BRANCH   1  12
ATOM     11  O   UNL     1      -2.600   9.469  15.650  0.00  0.00    +0.000 OA
ATOM     12  C   UNL     1      -2.812  10.613  16.026  0.00  0.00    +0.000 C 
BRANCH  12  13
ATOM     13  O   UNL     1      -3.300  11.558  15.192  0.00  0.00    +0.000 OA
ATOM     14  H   UNL     1      -3.718  11.209  14.368  0.00  0.00    +0.000 HD
ENDBRANCH  12  13
ENDBRANCH   1  12
BRANCH   3  15
ATOM     15  C   UNL     1       0.554  11.349  19.535  0.00  0.00    +0.000 C 
BRANCH  15  16
ATOM     16  C   UNL     1       1.256  10.046  19.207  0.00  0.00    +0.000 A 
ATOM     17  C   UNL     1       1.224   8.957  20.086  0.00  0.00    +0.000 A 
ATOM     18  C   UNL     1       1.782   7.719  19.721  0.00  0.00    +0.000 A 
ATOM     19  C   UNL     1       2.392   7.524  18.469  0.00  0.00    +0.000 A 
ATOM     20  C   UNL     1       2.442   8.638  17.614  0.00  0.00    +0.000 A 
ATOM     21  C   UNL     1       1.894   9.873  17.976  0.00  0.00    +0.000 A 
BRANCH  19  22
ATOM     22  C   UNL     1       2.931   6.209  18.037  0.00  0.00    +0.000 A 
ATOM     23  C   UNL     1       2.164   5.032  18.110  0.00  0.00    +0.000 A 
ATOM     24  C   UNL     1       2.663   3.804  17.655  0.00  0.00    +0.000 A 
ATOM     25  C   UNL     1       3.938   3.727  17.104  0.00  0.00    +0.000 A 
ATOM     26  C   UNL     1       4.720   4.872  17.023  0.00  0.00    +0.000 A 
ATOM     27  C   UNL     1       4.226   6.092  17.494  0.00  0.00    +0.000 A 
ENDBRANCH  19  22
ENDBRANCH  15  16
ENDBRANCH   3  15
TORSDOF 5
ENDMDL
MODEL 3
REMARK VINA RESULT:      -8.1      1.209      1.500
REMARK  Name = 
REMARK  5 active torsions:
REMARK  status: ('A' for Active; 'I' for Inactive)
REMARK    1  A    between atoms: C_2  and  O_3
REMARK    2  A    between atoms: C_2  and  C_4
REMARK    3  A    between atoms: N_6  and  C_7
REMARK    4  A    between atoms: C_7  and  C_8
REMARK    5  A    between atoms: C_11  and  C_12
REMARK                            x       y       z     vdW  Elec       q    Type
REMARK                         _______ _______ _______ _____ _____    ______ ____
ROOT
ATOM      1  C   UNL     1       6.096   6.251  17.974  0.00  0.00    +0.000 A 
ATOM      2  C   UNL     1       4.991   6.983  17.722  0.00  0.00    +0.000 A 
ATOM      3  N   UNL     1       3.658   6.551  17.861  0.00  0.00    +0.000 N 
ATOM      4  C   UNL     1       3.429   5.275  18.323  0.00  0.00    +0.000 A 
ATOM      5  C   UNL     1       2.198   4.598  18.540  0.00  0.00    +0.000 A 
ATOM      6  C   UNL     1       2.384   3.322  19.032  0.00  0.00    +0.000 A 
ATOM      7  S   UNL     1       4.043   2.928  19.189  0.00  0.00    +0.000 S 
ATOM      8  C   UNL     1       4.502   4.459  18.622  0.00  0.00    +0.000 A 
ATOM      9  C   UNL     1       5.882   4.858  18.453  0.00  0.00    +0.000 A 
ATOM     10  O   UNL     1       6.866   4.143  18.650  0.00  0.00    +0.000 OA
ENDROOT
BRANCH   1  12
ATOM     11  O   UNL     1       7.785   7.249  16.638  0.00  0.00    +0.000 OA
ATOM     12  C   UNL     1       7.427   6.834  17.732  0.00  0.00    +0.000 C 
BRANCH  12  13
ATOM     13  O   UNL     1       8.243   6.865  18.808  0.00  0.00    +0.000 OA
ATOM     14  H   UNL     1       9.125   6.441  18.673  0.00  0.00    +0.000 HD
ENDBRANCH  12  13
ENDBRANCH   1  12
BRANCH   3  15
ATOM     15  C   UNL     1       2.555   7.374  17.331  0.00  0.00    +0.000 C 
BRANCH  15  16
ATOM     16  C   UNL     1       2.001   8.373  18.328  0.00  0.00    +0.000 A 
ATOM     17  C   UNL     1       1.593   9.652  17.933  0.00  0.00    +0.000 A 
ATOM     18  C   UNL     1       0.978  10.526  18.845  0.00  0.00    +0.000 A 
ATOM     19  C   UNL     1       0.747  10.157  20.182  0.00  0.00    +0.000 A 
ATOM     20  C   UNL     1       1.191   8.881  20.567  0.00  0.00    +0.000 A 
ATOM     21  C   UNL     1       1.811   8.010  19.664  0.00  0.00    +0.000 A 
BRANCH  19  22
ATOM     22  C   UNL     1       0.041  11.039  21.146  0.00  0.00    +0.000 A 
ATOM     23  C   UNL     1      -0.733  10.519  22.199  0.00  0.00    +0.000 A 
ATOM     24  C   UNL     1      -1.356  11.358  23.133  0.00  0.00    +0.000 A 
ATOM     25  C   UNL     1      -1.209  12.739  23.043  0.00  0.00    +0.000 A 
ATOM     26  C   UNL     1      -0.453  13.281  22.011  0.00  0.00    +0.000 A 
ATOM     27  C   UNL     1       0.153  12.442  21.071  0.00  0.00    +0.000 A 
ENDBRANCH  19  22
ENDBRANCH  15  16
ENDBRANCH   3  15
TORSDOF 5
ENDMDL
MODEL 4
REMARK VINA RESULT:      -8.1      5.411      8.805
REMARK  Name = 
REMARK  5 active torsions:
REMARK  status: ('A' for Active; 'I' for Inactive)
REMARK    1  A    between atoms: C_2  and  O_3
REMARK    2  A    between atoms: C_2  and  C_4
REMARK    3  A    between atoms: N_6  and  C_7
REMARK    4  A    between atoms: C_7  and  C_8
REMARK    5  A    between atoms: C_11  and  C_12
REMARK                            x       y       z     vdW  Elec       q    Type
REMARK                         _______ _______ _______ _____ _____    ______ ____
ROOT
ATOM      1  C   UNL     1      -2.326  10.863  17.308  0.00  0.00    +0.000 A 
ATOM      2  C   UNL     1      -1.056  10.530  17.618  0.00  0.00    +0.000 A 
ATOM      3  N   UNL     1      -0.378  10.858  18.807  0.00  0.00    +0.000 N 
ATOM      4  C   UNL     1      -1.058  11.561  19.775  0.00  0.00    +0.000 A 
ATOM      5  C   UNL     1      -0.608  12.022  21.043  0.00  0.00    +0.000 A 
ATOM      6  C   UNL     1      -1.602  12.679  21.742  0.00  0.00    +0.000 A 
ATOM      7  S   UNL     1      -3.060  12.777  20.848  0.00  0.00    +0.000 S 
ATOM      8  C   UNL     1      -2.370  11.931  19.551  0.00  0.00    +0.000 A 
ATOM      9  C   UNL     1      -3.082  11.643  18.326  0.00  0.00    +0.000 A 
ATOM     10  O   UNL     1      -4.230  12.006  18.060  0.00  0.00    +0.000 OA
ENDROOT
BRANCH   1  12
ATOM     11  O   UNL     1      -2.939   9.326  15.607  0.00  0.00    +0.000 OA
ATOM     12  C   UNL     1      -2.879  10.483  15.996  0.00  0.00    +0.000 C 
BRANCH  12  13
ATOM     13  O   UNL     1      -3.305  11.515  15.234  0.00  0.00    +0.000 OA
ATOM     14  H   UNL     1      -2.733  12.320  15.267  0.00  0.00    +0.000 HD
ENDBRANCH  12  13
ENDBRANCH   1  12
BRANCH   3  15
ATOM     15  C   UNL     1       1.076  10.632  18.915  0.00  0.00    +0.000 C 
BRANCH  15  16
ATOM     16  C   UNL     1       1.458   9.178  19.104  0.00  0.00    +0.000 A 
ATOM     17  C   UNL     1       2.038   8.434  18.070  0.00  0.00    +0.000 A 
ATOM     18  C   UNL     1       2.489   7.121  18.292  0.00  0.00    +0.000 A 
ATOM     19  C   UNL     1       2.379   6.505  19.551  0.00  0.00    +0.000 A 
ATOM     20  C   UNL     1       1.767   7.257  20.567  0.00  0.00    +0.000 A 
ATOM     21  C   UNL     1       1.309   8.560  20.348  0.00  0.00    +0.000 A 
BRANCH  19  22
ATOM     22  C   UNL     1       2.907   5.144  19.825  0.00  0.00    +0.000 A 
ATOM     23  C   UNL     1       2.238   4.244  20.675  0.00  0.00    +0.000 A 
ATOM     24  C   UNL     1       2.717   2.945  20.890  0.00  0.00    +0.000 A 
ATOM     25  C   UNL     1       3.874   2.510  20.249  0.00  0.00    +0.000 A 
ATOM     26  C   UNL     1       4.559   3.378  19.408  0.00  0.00    +0.000 A 
ATOM     27  C   UNL     1       4.087   4.679  19.209  0.00  0.00    +0.000 A 
ENDBRANCH  19  22
ENDBRANCH  15  16
ENDBRANCH   3  15
TORSDOF 5
ENDMDL
MODEL 5
REMARK VINA RESULT:      -8.0      5.527      8.835
REMARK  Name = 
REMARK  5 active torsions:
REMARK  status: ('A' for Active; 'I' for Inactive)
REMARK    1  A    between atoms: C_2  and  O_3
REMARK    2  A    between atoms: C_2  and  C_4
REMARK    3  A    between atoms: N_6  and  C_7
REMARK    4  A    between atoms: C_7  and  C_8
REMARK    5  A    between atoms: C_11  and  C_12
REMARK                            x       y       z     vdW  Elec       q    Type
REMARK                         _______ _______ _______ _____ _____    ______ ____
ROOT
ATOM      1  C   UNL     1      -2.507  10.974  17.292  0.00  0.00    +0.000 A 
ATOM      2  C   UNL     1      -1.220  10.754  17.631  0.00  0.00    +0.000 A 
ATOM      3  N   UNL     1      -0.602  11.130  18.838  0.00  0.00    +0.000 N 
ATOM      4  C   UNL     1      -1.366  11.759  19.796  0.00  0.00    +0.000 A 
ATOM      5  C   UNL     1      -0.991  12.246  21.078  0.00  0.00    +0.000 A 
ATOM      6  C   UNL     1      -2.056  12.803  21.757  0.00  0.00    +0.000 A 
ATOM      7  S   UNL     1      -3.496  12.778  20.828  0.00  0.00    +0.000 S 
ATOM      8  C   UNL     1      -2.700  12.011  19.541  0.00  0.00    +0.000 A 
ATOM      9  C   UNL     1      -3.354  11.672  18.297  0.00  0.00    +0.000 A 
ATOM     10  O   UNL     1      -4.524  11.932  18.006  0.00  0.00    +0.000 OA
ENDROOT
BRANCH   1  12
ATOM     11  O   UNL     1      -2.976   9.399  15.580  0.00  0.00    +0.000 OA
ATOM     12  C   UNL     1      -2.991  10.560  15.964  0.00  0.00    +0.000 C 
BRANCH  12  13
ATOM     13  O   UNL     1      -3.444  11.563  15.180  0.00  0.00    +0.000 OA
ATOM     14  H   UNL     1      -3.921  12.282  15.660  0.00  0.00    +0.000 HD
ENDBRANCH  12  13
ENDBRANCH   1  12
BRANCH   3  15
ATOM     15  C   UNL     1       0.863  11.036  18.981  0.00  0.00    +0.000 C 
BRANCH  15  16
ATOM     16  C   UNL     1       1.360   9.637  19.290  0.00  0.00    +0.000 A 
ATOM     17  C   UNL     1       1.109   9.029  20.526  0.00  0.00    +0.000 A 
ATOM     18  C   UNL     1       1.477   7.693  20.759  0.00  0.00    +0.000 A 
ATOM     19  C   UNL     1       2.106   6.916  19.770  0.00  0.00    +0.000 A 
ATOM     20  C   UNL     1       2.377   7.554  18.547  0.00  0.00    +0.000 A 
ATOM     21  C   UNL     1       2.019   8.886  18.314  0.00  0.00    +0.000 A 
BRANCH  19  22
ATOM     22  C   UNL     1       2.445   5.484  19.971  0.00  0.00    +0.000 A 
ATOM     23  C   UNL     1       1.839   4.711  20.978  0.00  0.00    +0.000 A 
ATOM     24  C   UNL     1       2.128   3.349  21.131  0.00  0.00    +0.000 A 
ATOM     25  C   UNL     1       3.024   2.723  20.269  0.00  0.00    +0.000 A 
ATOM     26  C   UNL     1       3.642   3.461  19.268  0.00  0.00    +0.000 A 
ATOM     27  C   UNL     1       3.363   4.824  19.130  0.00  0.00    +0.000 A 
ENDBRANCH  19  22
ENDBRANCH  15  16
ENDBRANCH   3  15
TORSDOF 5
ENDMDL
MODEL 6
REMARK VINA RESULT:      -8.0      1.747      3.417
REMARK  Name = 
REMARK  5 active torsions:
REMARK  status: ('A' for Active; 'I' for Inactive)
REMARK    1  A    between atoms: C_2  and  O_3
REMARK    2  A    between atoms: C_2  and  C_4
REMARK    3  A    between atoms: N_6  and  C_7
REMARK    4  A    between atoms: C_7  and  C_8
REMARK    5  A    between atoms: C_11  and  C_12
REMARK                            x       y       z     vdW  Elec       q    Type
REMARK                         _______ _______ _______ _____ _____    ______ ____
ROOT
ATOM      1  C   UNL     1       3.365   4.033  18.520  0.00  0.00    +0.000 A 
ATOM      2  C   UNL     1       2.987   5.174  17.907  0.00  0.00    +0.000 A 
ATOM      3  N   UNL     1       3.834   6.230  17.521  0.00  0.00    +0.000 N 
ATOM      4  C   UNL     1       5.185   6.103  17.753  0.00  0.00    +0.000 A 
ATOM      5  C   UNL     1       6.240   7.014  17.475  0.00  0.00    +0.000 A 
ATOM      6  C   UNL     1       7.473   6.511  17.840  0.00  0.00    +0.000 A 
ATOM      7  S   UNL     1       7.349   4.961  18.559  0.00  0.00    +0.000 S 
ATOM      8  C   UNL     1       5.664   4.960  18.362  0.00  0.00    +0.000 A 
ATOM      9  C   UNL     1       4.817   3.875  18.805  0.00  0.00    +0.000 A 
ATOM     10  O   UNL     1       5.196   2.867  19.405  0.00  0.00    +0.000 OA
ENDROOT
BRANCH   1  12
ATOM     11  O   UNL     1       1.523   2.591  18.119  0.00  0.00    +0.000 OA
ATOM     12  C   UNL     1       2.346   3.041  18.904  0.00  0.00    +0.000 C 
BRANCH  12  13
ATOM     13  O   UNL     1       2.370   2.669  20.203  0.00  0.00    +0.000 OA
ATOM     14  H   UNL     1       2.216   3.401  20.848  0.00  0.00    +0.000 HD
ENDBRANCH  12  13
ENDBRANCH   1  12
BRANCH   3  15
ATOM     15  C   UNL     1       3.259   7.513  17.073  0.00  0.00    +0.000 C 
BRANCH  15  16
ATOM     16  C   UNL     1       2.331   8.155  18.085  0.00  0.00    +0.000 A 
ATOM     17  C   UNL     1       2.219   7.662  19.390  0.00  0.00    +0.000 A 
ATOM     18  C   UNL     1       1.442   8.333  20.350  0.00  0.00    +0.000 A 
ATOM     19  C   UNL     1       0.750   9.518  20.043  0.00  0.00    +0.000 A 
ATOM     20  C   UNL     1       0.851   9.980  18.720  0.00  0.00    +0.000 A 
ATOM     21  C   UNL     1       1.617   9.311  17.760  0.00  0.00    +0.000 A 
BRANCH  19  22
ATOM     22  C   UNL     1      -0.024  10.279  21.057  0.00  0.00    +0.000 A 
ATOM     23  C   UNL     1      -0.599  11.530  20.769  0.00  0.00    +0.000 A 
ATOM     24  C   UNL     1      -1.368  12.219  21.715  0.00  0.00    +0.000 A 
ATOM     25  C   UNL     1      -1.592  11.665  22.972  0.00  0.00    +0.000 A 
ATOM     26  C   UNL     1      -1.034  10.433  23.288  0.00  0.00    +0.000 A 
ATOM     27  C   UNL     1      -0.253   9.757  22.346  0.00  0.00    +0.000 A 
ENDBRANCH  19  22
ENDBRANCH  15  16
ENDBRANCH   3  15
TORSDOF 5
ENDMDL
MODEL 7
REMARK VINA RESULT:      -8.0      1.758      3.224
REMARK  Name = 
REMARK  5 active torsions:
REMARK  status: ('A' for Active; 'I' for Inactive)
REMARK    1  A    between atoms: C_2  and  O_3
REMARK    2  A    between atoms: C_2  and  C_4
REMARK    3  A    between atoms: N_6  and  C_7
REMARK    4  A    between atoms: C_7  and  C_8
REMARK    5  A    between atoms: C_11  and  C_12
REMARK                            x       y       z     vdW  Elec       q    Type
REMARK                         _______ _______ _______ _____ _____    ______ ____
ROOT
ATOM      1  C   UNL     1       3.203   4.192  18.891  0.00  0.00    +0.000 A 
ATOM      2  C   UNL     1       2.838   5.324  18.256  0.00  0.00    +0.000 A 
ATOM      3  N   UNL     1       3.706   6.283  17.700  0.00  0.00    +0.000 N 
ATOM      4  C   UNL     1       5.062   6.056  17.771  0.00  0.00    +0.000 A 
ATOM      5  C   UNL     1       6.140   6.859  17.307  0.00  0.00    +0.000 A 
ATOM      6  C   UNL     1       7.367   6.275  17.550  0.00  0.00    +0.000 A 
ATOM      7  S   UNL     1       7.218   4.783  18.378  0.00  0.00    +0.000 S 
ATOM      8  C   UNL     1       5.527   4.912  18.390  0.00  0.00    +0.000 A 
ATOM      9  C   UNL     1       4.664   3.928  19.004  0.00  0.00    +0.000 A 
ATOM     10  O   UNL     1       5.038   2.926  19.618  0.00  0.00    +0.000 OA
ENDROOT
BRANCH   1  12
ATOM     11  O   UNL     1       1.304   3.707  20.229  0.00  0.00    +0.000 OA
ATOM     12  C   UNL     1       2.169   3.310  19.461  0.00  0.00    +0.000 C 
BRANCH  12  13
ATOM     13  O   UNL     1       2.253   2.014  19.090  0.00  0.00    +0.000 OA
ATOM     14  H   UNL     1       2.653   1.862  18.200  0.00  0.00    +0.000 HD
ENDBRANCH  12  13
ENDBRANCH   1  12
BRANCH   3  15
ATOM     15  C   UNL     1       3.178   7.583  17.244  0.00  0.00    +0.000 C 
BRANCH  15  16
ATOM     16  C   UNL     1       2.195   8.217  18.208  0.00  0.00    +0.000 A 
ATOM     17  C   UNL     1       2.165   7.862  19.561  0.00  0.00    +0.000 A 
ATOM     18  C   UNL     1       1.328   8.537  20.465  0.00  0.00    +0.000 A 
ATOM     19  C   UNL     1       0.491   9.589  20.053  0.00  0.00    +0.000 A 
ATOM     20  C   UNL     1       0.512   9.910  18.685  0.00  0.00    +0.000 A 
ATOM     21  C   UNL     1       1.340   9.236  17.781  0.00  0.00    +0.000 A 
BRANCH  19  22
ATOM     22  C   UNL     1      -0.354  10.359  21.002  0.00  0.00    +0.000 A 
ATOM     23  C   UNL     1      -0.443  10.018  22.364  0.00  0.00    +0.000 A 
ATOM     24  C   UNL     1      -1.204  10.779  23.261  0.00  0.00    +0.000 A 
ATOM     25  C   UNL     1      -1.887  11.908  22.819  0.00  0.00    +0.000 A 
ATOM     26  C   UNL     1      -1.822  12.266  21.478  0.00  0.00    +0.000 A 
ATOM     27  C   UNL     1      -1.075  11.495  20.583  0.00  0.00    +0.000 A 
ENDBRANCH  19  22
ENDBRANCH  15  16
ENDBRANCH   3  15
TORSDOF 5
ENDMDL
MODEL 8
REMARK VINA RESULT:      -7.9      1.406      1.899
REMARK  Name = 
REMARK  5 active torsions:
REMARK  status: ('A' for Active; 'I' for Inactive)
REMARK    1  A    between atoms: C_2  and  O_3
REMARK    2  A    between atoms: C_2  and  C_4
REMARK    3  A    between atoms: N_6  and  C_7
REMARK    4  A    between atoms: C_7  and  C_8
REMARK    5  A    between atoms: C_11  and  C_12
REMARK                            x       y       z     vdW  Elec       q    Type
REMARK                         _______ _______ _______ _____ _____    ______ ____
ROOT
ATOM      1  C   UNL     1       5.918   6.300  17.640  0.00  0.00    +0.000 A 
ATOM      2  C   UNL     1       4.730   6.929  17.522  0.00  0.00    +0.000 A 
ATOM      3  N   UNL     1       3.487   6.449  17.976  0.00  0.00    +0.000 N 
ATOM      4  C   UNL     1       3.453   5.239  18.632  0.00  0.00    +0.000 A 
ATOM      5  C   UNL     1       2.343   4.532  19.172  0.00  0.00    +0.000 A 
ATOM      6  C   UNL     1       2.722   3.350  19.775  0.00  0.00    +0.000 A 
ATOM      7  S   UNL     1       4.407   3.072  19.649  0.00  0.00    +0.000 S 
ATOM      8  C   UNL     1       4.626   4.532  18.813  0.00  0.00    +0.000 A 
ATOM      9  C   UNL     1       5.911   4.979  18.325  0.00  0.00    +0.000 A 
ATOM     10  O   UNL     1       6.970   4.352  18.411  0.00  0.00    +0.000 OA
ENDROOT
BRANCH   1  12
ATOM     11  O   UNL     1       7.569   7.993  17.441  0.00  0.00    +0.000 OA
ATOM     12  C   UNL     1       7.128   6.916  17.068  0.00  0.00    +0.000 C 
BRANCH  12  13
ATOM     13  O   UNL     1       7.715   6.210  16.076  0.00  0.00    +0.000 OA
ATOM     14  H   UNL     1       7.206   5.420  15.771  0.00  0.00    +0.000 HD
ENDBRANCH  12  13
ENDBRANCH   1  12
BRANCH   3  15
ATOM     15  C   UNL     1       2.240   7.128  17.575  0.00  0.00    +0.000 C 
BRANCH  15  16
ATOM     16  C   UNL     1       1.821   8.242  18.514  0.00  0.00    +0.000 A 
ATOM     17  C   UNL     1       1.511   9.521  18.038  0.00  0.00    +0.000 A 
ATOM     18  C   UNL     1       1.016  10.512  18.904  0.00  0.00    +0.000 A 
ATOM     19  C   UNL     1       0.812  10.262  20.272  0.00  0.00    +0.000 A 
ATOM     20  C   UNL     1       1.158   8.982  20.736  0.00  0.00    +0.000 A 
ATOM     21  C   UNL     1       1.658   7.996  19.879  0.00  0.00    +0.000 A 
BRANCH  19  22
ATOM     22  C   UNL     1       0.229  11.273  21.192  0.00  0.00    +0.000 A 
ATOM     23  C   UNL     1       0.512  12.645  21.064  0.00  0.00    +0.000 A 
ATOM     24  C   UNL     1      -0.080  13.596  21.906  0.00  0.00    +0.000 A 
ATOM     25  C   UNL     1      -0.979  13.198  22.890  0.00  0.00    +0.000 A 
ATOM     26  C   UNL     1      -1.275  11.849  23.043  0.00  0.00    +0.000 A 
ATOM     27  C   UNL     1      -0.669  10.901  22.213  0.00  0.00    +0.000 A 
ENDBRANCH  19  22
ENDBRANCH  15  16
ENDBRANCH   3  15
TORSDOF 5
ENDMDL
MODEL 9
REMARK VINA RESULT:      -7.9      1.738      3.139
REMARK  Name = 
REMARK  5 active torsions:
REMARK  status: ('A' for Active; 'I' for Inactive)
REMARK    1  A    between atoms: C_2  and  O_3
REMARK    2  A    between atoms: C_2  and  C_4
REMARK    3  A    between atoms: N_6  and  C_7
REMARK    4  A    between atoms: C_7  and  C_8
REMARK    5  A    between atoms: C_11  and  C_12
REMARK                            x       y       z     vdW  Elec       q    Type
REMARK                         _______ _______ _______ _____ _____    ______ ____
ROOT
ATOM      1  C   UNL     1       3.357   4.048  18.626  0.00  0.00    +0.000 A 
ATOM      2  C   UNL     1       2.961   5.152  17.959  0.00  0.00    +0.000 A 
ATOM      3  N   UNL     1       3.792   6.197  17.514  0.00  0.00    +0.000 N 
ATOM      4  C   UNL     1       5.146   6.098  17.741  0.00  0.00    +0.000 A 
ATOM      5  C   UNL     1       6.189   7.006  17.409  0.00  0.00    +0.000 A 
ATOM      6  C   UNL     1       7.430   6.536  17.790  0.00  0.00    +0.000 A 
ATOM      7  S   UNL     1       7.330   5.023  18.586  0.00  0.00    +0.000 S 
ATOM      8  C   UNL     1       5.644   4.992  18.403  0.00  0.00    +0.000 A 
ATOM      9  C   UNL     1       4.813   3.922  18.907  0.00  0.00    +0.000 A 
ATOM     10  O   UNL     1       5.209   2.949  19.554  0.00  0.00    +0.000 OA
ENDROOT
BRANCH   1  12
ATOM     11  O   UNL     1       1.340   2.813  18.431  0.00  0.00    +0.000 OA
ATOM     12  C   UNL     1       2.353   3.064  19.068  0.00  0.00    +0.000 C 
BRANCH  12  13
ATOM     13  O   UNL     1       2.621   2.463  20.248  0.00  0.00    +0.000 OA
ATOM     14  H   UNL     1       2.323   2.963  21.046  0.00  0.00    +0.000 HD
ENDBRANCH  12  13
ENDBRANCH   1  12
BRANCH   3  15
ATOM     15  C   UNL     1       3.199   7.449  17.007  0.00  0.00    +0.000 C 
BRANCH  15  16
ATOM     16  C   UNL     1       2.472   8.255  18.065  0.00  0.00    +0.000 A 
ATOM     17  C   UNL     1       1.919   9.508  17.778  0.00  0.00    +0.000 A 
ATOM     18  C   UNL     1       1.151  10.193  18.735  0.00  0.00    +0.000 A 
ATOM     19  C   UNL     1       0.908   9.655  20.011  0.00  0.00    +0.000 A 
ATOM     20  C   UNL     1       1.497   8.410  20.291  0.00  0.00    +0.000 A 
ATOM     21  C   UNL     1       2.268   7.728  19.343  0.00  0.00    +0.000 A 
BRANCH  19  22
ATOM     22  C   UNL     1       0.047  10.331  21.015  0.00  0.00    +0.000 A 
ATOM     23  C   UNL     1      -0.276   9.727  22.244  0.00  0.00    +0.000 A 
ATOM     24  C   UNL     1      -1.049  10.391  23.206  0.00  0.00    +0.000 A 
ATOM     25  C   UNL     1      -1.507  11.683  22.966  0.00  0.00    +0.000 A 
ATOM     26  C   UNL     1      -1.208  12.303  21.760  0.00  0.00    +0.000 A 
ATOM     27  C   UNL     1      -0.451  11.630  20.795  0.00  0.00    +0.000 A 
ENDBRANCH  19  22
ENDBRANCH  15  16
ENDBRANCH   3  15
TORSDOF 5
ENDMDL
