MODEL 1
REMARK VINA RESULT:      -7.1      0.000      0.000
REMARK  Name = 
REMARK  9 active torsions:
REMARK  status: ('A' for Active; 'I' for Inactive)
REMARK    1  A    between atoms: C_1  and  O_2
REMARK    2  A    between atoms: O_2  and  N_3
REMARK    3  A    between atoms: C_4  and  C_5
REMARK    4  A    between atoms: C_4  and  C_26
REMARK    5  A    between atoms: N_7  and  C_8
REMARK    6  A    between atoms: C_12  and  C_13
REMARK    7  A    between atoms: C_13  and  C_15
REMARK    8  A    between atoms: C_19  and  C_20
REMARK    9  A    between atoms: C_20  and  O_22
REMARK                            x       y       z     vdW  Elec       q    Type
REMARK                         _______ _______ _______ _____ _____    ______ ____
ROOT
ATOM      1  C   UNL     1       1.792   7.497  18.904  0.00  0.00    +0.000 C 
ATOM      2  C   UNL     1       2.215   7.744  17.435  0.00  0.00    +0.000 C 
ATOM      3  N   UNL     1       3.649   7.508  17.469  0.00  0.00    +0.000 NA
ATOM      4  C   UNL     1       4.358   7.050  16.289  0.00  0.00    +0.000 C 
ATOM      5  C   UNL     1       5.382   6.128  16.902  0.00  0.00    +0.000 C 
ATOM      6  C   UNL     1       5.020   5.832  18.174  0.00  0.00    +0.000 C 
ATOM      7  N   UNL     1       3.874   6.551  18.452  0.00  0.00    +0.000 N 
ATOM      8  C   UNL     1       2.829   6.462  19.369  0.00  0.00    +0.000 C 
ATOM      9  O   UNL     1       2.702   5.781  20.371  0.00  0.00    +0.000 OA
ENDROOT
BRANCH   1  12
ATOM     10  C   UNL     1       0.957   9.714  19.649  0.00  0.00    +0.000 C 
ATOM     11  O   UNL     1       0.101   9.710  18.769  0.00  0.00    +0.000 OA
ATOM     12  N   UNL     1       1.846   8.667  19.771  0.00  0.00    +0.000 N 
ATOM     13  H   UNL     1       2.439   8.635  20.605  0.00  0.00    +0.000 HD
BRANCH  10  15
ATOM     14  N   UNL     1       0.960  10.757  21.963  0.00  0.00    +0.000 NA
ATOM     15  C   UNL     1       1.119  10.885  20.672  0.00  0.00    +0.000 C 
BRANCH  15  16
ATOM     16  C   UNL     1       1.447  12.250  20.224  0.00  0.00    +0.000 A 
ATOM     17  C   UNL     1       1.047  13.409  20.870  0.00  0.00    +0.000 A 
ATOM     18  S   UNL     1       1.602  14.791  20.024  0.00  0.00    +0.000 S 
ATOM     19  C   UNL     1       2.314  13.772  18.843  0.00  0.00    +0.000 A 
ATOM     20  N   UNL     1       2.932  14.271  17.768  0.00  0.00    +0.000 N 
ATOM     21  N   UNL     1       2.193  12.488  19.066  0.00  0.00    +0.000 NA
ATOM     22  H   UNL     1       3.163  15.255  17.709  0.00  0.00    +0.000 HD
ATOM     23  H   UNL     1       3.479  13.652  17.178  0.00  0.00    +0.000 HD
ENDBRANCH  15  16
BRANCH  14  25
ATOM     24  C   UNL     1      -0.582   9.509  23.116  0.00  0.00    +0.000 C 
ATOM     25  O   UNL     1       0.618   9.463  22.358  0.00  0.00    +0.000 OA
ENDBRANCH  14  25
ENDBRANCH  10  15
ENDBRANCH   1  12
BRANCH   5  26
ATOM     26  C   UNL     1       6.597   5.740  16.141  0.00  0.00    +0.000 C 
ATOM     27  O   UNL     1       7.665   6.279  16.458  0.00  0.00    +0.000 OA
BRANCH  26  28
ATOM     28  C   UNL     1       6.502   4.709  15.009  0.00  0.00    +0.000 C 
ATOM     29  F   UNL     1       7.453   4.851  14.049  0.00  0.00    +0.000 F 
ATOM     30  F   UNL     1       6.620   3.436  15.473  0.00  0.00    +0.000 F 
ATOM     31  F   UNL     1       5.306   4.779  14.363  0.00  0.00    +0.000 F 
ENDBRANCH  26  28
ENDBRANCH   5  26
BRANCH   6  32
ATOM     32  C   UNL     1       5.640   4.951  19.214  0.00  0.00    +0.000 C 
ATOM     33  O   UNL     1       6.636   5.255  19.849  0.00  0.00    +0.000 OA
BRANCH  32  34
ATOM     34  O   UNL     1       5.044   3.765  19.446  0.00  0.00    +0.000 OA
ATOM     35  H   UNL     1       4.350   3.475  18.814  0.00  0.00    +0.000 HD
ENDBRANCH  32  34
ENDBRANCH   6  32
TORSDOF 8
ENDMDL
MODEL 2
REMARK VINA RESULT:      -7.0      0.929      1.177
REMARK  Name = 
REMARK  9 active torsions:
REMARK  status: ('A' for Active; 'I' for Inactive)
REMARK    1  A    between atoms: C_1  and  O_2
REMARK    2  A    between atoms: O_2  and  N_3
REMARK    3  A    between atoms: C_4  and  C_5
REMARK    4  A    between atoms: C_4  and  C_26
REMARK    5  A    between atoms: N_7  and  C_8
REMARK    6  A    between atoms: C_12  and  C_13
REMARK    7  A    between atoms: C_13  and  C_15
REMARK    8  A    between atoms: C_19  and  C_20
REMARK    9  A    between atoms: C_20  and  O_22
REMARK                            x       y       z     vdW  Elec       q    Type
REMARK                         _______ _______ _______ _____ _____    ______ ____
ROOT
ATOM      1  C   UNL     1       1.680   7.726  18.787  0.00  0.00    +0.000 C 
ATOM      2  C   UNL     1       2.177   7.952  17.338  0.00  0.00    +0.000 C 
ATOM      3  N   UNL     1       3.595   7.647  17.435  0.00  0.00    +0.000 NA
ATOM      4  C   UNL     1       4.332   7.156  16.286  0.00  0.00    +0.000 C 
ATOM      5  C   UNL     1       5.282   6.186  16.940  0.00  0.00    +0.000 C 
ATOM      6  C   UNL     1       4.852   5.906  18.195  0.00  0.00    +0.000 C 
ATOM      7  N   UNL     1       3.731   6.680  18.424  0.00  0.00    +0.000 N 
ATOM      8  C   UNL     1       2.644   6.641  19.295  0.00  0.00    +0.000 C 
ATOM      9  O   UNL     1       2.441   5.967  20.289  0.00  0.00    +0.000 OA
ENDROOT
BRANCH   1  12
ATOM     10  C   UNL     1       0.810   9.897  19.621  0.00  0.00    +0.000 C 
ATOM     11  O   UNL     1      -0.115   9.859  18.815  0.00  0.00    +0.000 OA
ATOM     12  N   UNL     1       1.752   8.891  19.659  0.00  0.00    +0.000 N 
ATOM     13  H   UNL     1       2.413   8.881  20.440  0.00  0.00    +0.000 HD
BRANCH  10  15
ATOM     14  N   UNL     1       1.075  10.908  21.935  0.00  0.00    +0.000 NA
ATOM     15  C   UNL     1       1.003  11.068  20.639  0.00  0.00    +0.000 C 
BRANCH  15  16
ATOM     16  C   UNL     1       1.092  12.467  20.185  0.00  0.00    +0.000 A 
ATOM     17  C   UNL     1       2.193  13.288  20.374  0.00  0.00    +0.000 A 
ATOM     18  S   UNL     1       1.896  14.847  19.730  0.00  0.00    +0.000 S 
ATOM     19  C   UNL     1       0.323  14.348  19.266  0.00  0.00    +0.000 A 
ATOM     20  N   UNL     1      -0.540  15.193  18.694  0.00  0.00    +0.000 N 
ATOM     21  N   UNL     1       0.033  13.098  19.527  0.00  0.00    +0.000 NA
ATOM     22  H   UNL     1      -0.235  16.094  18.347  0.00  0.00    +0.000 HD
ATOM     23  H   UNL     1      -1.396  14.830  18.287  0.00  0.00    +0.000 HD
ENDBRANCH  15  16
BRANCH  14  25
ATOM     24  C   UNL     1      -0.148   9.460  23.227  0.00  0.00    +0.000 C 
ATOM     25  O   UNL     1       0.955   9.578  22.341  0.00  0.00    +0.000 OA
ENDBRANCH  14  25
ENDBRANCH  10  15
ENDBRANCH   1  12
BRANCH   5  26
ATOM     26  C   UNL     1       6.509   5.739  16.232  0.00  0.00    +0.000 C 
ATOM     27  O   UNL     1       7.573   6.304  16.521  0.00  0.00    +0.000 OA
BRANCH  26  28
ATOM     28  C   UNL     1       6.432   4.621  15.185  0.00  0.00    +0.000 C 
ATOM     29  F   UNL     1       6.283   3.377  15.713  0.00  0.00    +0.000 F 
ATOM     30  F   UNL     1       5.387   4.796  14.332  0.00  0.00    +0.000 F 
ATOM     31  F   UNL     1       7.555   4.569  14.419  0.00  0.00    +0.000 F 
ENDBRANCH  26  28
ENDBRANCH   5  26
BRANCH   6  32
ATOM     32  C   UNL     1       5.383   4.997  19.258  0.00  0.00    +0.000 C 
ATOM     33  O   UNL     1       6.437   5.185  19.843  0.00  0.00    +0.000 OA
BRANCH  32  34
ATOM     34  O   UNL     1       4.635   3.921  19.573  0.00  0.00    +0.000 OA
ATOM     35  H   UNL     1       4.232   3.895  20.467  0.00  0.00    +0.000 HD
ENDBRANCH  32  34
ENDBRANCH   6  32
TORSDOF 8
ENDMDL
MODEL 3
REMARK VINA RESULT:      -6.9      0.913      1.313
REMARK  Name = 
REMARK  9 active torsions:
REMARK  status: ('A' for Active; 'I' for Inactive)
REMARK    1  A    between atoms: C_1  and  O_2
REMARK    2  A    between atoms: O_2  and  N_3
REMARK    3  A    between atoms: C_4  and  C_5
REMARK    4  A    between atoms: C_4  and  C_26
REMARK    5  A    between atoms: N_7  and  C_8
REMARK    6  A    between atoms: C_12  and  C_13
REMARK    7  A    between atoms: C_13  and  C_15
REMARK    8  A    between atoms: C_19  and  C_20
REMARK    9  A    between atoms: C_20  and  O_22
REMARK                            x       y       z     vdW  Elec       q    Type
REMARK                         _______ _______ _______ _____ _____    ______ ____
ROOT
ATOM      1  C   UNL     1       1.790   7.505  18.865  0.00  0.00    +0.000 C 
ATOM      2  C   UNL     1       2.239   7.775  17.408  0.00  0.00    +0.000 C 
ATOM      3  N   UNL     1       3.669   7.517  17.461  0.00  0.00    +0.000 NA
ATOM      4  C   UNL     1       4.390   7.072  16.283  0.00  0.00    +0.000 C 
ATOM      5  C   UNL     1       5.390   6.123  16.893  0.00  0.00    +0.000 C 
ATOM      6  C   UNL     1       5.004   5.806  18.153  0.00  0.00    +0.000 C 
ATOM      7  N   UNL     1       3.865   6.538  18.427  0.00  0.00    +0.000 N 
ATOM      8  C   UNL     1       2.804   6.445  19.326  0.00  0.00    +0.000 C 
ATOM      9  O   UNL     1       2.651   5.747  20.312  0.00  0.00    +0.000 OA
ENDROOT
BRANCH   1  12
ATOM     10  C   UNL     1       0.993   9.731  19.626  0.00  0.00    +0.000 C 
ATOM     11  O   UNL     1       0.167   9.768  18.718  0.00  0.00    +0.000 OA
ATOM     12  N   UNL     1       1.847   8.656  19.757  0.00  0.00    +0.000 N 
ATOM     13  H   UNL     1       2.410   8.592  20.609  0.00  0.00    +0.000 HD
BRANCH  10  15
ATOM     14  N   UNL     1       0.844  10.760  21.942  0.00  0.00    +0.000 NA
ATOM     15  C   UNL     1       1.153  10.877  20.676  0.00  0.00    +0.000 C 
BRANCH  15  16
ATOM     16  C   UNL     1       1.653  12.206  20.285  0.00  0.00    +0.000 A 
ATOM     17  C   UNL     1       1.898  12.603  18.980  0.00  0.00    +0.000 A 
ATOM     18  S   UNL     1       2.499  14.207  18.942  0.00  0.00    +0.000 S 
ATOM     19  C   UNL     1       2.422  14.267  20.654  0.00  0.00    +0.000 A 
ATOM     20  N   UNL     1       2.837  15.339  21.336  0.00  0.00    +0.000 N 
ATOM     21  N   UNL     1       1.947  13.192  21.231  0.00  0.00    +0.000 NA
ATOM     22  H   UNL     1       3.034  16.213  20.866  0.00  0.00    +0.000 HD
ATOM     23  H   UNL     1       2.630  15.407  22.328  0.00  0.00    +0.000 HD
ENDBRANCH  15  16
BRANCH  14  25
ATOM     24  C   UNL     1      -0.590   9.643  23.342  0.00  0.00    +0.000 C 
ATOM     25  O   UNL     1       0.342   9.502  22.280  0.00  0.00    +0.000 OA
ENDBRANCH  14  25
ENDBRANCH  10  15
ENDBRANCH   1  12
BRANCH   5  26
ATOM     26  C   UNL     1       6.611   5.732  16.143  0.00  0.00    +0.000 C 
ATOM     27  O   UNL     1       7.671   6.299  16.442  0.00  0.00    +0.000 OA
BRANCH  26  28
ATOM     28  C   UNL     1       6.533   4.665  15.043  0.00  0.00    +0.000 C 
ATOM     29  F   UNL     1       5.409   4.736  14.282  0.00  0.00    +0.000 F 
ATOM     30  F   UNL     1       7.580   4.750  14.180  0.00  0.00    +0.000 F 
ATOM     31  F   UNL     1       6.555   3.407  15.560  0.00  0.00    +0.000 F 
ENDBRANCH  26  28
ENDBRANCH   5  26
BRANCH   6  32
ATOM     32  C   UNL     1       5.594   4.896  19.184  0.00  0.00    +0.000 C 
ATOM     33  O   UNL     1       5.169   3.777  19.418  0.00  0.00    +0.000 OA
BRANCH  32  34
ATOM     34  O   UNL     1       6.654   5.359  19.875  0.00  0.00    +0.000 OA
ATOM     35  H   UNL     1       6.477   5.801  20.733  0.00  0.00    +0.000 HD
ENDBRANCH  32  34
ENDBRANCH   6  32
TORSDOF 8
ENDMDL
MODEL 4
REMARK VINA RESULT:      -6.8      5.093      8.688
REMARK  Name = 
REMARK  9 active torsions:
REMARK  status: ('A' for Active; 'I' for Inactive)
REMARK    1  A    between atoms: C_1  and  O_2
REMARK    2  A    between atoms: O_2  and  N_3
REMARK    3  A    between atoms: C_4  and  C_5
REMARK    4  A    between atoms: C_4  and  C_26
REMARK    5  A    between atoms: N_7  and  C_8
REMARK    6  A    between atoms: C_12  and  C_13
REMARK    7  A    between atoms: C_13  and  C_15
REMARK    8  A    between atoms: C_19  and  C_20
REMARK    9  A    between atoms: C_20  and  O_22
REMARK                            x       y       z     vdW  Elec       q    Type
REMARK                         _______ _______ _______ _____ _____    ______ ____
ROOT
ATOM      1  C   UNL     1       2.648   5.597  18.463  0.00  0.00    +0.000 C 
ATOM      2  C   UNL     1       2.448   5.629  19.998  0.00  0.00    +0.000 C 
ATOM      3  N   UNL     1       2.457   7.052  20.293  0.00  0.00    +0.000 NA
ATOM      4  C   UNL     1       1.743   7.580  21.440  0.00  0.00    +0.000 C 
ATOM      5  C   UNL     1       1.247   8.895  20.896  0.00  0.00    +0.000 C 
ATOM      6  C   UNL     1       1.343   8.892  19.544  0.00  0.00    +0.000 C 
ATOM      7  N   UNL     1       1.932   7.696  19.179  0.00  0.00    +0.000 N 
ATOM      8  C   UNL     1       1.998   6.920  18.024  0.00  0.00    +0.000 C 
ATOM      9  O   UNL     1       1.683   7.170  16.875  0.00  0.00    +0.000 OA
ENDROOT
BRANCH   1  12
ATOM     10  C   UNL     1       4.599   4.434  17.459  0.00  0.00    +0.000 C 
ATOM     11  O   UNL     1       3.951   3.397  17.351  0.00  0.00    +0.000 OA
ATOM     12  N   UNL     1       4.034   5.562  18.017  0.00  0.00    +0.000 N 
ATOM     13  H   UNL     1       4.552   6.442  17.948  0.00  0.00    +0.000 HD
BRANCH  10  15
ATOM     14  N   UNL     1       7.099   4.688  17.817  0.00  0.00    +0.000 NA
ATOM     15  C   UNL     1       6.088   4.558  16.999  0.00  0.00    +0.000 C 
BRANCH  15  16
ATOM     16  C   UNL     1       6.447   4.560  15.570  0.00  0.00    +0.000 A 
ATOM     17  C   UNL     1       5.890   3.722  14.616  0.00  0.00    +0.000 A 
ATOM     18  S   UNL     1       6.592   4.011  13.080  0.00  0.00    +0.000 S 
ATOM     19  C   UNL     1       7.605   5.206  13.776  0.00  0.00    +0.000 A 
ATOM     20  N   UNL     1       8.523   5.854  13.053  0.00  0.00    +0.000 N 
ATOM     21  N   UNL     1       7.422   5.419  15.055  0.00  0.00    +0.000 NA
ATOM     22  H   UNL     1       8.525   5.798  12.042  0.00  0.00    +0.000 HD
ATOM     23  H   UNL     1       8.991   6.662  13.452  0.00  0.00    +0.000 HD
ENDBRANCH  15  16
BRANCH  14  25
ATOM     24  C   UNL     1       7.487   5.712  19.833  0.00  0.00    +0.000 C 
ATOM     25  O   UNL     1       6.729   4.716  19.163  0.00  0.00    +0.000 OA
ENDBRANCH  14  25
ENDBRANCH  10  15
ENDBRANCH   1  12
BRANCH   5  26
ATOM     26  C   UNL     1       0.814   9.977  21.818  0.00  0.00    +0.000 C 
ATOM     27  O   UNL     1       1.322  11.096  21.663  0.00  0.00    +0.000 OA
BRANCH  26  28
ATOM     28  C   UNL     1      -0.222   9.689  22.912  0.00  0.00    +0.000 C 
ATOM     29  F   UNL     1      -1.043   8.642  22.636  0.00  0.00    +0.000 F 
ATOM     30  F   UNL     1       0.366   9.404  24.104  0.00  0.00    +0.000 F 
ATOM     31  F   UNL     1      -1.038  10.757  23.125  0.00  0.00    +0.000 F 
ENDBRANCH  26  28
ENDBRANCH   5  26
BRANCH   6  32
ATOM     32  C   UNL     1       0.968   9.905  18.508  0.00  0.00    +0.000 C 
ATOM     33  O   UNL     1      -0.110  10.476  18.483  0.00  0.00    +0.000 OA
BRANCH  32  34
ATOM     34  O   UNL     1       1.888  10.187  17.565  0.00  0.00    +0.000 OA
ATOM     35  H   UNL     1       2.471  10.962  17.719  0.00  0.00    +0.000 HD
ENDBRANCH  32  34
ENDBRANCH   6  32
TORSDOF 8
ENDMDL
MODEL 5
REMARK VINA RESULT:      -6.8      3.979      5.362
REMARK  Name = 
REMARK  9 active torsions:
REMARK  status: ('A' for Active; 'I' for Inactive)
REMARK    1  A    between atoms: C_1  and  O_2
REMARK    2  A    between atoms: O_2  and  N_3
REMARK    3  A    between atoms: C_4  and  C_5
REMARK    4  A    between atoms: C_4  and  C_26
REMARK    5  A    between atoms: N_7  and  C_8
REMARK    6  A    between atoms: C_12  and  C_13
REMARK    7  A    between atoms: C_13  and  C_15
REMARK    8  A    between atoms: C_19  and  C_20
REMARK    9  A    between atoms: C_20  and  O_22
REMARK                            x       y       z     vdW  Elec       q    Type
REMARK                         _______ _______ _______ _____ _____    ______ ____
ROOT
ATOM      1  C   UNL     1       0.400  10.555  21.306  0.00  0.00    +0.000 C 
ATOM      2  C   UNL     1       0.606   9.246  22.107  0.00  0.00    +0.000 C 
ATOM      3  N   UNL     1       0.759   8.250  21.061  0.00  0.00    +0.000 NA
ATOM      4  C   UNL     1       1.532   7.043  21.287  0.00  0.00    +0.000 C 
ATOM      5  C   UNL     1       2.172   6.848  19.936  0.00  0.00    +0.000 C 
ATOM      6  C   UNL     1       2.072   7.992  19.217  0.00  0.00    +0.000 C 
ATOM      7  N   UNL     1       1.351   8.892  19.979  0.00  0.00    +0.000 N 
ATOM      8  C   UNL     1       1.194  10.275  20.019  0.00  0.00    +0.000 C 
ATOM      9  O   UNL     1       1.532  11.141  19.232  0.00  0.00    +0.000 OA
ENDROOT
BRANCH   1  12
ATOM     10  C   UNL     1      -1.445  12.163  20.883  0.00  0.00    +0.000 C 
ATOM     11  O   UNL     1      -0.702  13.110  21.125  0.00  0.00    +0.000 OA
ATOM     12  N   UNL     1      -0.983  10.866  20.969  0.00  0.00    +0.000 N 
ATOM     13  H   UNL     1      -1.584  10.118  20.612  0.00  0.00    +0.000 HD
BRANCH  10  15
ATOM     14  N   UNL     1      -3.881  12.741  21.300  0.00  0.00    +0.000 NA
ATOM     15  C   UNL     1      -2.945  12.340  20.480  0.00  0.00    +0.000 C 
BRANCH  15  16
ATOM     16  C   UNL     1      -3.410  12.033  19.116  0.00  0.00    +0.000 A 
ATOM     17  C   UNL     1      -4.741  11.949  18.738  0.00  0.00    +0.000 A 
ATOM     18  S   UNL     1      -4.870  11.543  17.078  0.00  0.00    +0.000 S 
ATOM     19  C   UNL     1      -3.160  11.478  16.970  0.00  0.00    +0.000 A 
ATOM     20  N   UNL     1      -2.543  11.132  15.837  0.00  0.00    +0.000 N 
ATOM     21  N   UNL     1      -2.518  11.774  18.072  0.00  0.00    +0.000 NA
ATOM     22  H   UNL     1      -3.049  11.079  14.962  0.00  0.00    +0.000 HD
ATOM     23  H   UNL     1      -1.538  11.259  15.759  0.00  0.00    +0.000 HD
ENDBRANCH  15  16
BRANCH  14  25
ATOM     24  C   UNL     1      -3.689  14.349  22.925  0.00  0.00    +0.000 C 
ATOM     25  O   UNL     1      -3.421  12.995  22.593  0.00  0.00    +0.000 OA
ENDBRANCH  14  25
ENDBRANCH  10  15
ENDBRANCH   1  12
BRANCH   5  26
ATOM     26  C   UNL     1       2.727   5.525  19.550  0.00  0.00    +0.000 C 
ATOM     27  O   UNL     1       3.926   5.320  19.782  0.00  0.00    +0.000 OA
BRANCH  26  28
ATOM     28  C   UNL     1       1.826   4.473  18.890  0.00  0.00    +0.000 C 
ATOM     29  F   UNL     1       2.449   3.292  18.635  0.00  0.00    +0.000 F 
ATOM     30  F   UNL     1       0.748   4.173  19.663  0.00  0.00    +0.000 F 
ATOM     31  F   UNL     1       1.341   4.905  17.694  0.00  0.00    +0.000 F 
ENDBRANCH  26  28
ENDBRANCH   5  26
BRANCH   6  32
ATOM     32  C   UNL     1       2.558   8.366  17.852  0.00  0.00    +0.000 C 
ATOM     33  O   UNL     1       3.528   7.854  17.317  0.00  0.00    +0.000 OA
BRANCH  32  34
ATOM     34  O   UNL     1       1.866   9.318  17.195  0.00  0.00    +0.000 OA
ATOM     35  H   UNL     1       2.228   9.629  16.337  0.00  0.00    +0.000 HD
ENDBRANCH  32  34
ENDBRANCH   6  32
TORSDOF 8
ENDMDL
MODEL 6
REMARK VINA RESULT:      -6.7      3.902      5.800
REMARK  Name = 
REMARK  9 active torsions:
REMARK  status: ('A' for Active; 'I' for Inactive)
REMARK    1  A    between atoms: C_1  and  O_2
REMARK    2  A    between atoms: O_2  and  N_3
REMARK    3  A    between atoms: C_4  and  C_5
REMARK    4  A    between atoms: C_4  and  C_26
REMARK    5  A    between atoms: N_7  and  C_8
REMARK    6  A    between atoms: C_12  and  C_13
REMARK    7  A    between atoms: C_13  and  C_15
REMARK    8  A    between atoms: C_19  and  C_20
REMARK    9  A    between atoms: C_20  and  O_22
REMARK                            x       y       z     vdW  Elec       q    Type
REMARK                         _______ _______ _______ _____ _____    ______ ____
ROOT
ATOM      1  C   UNL     1       0.485  10.573  21.380  0.00  0.00    +0.000 C 
ATOM      2  C   UNL     1       0.698   9.245  22.147  0.00  0.00    +0.000 C 
ATOM      3  N   UNL     1       0.799   8.269  21.075  0.00  0.00    +0.000 NA
ATOM      4  C   UNL     1       1.560   7.046  21.249  0.00  0.00    +0.000 C 
ATOM      5  C   UNL     1       2.149   6.869  19.873  0.00  0.00    +0.000 C 
ATOM      6  C   UNL     1       2.043   8.030  19.182  0.00  0.00    +0.000 C 
ATOM      7  N   UNL     1       1.363   8.924  19.986  0.00  0.00    +0.000 N 
ATOM      8  C   UNL     1       1.229  10.309  20.061  0.00  0.00    +0.000 C 
ATOM      9  O   UNL     1       1.554  11.185  19.280  0.00  0.00    +0.000 OA
ENDROOT
BRANCH   1  12
ATOM     10  C   UNL     1      -1.400  12.186  21.279  0.00  0.00    +0.000 C 
ATOM     11  O   UNL     1      -0.686  13.080  21.724  0.00  0.00    +0.000 OA
ATOM     12  N   UNL     1      -0.904  10.912  21.098  0.00  0.00    +0.000 N 
ATOM     13  H   UNL     1      -1.481  10.241  20.585  0.00  0.00    +0.000 HD
BRANCH  10  15
ATOM     14  N   UNL     1      -3.369  12.340  19.684  0.00  0.00    +0.000 NA
ATOM     15  C   UNL     1      -2.902  12.406  20.903  0.00  0.00    +0.000 C 
BRANCH  15  16
ATOM     16  C   UNL     1      -3.905  12.734  21.931  0.00  0.00    +0.000 A 
ATOM     17  C   UNL     1      -5.028  13.518  21.714  0.00  0.00    +0.000 A 
ATOM     18  S   UNL     1      -5.929  13.690  23.161  0.00  0.00    +0.000 S 
ATOM     19  C   UNL     1      -4.766  12.741  23.989  0.00  0.00    +0.000 A 
ATOM     20  N   UNL     1      -4.859  12.507  25.301  0.00  0.00    +0.000 N 
ATOM     21  N   UNL     1      -3.788  12.284  23.248  0.00  0.00    +0.000 NA
ATOM     22  H   UNL     1      -5.707  12.721  25.810  0.00  0.00    +0.000 HD
ATOM     23  H   UNL     1      -4.251  11.814  25.727  0.00  0.00    +0.000 HD
ENDBRANCH  15  16
BRANCH  14  25
ATOM     24  C   UNL     1      -2.994  11.376  17.636  0.00  0.00    +0.000 C 
ATOM     25  O   UNL     1      -2.393  12.060  18.726  0.00  0.00    +0.000 OA
ENDBRANCH  14  25
ENDBRANCH  10  15
ENDBRANCH   1  12
BRANCH   5  26
ATOM     26  C   UNL     1       2.669   5.547  19.440  0.00  0.00    +0.000 C 
ATOM     27  O   UNL     1       3.755   5.179  19.910  0.00  0.00    +0.000 OA
BRANCH  26  28
ATOM     28  C   UNL     1       1.871   4.691  18.449  0.00  0.00    +0.000 C 
ATOM     29  F   UNL     1       2.620   3.771  17.783  0.00  0.00    +0.000 F 
ATOM     30  F   UNL     1       0.878   3.995  19.064  0.00  0.00    +0.000 F 
ATOM     31  F   UNL     1       1.278   5.452  17.490  0.00  0.00    +0.000 F 
ENDBRANCH  26  28
ENDBRANCH   5  26
BRANCH   6  32
ATOM     32  C   UNL     1       2.486   8.425  17.808  0.00  0.00    +0.000 C 
ATOM     33  O   UNL     1       3.420   7.899  17.223  0.00  0.00    +0.000 OA
BRANCH  32  34
ATOM     34  O   UNL     1       1.799   9.413  17.203  0.00  0.00    +0.000 OA
ATOM     35  H   UNL     1       0.836   9.277  17.067  0.00  0.00    +0.000 HD
ENDBRANCH  32  34
ENDBRANCH   6  32
TORSDOF 8
ENDMDL
MODEL 7
REMARK VINA RESULT:      -6.6      4.158      5.962
REMARK  Name = 
REMARK  9 active torsions:
REMARK  status: ('A' for Active; 'I' for Inactive)
REMARK    1  A    between atoms: C_1  and  O_2
REMARK    2  A    between atoms: O_2  and  N_3
REMARK    3  A    between atoms: C_4  and  C_5
REMARK    4  A    between atoms: C_4  and  C_26
REMARK    5  A    between atoms: N_7  and  C_8
REMARK    6  A    between atoms: C_12  and  C_13
REMARK    7  A    between atoms: C_13  and  C_15
REMARK    8  A    between atoms: C_19  and  C_20
REMARK    9  A    between atoms: C_20  and  O_22
REMARK                            x       y       z     vdW  Elec       q    Type
REMARK                         _______ _______ _______ _____ _____    ______ ____
ROOT
ATOM      1  C   UNL     1       0.249  10.784  21.174  0.00  0.00    +0.000 C 
ATOM      2  C   UNL     1       0.480   9.523  22.042  0.00  0.00    +0.000 C 
ATOM      3  N   UNL     1       0.655   8.478  21.047  0.00  0.00    +0.000 NA
ATOM      4  C   UNL     1       1.452   7.300  21.335  0.00  0.00    +0.000 C 
ATOM      5  C   UNL     1       2.099   7.049  19.996  0.00  0.00    +0.000 C 
ATOM      6  C   UNL     1       1.977   8.153  19.220  0.00  0.00    +0.000 C 
ATOM      7  N   UNL     1       1.236   9.075  19.934  0.00  0.00    +0.000 N 
ATOM      8  C   UNL     1       1.051  10.456  19.904  0.00  0.00    +0.000 C 
ATOM      9  O   UNL     1       1.374  11.287  19.074  0.00  0.00    +0.000 OA
ENDROOT
BRANCH   1  12
ATOM     10  C   UNL     1      -1.612  12.328  20.610  0.00  0.00    +0.000 C 
ATOM     11  O   UNL     1      -0.876  13.300  20.750  0.00  0.00    +0.000 OA
ATOM     12  N   UNL     1      -1.139  11.050  20.821  0.00  0.00    +0.000 N 
ATOM     13  H   UNL     1      -1.736  10.266  20.546  0.00  0.00    +0.000 HD
BRANCH  10  15
ATOM     14  N   UNL     1      -3.595  12.096  19.042  0.00  0.00    +0.000 NA
ATOM     15  C   UNL     1      -3.117  12.453  20.205  0.00  0.00    +0.000 C 
BRANCH  15  16
ATOM     16  C   UNL     1      -4.112  13.022  21.131  0.00  0.00    +0.000 A 
ATOM     17  C   UNL     1      -4.150  14.350  21.528  0.00  0.00    +0.000 A 
ATOM     18  S   UNL     1      -5.434  14.611  22.631  0.00  0.00    +0.000 S 
ATOM     19  C   UNL     1      -5.842  12.948  22.536  0.00  0.00    +0.000 A 
ATOM     20  N   UNL     1      -6.831  12.427  23.269  0.00  0.00    +0.000 N 
ATOM     21  N   UNL     1      -5.111  12.239  21.714  0.00  0.00    +0.000 NA
ATOM     22  H   UNL     1      -7.488  13.023  23.758  0.00  0.00    +0.000 HD
ATOM     23  H   UNL     1      -7.152  11.484  23.072  0.00  0.00    +0.000 HD
ENDBRANCH  15  16
BRANCH  14  25
ATOM     24  C   UNL     1      -3.252  11.200  16.958  0.00  0.00    +0.000 C 
ATOM     25  O   UNL     1      -2.628  11.590  18.172  0.00  0.00    +0.000 OA
ENDBRANCH  14  25
ENDBRANCH  10  15
ENDBRANCH   1  12
BRANCH   5  26
ATOM     26  C   UNL     1       2.681   5.720  19.679  0.00  0.00    +0.000 C 
ATOM     27  O   UNL     1       3.902   5.581  19.831  0.00  0.00    +0.000 OA
BRANCH  26  28
ATOM     28  C   UNL     1       1.780   4.582  19.182  0.00  0.00    +0.000 C 
ATOM     29  F   UNL     1       1.320   4.752  17.915  0.00  0.00    +0.000 F 
ATOM     30  F   UNL     1       2.426   3.385  19.192  0.00  0.00    +0.000 F 
ATOM     31  F   UNL     1       0.676   4.436  19.964  0.00  0.00    +0.000 F 
ENDBRANCH  26  28
ENDBRANCH   5  26
BRANCH   6  32
ATOM     32  C   UNL     1       2.457   8.466  17.838  0.00  0.00    +0.000 C 
ATOM     33  O   UNL     1       3.402   7.905  17.309  0.00  0.00    +0.000 OA
BRANCH  32  34
ATOM     34  O   UNL     1       1.791   9.421  17.160  0.00  0.00    +0.000 OA
ATOM     35  H   UNL     1       1.702   9.308  16.188  0.00  0.00    +0.000 HD
ENDBRANCH  32  34
ENDBRANCH   6  32
TORSDOF 8
ENDMDL
MODEL 8
REMARK VINA RESULT:      -6.6      6.762     10.250
REMARK  Name = 
REMARK  9 active torsions:
REMARK  status: ('A' for Active; 'I' for Inactive)
REMARK    1  A    between atoms: C_1  and  O_2
REMARK    2  A    between atoms: O_2  and  N_3
REMARK    3  A    between atoms: C_4  and  C_5
REMARK    4  A    between atoms: C_4  and  C_26
REMARK    5  A    between atoms: N_7  and  C_8
REMARK    6  A    between atoms: C_12  and  C_13
REMARK    7  A    between atoms: C_13  and  C_15
REMARK    8  A    between atoms: C_19  and  C_20
REMARK    9  A    between atoms: C_20  and  O_22
REMARK                            x       y       z     vdW  Elec       q    Type
REMARK                         _______ _______ _______ _____ _____    ______ ____
ROOT
ATOM      1  C   UNL     1      -0.767  11.087  18.639  0.00  0.00    +0.000 C 
ATOM      2  C   UNL     1      -1.735  10.631  17.519  0.00  0.00    +0.000 C 
ATOM      3  N   UNL     1      -3.032  10.693  18.172  0.00  0.00    +0.000 NA
ATOM      4  C   UNL     1      -4.241  10.930  17.406  0.00  0.00    +0.000 C 
ATOM      5  C   UNL     1      -5.034  11.781  18.365  0.00  0.00    +0.000 C 
ATOM      6  C   UNL     1      -4.213  12.257  19.333  0.00  0.00    +0.000 C 
ATOM      7  N   UNL     1      -2.961  11.717  19.110  0.00  0.00    +0.000 N 
ATOM      8  C   UNL     1      -1.652  12.033  19.467  0.00  0.00    +0.000 C 
ATOM      9  O   UNL     1      -1.216  12.829  20.279  0.00  0.00    +0.000 OA
ENDROOT
BRANCH   1  12
ATOM     10  C   UNL     1       1.054   9.601  19.441  0.00  0.00    +0.000 C 
ATOM     11  O   UNL     1       1.838  10.094  18.636  0.00  0.00    +0.000 OA
ATOM     12  N   UNL     1      -0.259  10.021  19.493  0.00  0.00    +0.000 N 
ATOM     13  H   UNL     1      -0.835   9.698  20.274  0.00  0.00    +0.000 HD
BRANCH  10  15
ATOM     14  N   UNL     1       1.406   8.588  21.742  0.00  0.00    +0.000 NA
ATOM     15  C   UNL     1       1.461   8.470  20.440  0.00  0.00    +0.000 C 
BRANCH  15  16
ATOM     16  C   UNL     1       1.969   7.173  19.960  0.00  0.00    +0.000 A 
ATOM     17  C   UNL     1       2.677   6.992  18.782  0.00  0.00    +0.000 A 
ATOM     18  S   UNL     1       3.064   5.337  18.563  0.00  0.00    +0.000 S 
ATOM     19  C   UNL     1       2.248   4.961  20.024  0.00  0.00    +0.000 A 
ATOM     20  N   UNL     1       2.126   3.702  20.453  0.00  0.00    +0.000 N 
ATOM     21  N   UNL     1       1.750   5.987  20.666  0.00  0.00    +0.000 NA
ATOM     22  H   UNL     1       2.665   2.953  20.035  0.00  0.00    +0.000 HD
ATOM     23  H   UNL     1       1.783   3.528  21.393  0.00  0.00    +0.000 HD
ENDBRANCH  15  16
BRANCH  14  25
ATOM     24  C   UNL     1      -0.053   9.652  23.155  0.00  0.00    +0.000 C 
ATOM     25  O   UNL     1       0.953   9.836  22.171  0.00  0.00    +0.000 OA
ENDBRANCH  14  25
ENDBRANCH  10  15
ENDBRANCH   1  12
BRANCH   5  26
ATOM     26  C   UNL     1      -6.502  11.933  18.201  0.00  0.00    +0.000 C 
ATOM     27  O   UNL     1      -7.185  10.900  18.191  0.00  0.00    +0.000 OA
BRANCH  26  28
ATOM     28  C   UNL     1      -7.122  13.328  18.049  0.00  0.00    +0.000 C 
ATOM     29  F   UNL     1      -7.909  13.700  19.092  0.00  0.00    +0.000 F 
ATOM     30  F   UNL     1      -6.172  14.293  17.930  0.00  0.00    +0.000 F 
ATOM     31  F   UNL     1      -7.906  13.413  16.941  0.00  0.00    +0.000 F 
ENDBRANCH  26  28
ENDBRANCH   5  26
BRANCH   6  32
ATOM     32  C   UNL     1      -4.456  13.163  20.499  0.00  0.00    +0.000 C 
ATOM     33  O   UNL     1      -5.082  12.832  21.493  0.00  0.00    +0.000 OA
BRANCH  32  34
ATOM     34  O   UNL     1      -3.943  14.407  20.425  0.00  0.00    +0.000 OA
ATOM     35  H   UNL     1      -2.966  14.492  20.388  0.00  0.00    +0.000 HD
ENDBRANCH  32  34
ENDBRANCH   6  32
TORSDOF 8
ENDMDL
MODEL 9
REMARK VINA RESULT:      -6.4      4.354      5.796
REMARK  Name = 
REMARK  9 active torsions:
REMARK  status: ('A' for Active; 'I' for Inactive)
REMARK    1  A    between atoms: C_1  and  O_2
REMARK    2  A    between atoms: O_2  and  N_3
REMARK    3  A    between atoms: C_4  and  C_5
REMARK    4  A    between atoms: C_4  and  C_26
REMARK    5  A    between atoms: N_7  and  C_8
REMARK    6  A    between atoms: C_12  and  C_13
REMARK    7  A    between atoms: C_13  and  C_15
REMARK    8  A    between atoms: C_19  and  C_20
REMARK    9  A    between atoms: C_20  and  O_22
REMARK                            x       y       z     vdW  Elec       q    Type
REMARK                         _______ _______ _______ _____ _____    ______ ____
ROOT
ATOM      1  C   UNL     1       0.306  10.812  21.335  0.00  0.00    +0.000 C 
ATOM      2  C   UNL     1       0.571   9.550  22.191  0.00  0.00    +0.000 C 
ATOM      3  N   UNL     1       0.692   8.503  21.191  0.00  0.00    +0.000 NA
ATOM      4  C   UNL     1       1.495   7.321  21.442  0.00  0.00    +0.000 C 
ATOM      5  C   UNL     1       2.075   7.065  20.074  0.00  0.00    +0.000 C 
ATOM      6  C   UNL     1       1.923   8.169  19.303  0.00  0.00    +0.000 C 
ATOM      7  N   UNL     1       1.222   9.096  20.051  0.00  0.00    +0.000 N 
ATOM      8  C   UNL     1       1.044  10.478  20.028  0.00  0.00    +0.000 C 
ATOM      9  O   UNL     1       1.331  11.306  19.182  0.00  0.00    +0.000 OA
ENDROOT
BRANCH   1  12
ATOM     10  C   UNL     1      -1.556  12.356  20.773  0.00  0.00    +0.000 C 
ATOM     11  O   UNL     1      -0.793  13.318  20.796  0.00  0.00    +0.000 OA
ATOM     12  N   UNL     1      -1.096  11.085  21.048  0.00  0.00    +0.000 N 
ATOM     13  H   UNL     1      -1.725  10.298  20.868  0.00  0.00    +0.000 HD
BRANCH  10  15
ATOM     14  N   UNL     1      -3.971  12.936  21.299  0.00  0.00    +0.000 NA
ATOM     15  C   UNL     1      -3.080  12.489  20.452  0.00  0.00    +0.000 C 
BRANCH  15  16
ATOM     16  C   UNL     1      -3.624  12.081  19.145  0.00  0.00    +0.000 A 
ATOM     17  C   UNL     1      -2.874  11.531  18.117  0.00  0.00    +0.000 A 
ATOM     18  S   UNL     1      -3.862  11.221  16.752  0.00  0.00    +0.000 S 
ATOM     19  C   UNL     1      -5.213  11.857  17.596  0.00  0.00    +0.000 A 
ATOM     20  N   UNL     1      -6.413  11.960  17.019  0.00  0.00    +0.000 N 
ATOM     21  N   UNL     1      -4.974  12.242  18.824  0.00  0.00    +0.000 NA
ATOM     22  H   UNL     1      -6.611  11.499  16.139  0.00  0.00    +0.000 HD
ATOM     23  H   UNL     1      -7.222  12.187  17.590  0.00  0.00    +0.000 HD
ENDBRANCH  15  16
BRANCH  14  25
ATOM     24  C   UNL     1      -4.061  14.474  22.998  0.00  0.00    +0.000 C 
ATOM     25  O   UNL     1      -3.436  13.284  22.540  0.00  0.00    +0.000 OA
ENDBRANCH  14  25
ENDBRANCH  10  15
ENDBRANCH   1  12
BRANCH   5  26
ATOM     26  C   UNL     1       2.634   5.732  19.731  0.00  0.00    +0.000 C 
ATOM     27  O   UNL     1       3.865   5.633  19.652  0.00  0.00    +0.000 OA
BRANCH  26  28
ATOM     28  C   UNL     1       1.697   4.542  19.488  0.00  0.00    +0.000 C 
ATOM     29  F   UNL     1       2.273   3.330  19.701  0.00  0.00    +0.000 F 
ATOM     30  F   UNL     1       0.602   4.587  20.293  0.00  0.00    +0.000 F 
ATOM     31  F   UNL     1       1.238   4.516  18.207  0.00  0.00    +0.000 F 
ENDBRANCH  26  28
ENDBRANCH   5  26
BRANCH   6  32
ATOM     32  C   UNL     1       2.338   8.478  17.899  0.00  0.00    +0.000 C 
ATOM     33  O   UNL     1       3.337   8.015  17.374  0.00  0.00    +0.000 OA
BRANCH  32  34
ATOM     34  O   UNL     1       1.547   9.311  17.196  0.00  0.00    +0.000 OA
ATOM     35  H   UNL     1       0.908   9.862  17.699  0.00  0.00    +0.000 HD
ENDBRANCH  32  34
ENDBRANCH   6  32
TORSDOF 8
ENDMDL
