MODEL 1
REMARK VINA RESULT:      -9.0      0.000      0.000
REMARK  Name = 
REMARK  9 active torsions:
REMARK  status: ('A' for Active; 'I' for Inactive)
REMARK    1  A    between atoms: C_1  and  N_2
REMARK    2  A    between atoms: N_2  and  C_13
REMARK    3  A    between atoms: C_3  and  C_5
REMARK    4  A    between atoms: C_5  and  C_7
REMARK    5  A    between atoms: N_16  and  C_17
REMARK    6  A    between atoms: C_17  and  C_18
REMARK    7  A    between atoms: C_18  and  C_19
REMARK    8  A    between atoms: C_19  and  C_20
REMARK    9  A    between atoms: C_19  and  C_26
REMARK                            x       y       z     vdW  Elec       q    Type
REMARK                         _______ _______ _______ _____ _____    ______ ____
ROOT
ATOM      1  C   UNL     1      -0.572  10.456  19.959  0.00  0.00    +0.000 C 
ATOM      2  C   UNL     1       0.131   9.282  20.640  0.00  0.00    +0.000 C 
ATOM      3  C   UNL     1       1.469   8.974  19.996  0.00  0.00    +0.000 C 
ATOM      4  N   UNL     1       1.385   8.687  18.557  0.00  0.00    +0.000 NA
ATOM      5  C   UNL     1       0.594   9.665  17.797  0.00  0.00    +0.000 C 
ATOM      6  C   UNL     1      -0.717  10.094  18.469  0.00  0.00    +0.000 C 
ENDROOT
BRANCH   1   8
ATOM      7  C   UNL     1       0.975  12.396  19.333  0.00  0.00    +0.000 C 
ATOM      8  N   UNL     1       0.054  11.772  20.273  0.00  0.00    +0.000 N 
ATOM      9  C   UNL     1      -0.009  12.365  21.545  0.00  0.00    +0.000 C 
ATOM     10  O   UNL     1       0.648  13.344  21.893  0.00  0.00    +0.000 OA
BRANCH   9  11
ATOM     11  C   UNL     1      -1.012  11.832  22.552  0.00  0.00    +0.000 C 
ATOM     12  O   UNL     1      -0.662  11.014  23.396  0.00  0.00    +0.000 OA
BRANCH  11  13
ATOM     13  C   UNL     1      -2.400  12.353  22.516  0.00  0.00    +0.000 A 
ATOM     14  C   UNL     1      -2.957  12.893  21.351  0.00  0.00    +0.000 A 
ATOM     15  C   UNL     1      -4.267  13.374  21.368  0.00  0.00    +0.000 A 
ATOM     16  C   UNL     1      -5.019  13.322  22.543  0.00  0.00    +0.000 A 
ATOM     17  C   UNL     1      -4.468  12.785  23.703  0.00  0.00    +0.000 A 
ATOM     18  C   UNL     1      -3.160  12.300  23.692  0.00  0.00    +0.000 A 
ENDBRANCH  11  13
ENDBRANCH   9  11
ENDBRANCH   1   8
BRANCH   4  19
ATOM     19  C   UNL     1       2.746   8.589  17.972  0.00  0.00    +0.000 C 
BRANCH  19  20
ATOM     20  C   UNL     1       3.025   7.182  17.426  0.00  0.00    +0.000 C 
BRANCH  20  21
ATOM     21  C   UNL     1       3.584   6.186  18.466  0.00  0.00    +0.000 C 
BRANCH  21  22
ATOM     22  C   UNL     1       2.501   5.224  18.962  0.00  0.00    +0.000 A 
ATOM     23  C   UNL     1       2.182   5.084  20.323  0.00  0.00    +0.000 A 
ATOM     24  C   UNL     1       1.367   4.038  20.768  0.00  0.00    +0.000 A 
ATOM     25  C   UNL     1       0.847   3.121  19.860  0.00  0.00    +0.000 A 
ATOM     26  C   UNL     1       1.103   3.276  18.501  0.00  0.00    +0.000 A 
ATOM     27  C   UNL     1       1.915   4.324  18.054  0.00  0.00    +0.000 A 
ENDBRANCH  21  22
BRANCH  21  28
ATOM     28  C   UNL     1       4.854   5.548  17.897  0.00  0.00    +0.000 A 
ATOM     29  C   UNL     1       5.988   5.415  18.715  0.00  0.00    +0.000 A 
ATOM     30  C   UNL     1       7.205   4.969  18.189  0.00  0.00    +0.000 A 
ATOM     31  C   UNL     1       7.307   4.640  16.839  0.00  0.00    +0.000 A 
ATOM     32  C   UNL     1       6.196   4.761  16.013  0.00  0.00    +0.000 A 
ATOM     33  C   UNL     1       4.981   5.212  16.537  0.00  0.00    +0.000 A 
ENDBRANCH  21  28
ENDBRANCH  20  21
ENDBRANCH  19  20
ENDBRANCH   4  19
TORSDOF 8
ENDMDL
MODEL 2
REMARK VINA RESULT:      -8.9      0.287      1.473
REMARK  Name = 
REMARK  9 active torsions:
REMARK  status: ('A' for Active; 'I' for Inactive)
REMARK    1  A    between atoms: C_1  and  N_2
REMARK    2  A    between atoms: N_2  and  C_13
REMARK    3  A    between atoms: C_3  and  C_5
REMARK    4  A    between atoms: C_5  and  C_7
REMARK    5  A    between atoms: N_16  and  C_17
REMARK    6  A    between atoms: C_17  and  C_18
REMARK    7  A    between atoms: C_18  and  C_19
REMARK    8  A    between atoms: C_19  and  C_20
REMARK    9  A    between atoms: C_19  and  C_26
REMARK                            x       y       z     vdW  Elec       q    Type
REMARK                         _______ _______ _______ _____ _____    ______ ____
ROOT
ATOM      1  C   UNL     1      -0.626  10.347  20.061  0.00  0.00    +0.000 C 
ATOM      2  C   UNL     1       0.102   9.170  20.709  0.00  0.00    +0.000 C 
ATOM      3  C   UNL     1       1.446   8.909  20.059  0.00  0.00    +0.000 C 
ATOM      4  N   UNL     1       1.370   8.662  18.612  0.00  0.00    +0.000 NA
ATOM      5  C   UNL     1       0.559   9.645  17.880  0.00  0.00    +0.000 C 
ATOM      6  C   UNL     1      -0.762  10.026  18.562  0.00  0.00    +0.000 C 
ENDROOT
BRANCH   1   8
ATOM      7  C   UNL     1       0.918  12.313  19.518  0.00  0.00    +0.000 C 
ATOM      8  N   UNL     1      -0.029  11.666  20.415  0.00  0.00    +0.000 N 
ATOM      9  C   UNL     1      -0.149  12.244  21.690  0.00  0.00    +0.000 C 
ATOM     10  O   UNL     1       0.481  13.226  22.074  0.00  0.00    +0.000 OA
BRANCH   9  11
ATOM     11  C   UNL     1      -1.184  11.686  22.652  0.00  0.00    +0.000 C 
ATOM     12  O   UNL     1      -0.874  10.804  23.445  0.00  0.00    +0.000 OA
BRANCH  11  13
ATOM     13  C   UNL     1      -2.550  12.261  22.635  0.00  0.00    +0.000 A 
ATOM     14  C   UNL     1      -3.306  12.406  23.804  0.00  0.00    +0.000 A 
ATOM     15  C   UNL     1      -4.589  12.950  23.738  0.00  0.00    +0.000 A 
ATOM     16  C   UNL     1      -5.121  13.343  22.508  0.00  0.00    +0.000 A 
ATOM     17  C   UNL     1      -4.372  13.201  21.343  0.00  0.00    +0.000 A 
ATOM     18  C   UNL     1      -3.088  12.661  21.405  0.00  0.00    +0.000 A 
ENDBRANCH  11  13
ENDBRANCH   9  11
ENDBRANCH   1   8
BRANCH   4  19
ATOM     19  C   UNL     1       2.734   8.611  18.027  0.00  0.00    +0.000 C 
BRANCH  19  20
ATOM     20  C   UNL     1       3.034   7.235  17.417  0.00  0.00    +0.000 C 
BRANCH  20  21
ATOM     21  C   UNL     1       3.775   6.260  18.359  0.00  0.00    +0.000 C 
BRANCH  21  22
ATOM     22  C   UNL     1       2.842   5.162  18.877  0.00  0.00    +0.000 A 
ATOM     23  C   UNL     1       2.192   4.258  18.021  0.00  0.00    +0.000 A 
ATOM     24  C   UNL     1       1.170   3.428  18.492  0.00  0.00    +0.000 A 
ATOM     25  C   UNL     1       0.789   3.476  19.829  0.00  0.00    +0.000 A 
ATOM     26  C   UNL     1       1.460   4.322  20.706  0.00  0.00    +0.000 A 
ATOM     27  C   UNL     1       2.484   5.151  20.237  0.00  0.00    +0.000 A 
ENDBRANCH  21  22
BRANCH  21  28
ATOM     28  C   UNL     1       5.058   5.794  17.667  0.00  0.00    +0.000 A 
ATOM     29  C   UNL     1       5.090   5.685  16.268  0.00  0.00    +0.000 A 
ATOM     30  C   UNL     1       6.195   5.130  15.615  0.00  0.00    +0.000 A 
ATOM     31  C   UNL     1       7.291   4.681  16.349  0.00  0.00    +0.000 A 
ATOM     32  C   UNL     1       7.282   4.783  17.735  0.00  0.00    +0.000 A 
ATOM     33  C   UNL     1       6.175   5.333  18.388  0.00  0.00    +0.000 A 
ENDBRANCH  21  28
ENDBRANCH  20  21
ENDBRANCH  19  20
ENDBRANCH   4  19
TORSDOF 8
ENDMDL
MODEL 3
REMARK VINA RESULT:      -8.8      0.655      3.347
REMARK  Name = 
REMARK  9 active torsions:
REMARK  status: ('A' for Active; 'I' for Inactive)
REMARK    1  A    between atoms: C_1  and  N_2
REMARK    2  A    between atoms: N_2  and  C_13
REMARK    3  A    between atoms: C_3  and  C_5
REMARK    4  A    between atoms: C_5  and  C_7
REMARK    5  A    between atoms: N_16  and  C_17
REMARK    6  A    between atoms: C_17  and  C_18
REMARK    7  A    between atoms: C_18  and  C_19
REMARK    8  A    between atoms: C_19  and  C_20
REMARK    9  A    between atoms: C_19  and  C_26
REMARK                            x       y       z     vdW  Elec       q    Type
REMARK                         _______ _______ _______ _____ _____    ______ ____
ROOT
ATOM      1  C   UNL     1      -0.513  10.368  19.943  0.00  0.00    +0.000 C 
ATOM      2  C   UNL     1       0.166   9.166  20.598  0.00  0.00    +0.000 C 
ATOM      3  C   UNL     1       1.457   8.794  19.895  0.00  0.00    +0.000 C 
ATOM      4  N   UNL     1       1.293   8.506  18.463  0.00  0.00    +0.000 NA
ATOM      5  C   UNL     1       0.513   9.517  17.735  0.00  0.00    +0.000 C 
ATOM      6  C   UNL     1      -0.744  10.008  18.464  0.00  0.00    +0.000 C 
ENDROOT
BRANCH   1   8
ATOM      7  C   UNL     1       1.146  12.195  19.268  0.00  0.00    +0.000 C 
ATOM      8  N   UNL     1       0.186  11.655  20.220  0.00  0.00    +0.000 N 
ATOM      9  C   UNL     1       0.151  12.291  21.473  0.00  0.00    +0.000 C 
ATOM     10  O   UNL     1       0.861  13.240  21.795  0.00  0.00    +0.000 OA
BRANCH   9  11
ATOM     11  C   UNL     1      -0.888  11.849  22.489  0.00  0.00    +0.000 C 
ATOM     12  O   UNL     1      -0.587  11.049  23.368  0.00  0.00    +0.000 OA
BRANCH  11  13
ATOM     13  C   UNL     1      -2.247  12.436  22.416  0.00  0.00    +0.000 A 
ATOM     14  C   UNL     1      -2.708  13.095  21.271  0.00  0.00    +0.000 A 
ATOM     15  C   UNL     1      -3.995  13.635  21.251  0.00  0.00    +0.000 A 
ATOM     16  C   UNL     1      -4.820  13.522  22.372  0.00  0.00    +0.000 A 
ATOM     17  C   UNL     1      -4.365  12.866  23.513  0.00  0.00    +0.000 A 
ATOM     18  C   UNL     1      -3.081  12.323  23.537  0.00  0.00    +0.000 A 
ENDBRANCH  11  13
ENDBRANCH   9  11
ENDBRANCH   1   8
BRANCH   4  19
ATOM     19  C   UNL     1       2.619   8.343  17.817  0.00  0.00    +0.000 C 
BRANCH  19  20
ATOM     20  C   UNL     1       3.437   7.227  18.482  0.00  0.00    +0.000 C 
BRANCH  20  21
ATOM     21  C   UNL     1       3.312   5.844  17.803  0.00  0.00    +0.000 C 
BRANCH  21  22
ATOM     22  C   UNL     1       4.651   5.379  17.225  0.00  0.00    +0.000 A 
ATOM     23  C   UNL     1       5.826   6.141  17.335  0.00  0.00    +0.000 A 
ATOM     24  C   UNL     1       6.969   5.812  16.600  0.00  0.00    +0.000 A 
ATOM     25  C   UNL     1       6.963   4.709  15.753  0.00  0.00    +0.000 A 
ATOM     26  C   UNL     1       5.829   3.907  15.674  0.00  0.00    +0.000 A 
ATOM     27  C   UNL     1       4.686   4.232  16.411  0.00  0.00    +0.000 A 
ENDBRANCH  21  22
BRANCH  21  28
ATOM     28  C   UNL     1       2.617   4.885  18.772  0.00  0.00    +0.000 A 
ATOM     29  C   UNL     1       1.638   4.001  18.290  0.00  0.00    +0.000 A 
ATOM     30  C   UNL     1       0.885   3.215  19.167  0.00  0.00    +0.000 A 
ATOM     31  C   UNL     1       1.102   3.291  20.541  0.00  0.00    +0.000 A 
ATOM     32  C   UNL     1       2.069   4.157  21.039  0.00  0.00    +0.000 A 
ATOM     33  C   UNL     1       2.817   4.948  20.163  0.00  0.00    +0.000 A 
ENDBRANCH  21  28
ENDBRANCH  20  21
ENDBRANCH  19  20
ENDBRANCH   4  19
TORSDOF 8
ENDMDL
MODEL 4
REMARK VINA RESULT:      -8.7      0.799      3.448
REMARK  Name = 
REMARK  9 active torsions:
REMARK  status: ('A' for Active; 'I' for Inactive)
REMARK    1  A    between atoms: C_1  and  N_2
REMARK    2  A    between atoms: N_2  and  C_13
REMARK    3  A    between atoms: C_3  and  C_5
REMARK    4  A    between atoms: C_5  and  C_7
REMARK    5  A    between atoms: N_16  and  C_17
REMARK    6  A    between atoms: C_17  and  C_18
REMARK    7  A    between atoms: C_18  and  C_19
REMARK    8  A    between atoms: C_19  and  C_20
REMARK    9  A    between atoms: C_19  and  C_26
REMARK                            x       y       z     vdW  Elec       q    Type
REMARK                         _______ _______ _______ _____ _____    ______ ____
ROOT
ATOM      1  C   UNL     1      -0.669  10.781  19.975  0.00  0.00    +0.000 C 
ATOM      2  C   UNL     1      -0.050   9.541  20.618  0.00  0.00    +0.000 C 
ATOM      3  C   UNL     1       1.200   9.089  19.888  0.00  0.00    +0.000 C 
ATOM      4  N   UNL     1       0.987   8.809  18.461  0.00  0.00    +0.000 NA
ATOM      5  C   UNL     1       0.255   9.864  17.747  0.00  0.00    +0.000 C 
ATOM      6  C   UNL     1      -0.954  10.433  18.503  0.00  0.00    +0.000 C 
ENDROOT
BRANCH   1   8
ATOM      7  C   UNL     1       1.077  12.506  19.253  0.00  0.00    +0.000 C 
ATOM      8  N   UNL     1       0.114  12.023  20.232  0.00  0.00    +0.000 N 
ATOM      9  C   UNL     1       0.152  12.658  21.485  0.00  0.00    +0.000 C 
ATOM     10  O   UNL     1       0.926  13.563  21.787  0.00  0.00    +0.000 OA
BRANCH   9  11
ATOM     11  C   UNL     1      -0.882  12.277  22.530  0.00  0.00    +0.000 C 
ATOM     12  O   UNL     1      -0.644  11.382  23.333  0.00  0.00    +0.000 OA
BRANCH  11  13
ATOM     13  C   UNL     1      -2.154  13.037  22.580  0.00  0.00    +0.000 A 
ATOM     14  C   UNL     1      -3.349  12.513  22.074  0.00  0.00    +0.000 A 
ATOM     15  C   UNL     1      -4.521  13.269  22.140  0.00  0.00    +0.000 A 
ATOM     16  C   UNL     1      -4.501  14.545  22.706  0.00  0.00    +0.000 A 
ATOM     17  C   UNL     1      -3.314  15.068  23.212  0.00  0.00    +0.000 A 
ATOM     18  C   UNL     1      -2.141  14.317  23.150  0.00  0.00    +0.000 A 
ENDBRANCH  11  13
ENDBRANCH   9  11
ENDBRANCH   1   8
BRANCH   4  19
ATOM     19  C   UNL     1       2.286   8.564  17.786  0.00  0.00    +0.000 C 
BRANCH  19  20
ATOM     20  C   UNL     1       3.099   7.478  18.505  0.00  0.00    +0.000 C 
BRANCH  20  21
ATOM     21  C   UNL     1       3.187   6.133  17.750  0.00  0.00    +0.000 C 
BRANCH  21  22
ATOM     22  C   UNL     1       4.630   5.799  17.363  0.00  0.00    +0.000 A 
ATOM     23  C   UNL     1       5.081   5.829  16.033  0.00  0.00    +0.000 A 
ATOM     24  C   UNL     1       6.324   5.293  15.682  0.00  0.00    +0.000 A 
ATOM     25  C   UNL     1       7.144   4.729  16.655  0.00  0.00    +0.000 A 
ATOM     26  C   UNL     1       6.741   4.743  17.987  0.00  0.00    +0.000 A 
ATOM     27  C   UNL     1       5.499   5.281  18.340  0.00  0.00    +0.000 A 
ENDBRANCH  21  22
BRANCH  21  28
ATOM     28  C   UNL     1       2.433   5.072  18.555  0.00  0.00    +0.000 A 
ATOM     29  C   UNL     1       1.951   3.923  17.907  0.00  0.00    +0.000 A 
ATOM     30  C   UNL     1       1.138   3.006  18.580  0.00  0.00    +0.000 A 
ATOM     31  C   UNL     1       0.801   3.215  19.915  0.00  0.00    +0.000 A 
ATOM     32  C   UNL     1       1.271   4.343  20.577  0.00  0.00    +0.000 A 
ATOM     33  C   UNL     1       2.078   5.263  19.903  0.00  0.00    +0.000 A 
ENDBRANCH  21  28
ENDBRANCH  20  21
ENDBRANCH  19  20
ENDBRANCH   4  19
TORSDOF 8
ENDMDL
MODEL 5
REMARK VINA RESULT:      -8.6      1.405      3.768
REMARK  Name = 
REMARK  9 active torsions:
REMARK  status: ('A' for Active; 'I' for Inactive)
REMARK    1  A    between atoms: C_1  and  N_2
REMARK    2  A    between atoms: N_2  and  C_13
REMARK    3  A    between atoms: C_3  and  C_5
REMARK    4  A    between atoms: C_5  and  C_7
REMARK    5  A    between atoms: N_16  and  C_17
REMARK    6  A    between atoms: C_17  and  C_18
REMARK    7  A    between atoms: C_18  and  C_19
REMARK    8  A    between atoms: C_19  and  C_20
REMARK    9  A    between atoms: C_19  and  C_26
REMARK                            x       y       z     vdW  Elec       q    Type
REMARK                         _______ _______ _______ _____ _____    ______ ____
ROOT
ATOM      1  C   UNL     1      -0.247  11.241  20.059  0.00  0.00    +0.000 C 
ATOM      2  C   UNL     1       0.897  11.710  19.161  0.00  0.00    +0.000 C 
ATOM      3  C   UNL     1       1.360  10.616  18.217  0.00  0.00    +0.000 C 
ATOM      4  N   UNL     1       1.784   9.384  18.897  0.00  0.00    +0.000 NA
ATOM      5  C   UNL     1       0.836   8.904  19.912  0.00  0.00    +0.000 C 
ATOM      6  C   UNL     1       0.253   9.997  20.817  0.00  0.00    +0.000 C 
ENDROOT
BRANCH   1   8
ATOM      7  C   UNL     1      -1.726  10.069  18.331  0.00  0.00    +0.000 C 
ATOM      8  N   UNL     1      -1.542  11.110  19.332  0.00  0.00    +0.000 N 
ATOM      9  C   UNL     1      -2.552  12.085  19.386  0.00  0.00    +0.000 C 
ATOM     10  O   UNL     1      -3.542  12.106  18.660  0.00  0.00    +0.000 OA
BRANCH   9  11
ATOM     11  C   UNL     1      -2.482  13.151  20.466  0.00  0.00    +0.000 C 
ATOM     12  O   UNL     1      -1.781  14.144  20.305  0.00  0.00    +0.000 OA
BRANCH  11  13
ATOM     13  C   UNL     1      -3.309  12.983  21.684  0.00  0.00    +0.000 A 
ATOM     14  C   UNL     1      -4.670  13.308  21.706  0.00  0.00    +0.000 A 
ATOM     15  C   UNL     1      -5.406  13.135  22.879  0.00  0.00    +0.000 A 
ATOM     16  C   UNL     1      -4.787  12.643  24.030  0.00  0.00    +0.000 A 
ATOM     17  C   UNL     1      -3.433  12.318  24.012  0.00  0.00    +0.000 A 
ATOM     18  C   UNL     1      -2.693  12.486  22.841  0.00  0.00    +0.000 A 
ENDBRANCH  11  13
ENDBRANCH   9  11
ENDBRANCH   1   8
BRANCH   4  19
ATOM     19  C   UNL     1       2.034   8.309  17.904  0.00  0.00    +0.000 C 
BRANCH  19  20
ATOM     20  C   UNL     1       3.108   7.329  18.392  0.00  0.00    +0.000 C 
BRANCH  20  21
ATOM     21  C   UNL     1       3.061   5.935  17.726  0.00  0.00    +0.000 C 
BRANCH  21  22
ATOM     22  C   UNL     1       4.457   5.464  17.309  0.00  0.00    +0.000 A 
ATOM     23  C   UNL     1       5.608   6.243  17.512  0.00  0.00    +0.000 A 
ATOM     24  C   UNL     1       6.824   5.900  16.913  0.00  0.00    +0.000 A 
ATOM     25  C   UNL     1       6.915   4.766  16.112  0.00  0.00    +0.000 A 
ATOM     26  C   UNL     1       5.801   3.949  15.946  0.00  0.00    +0.000 A 
ATOM     27  C   UNL     1       4.585   4.289  16.546  0.00  0.00    +0.000 A 
ENDBRANCH  21  22
BRANCH  21  28
ATOM     28  C   UNL     1       2.263   4.990  18.627  0.00  0.00    +0.000 A 
ATOM     29  C   UNL     1       2.335   5.138  20.022  0.00  0.00    +0.000 A 
ATOM     30  C   UNL     1       1.735   4.207  20.875  0.00  0.00    +0.000 A 
ATOM     31  C   UNL     1       1.044   3.117  20.349  0.00  0.00    +0.000 A 
ATOM     32  C   UNL     1       0.957   2.954  18.972  0.00  0.00    +0.000 A 
ATOM     33  C   UNL     1       1.562   3.881  18.119  0.00  0.00    +0.000 A 
ENDBRANCH  21  28
ENDBRANCH  20  21
ENDBRANCH  19  20
ENDBRANCH   4  19
TORSDOF 8
ENDMDL
MODEL 6
REMARK VINA RESULT:      -8.6      0.689      1.055
REMARK  Name = 
REMARK  9 active torsions:
REMARK  status: ('A' for Active; 'I' for Inactive)
REMARK    1  A    between atoms: C_1  and  N_2
REMARK    2  A    between atoms: N_2  and  C_13
REMARK    3  A    between atoms: C_3  and  C_5
REMARK    4  A    between atoms: C_5  and  C_7
REMARK    5  A    between atoms: N_16  and  C_17
REMARK    6  A    between atoms: C_17  and  C_18
REMARK    7  A    between atoms: C_18  and  C_19
REMARK    8  A    between atoms: C_19  and  C_20
REMARK    9  A    between atoms: C_19  and  C_26
REMARK                            x       y       z     vdW  Elec       q    Type
REMARK                         _______ _______ _______ _____ _____    ______ ____
ROOT
ATOM      1  C   UNL     1      -0.752  10.987  20.168  0.00  0.00    +0.000 C 
ATOM      2  C   UNL     1      -0.170   9.726  20.804  0.00  0.00    +0.000 C 
ATOM      3  C   UNL     1       1.152   9.333  20.173  0.00  0.00    +0.000 C 
ATOM      4  N   UNL     1       1.078   9.123  18.720  0.00  0.00    +0.000 NA
ATOM      5  C   UNL     1       0.393  10.201  17.994  0.00  0.00    +0.000 C 
ATOM      6  C   UNL     1      -0.892  10.711  18.660  0.00  0.00    +0.000 C 
ENDROOT
BRANCH   1   8
ATOM      7  C   UNL     1       1.044  12.753  19.719  0.00  0.00    +0.000 C 
ATOM      8  N   UNL     1      -0.023  12.227  20.559  0.00  0.00    +0.000 N 
ATOM      9  C   UNL     1      -0.144  12.819  21.828  0.00  0.00    +0.000 C 
ATOM     10  O   UNL     1       0.576  13.719  22.250  0.00  0.00    +0.000 OA
BRANCH   9  11
ATOM     11  C   UNL     1      -1.291  12.391  22.728  0.00  0.00    +0.000 C 
ATOM     12  O   UNL     1      -1.132  11.486  23.539  0.00  0.00    +0.000 OA
BRANCH  11  13
ATOM     13  C   UNL     1      -2.578  13.119  22.630  0.00  0.00    +0.000 A 
ATOM     14  C   UNL     1      -3.322  13.152  21.445  0.00  0.00    +0.000 A 
ATOM     15  C   UNL     1      -4.527  13.854  21.401  0.00  0.00    +0.000 A 
ATOM     16  C   UNL     1      -4.989  14.526  22.534  0.00  0.00    +0.000 A 
ATOM     17  C   UNL     1      -4.252  14.495  23.716  0.00  0.00    +0.000 A 
ATOM     18  C   UNL     1      -3.048  13.793  23.765  0.00  0.00    +0.000 A 
ENDBRANCH  11  13
ENDBRANCH   9  11
ENDBRANCH   1   8
BRANCH   4  19
ATOM     19  C   UNL     1       2.439   8.934  18.159  0.00  0.00    +0.000 C 
BRANCH  19  20
ATOM     20  C   UNL     1       2.629   7.515  17.605  0.00  0.00    +0.000 C 
BRANCH  20  21
ATOM     21  C   UNL     1       3.322   6.532  18.575  0.00  0.00    +0.000 C 
BRANCH  21  22
ATOM     22  C   UNL     1       2.363   5.433  19.041  0.00  0.00    +0.000 A 
ATOM     23  C   UNL     1       2.084   5.201  20.398  0.00  0.00    +0.000 A 
ATOM     24  C   UNL     1       1.401   4.051  20.806  0.00  0.00    +0.000 A 
ATOM     25  C   UNL     1       0.974   3.119  19.866  0.00  0.00    +0.000 A 
ATOM     26  C   UNL     1       1.190   3.359  18.512  0.00  0.00    +0.000 A 
ATOM     27  C   UNL     1       1.870   4.510  18.102  0.00  0.00    +0.000 A 
ENDBRANCH  21  22
BRANCH  21  28
ATOM     28  C   UNL     1       4.636   6.068  17.943  0.00  0.00    +0.000 A 
ATOM     29  C   UNL     1       4.819   6.192  16.556  0.00  0.00    +0.000 A 
ATOM     30  C   UNL     1       5.945   5.649  15.928  0.00  0.00    +0.000 A 
ATOM     31  C   UNL     1       6.912   4.982  16.676  0.00  0.00    +0.000 A 
ATOM     32  C   UNL     1       6.752   4.851  18.051  0.00  0.00    +0.000 A 
ATOM     33  C   UNL     1       5.624   5.387  18.677  0.00  0.00    +0.000 A 
ENDBRANCH  21  28
ENDBRANCH  20  21
ENDBRANCH  19  20
ENDBRANCH   4  19
TORSDOF 8
ENDMDL
MODEL 7
REMARK VINA RESULT:      -8.5      1.603      3.741
REMARK  Name = 
REMARK  9 active torsions:
REMARK  status: ('A' for Active; 'I' for Inactive)
REMARK    1  A    between atoms: C_1  and  N_2
REMARK    2  A    between atoms: N_2  and  C_13
REMARK    3  A    between atoms: C_3  and  C_5
REMARK    4  A    between atoms: C_5  and  C_7
REMARK    5  A    between atoms: N_16  and  C_17
REMARK    6  A    between atoms: C_17  and  C_18
REMARK    7  A    between atoms: C_18  and  C_19
REMARK    8  A    between atoms: C_19  and  C_20
REMARK    9  A    between atoms: C_19  and  C_26
REMARK                            x       y       z     vdW  Elec       q    Type
REMARK                         _______ _______ _______ _____ _____    ______ ____
ROOT
ATOM      1  C   UNL     1       0.232  11.110  19.773  0.00  0.00    +0.000 C 
ATOM      2  C   UNL     1       1.387  11.589  18.894  0.00  0.00    +0.000 C 
ATOM      3  C   UNL     1       1.894  10.491  17.980  0.00  0.00    +0.000 C 
ATOM      4  N   UNL     1       2.328   9.278  18.689  0.00  0.00    +0.000 NA
ATOM      5  C   UNL     1       1.366   8.794  19.689  0.00  0.00    +0.000 C 
ATOM      6  C   UNL     1       0.739   9.890  20.563  0.00  0.00    +0.000 C 
ENDROOT
BRANCH   1   8
ATOM      7  C   UNL     1      -1.197   9.852  18.064  0.00  0.00    +0.000 C 
ATOM      8  N   UNL     1      -1.042  10.940  19.019  0.00  0.00    +0.000 N 
ATOM      9  C   UNL     1      -2.055  11.914  18.999  0.00  0.00    +0.000 C 
ATOM     10  O   UNL     1      -3.026  11.897  18.246  0.00  0.00    +0.000 OA
BRANCH   9  11
ATOM     11  C   UNL     1      -2.017  13.031  20.027  0.00  0.00    +0.000 C 
ATOM     12  O   UNL     1      -1.372  14.050  19.805  0.00  0.00    +0.000 OA
BRANCH  11  13
ATOM     13  C   UNL     1      -2.805  12.877  21.273  0.00  0.00    +0.000 A 
ATOM     14  C   UNL     1      -4.170  13.185  21.328  0.00  0.00    +0.000 A 
ATOM     15  C   UNL     1      -4.869  13.027  22.525  0.00  0.00    +0.000 A 
ATOM     16  C   UNL     1      -4.210  12.567  23.667  0.00  0.00    +0.000 A 
ATOM     17  C   UNL     1      -2.853  12.259  23.616  0.00  0.00    +0.000 A 
ATOM     18  C   UNL     1      -2.150  12.413  22.421  0.00  0.00    +0.000 A 
ENDBRANCH  11  13
ENDBRANCH   9  11
ENDBRANCH   1   8
BRANCH   4  19
ATOM     19  C   UNL     1       2.623   8.194  17.719  0.00  0.00    +0.000 C 
BRANCH  19  20
ATOM     20  C   UNL     1       2.859   6.853  18.428  0.00  0.00    +0.000 C 
BRANCH  20  21
ATOM     21  C   UNL     1       3.629   5.808  17.590  0.00  0.00    +0.000 C 
BRANCH  21  22
ATOM     22  C   UNL     1       5.134   5.862  17.870  0.00  0.00    +0.000 A 
ATOM     23  C   UNL     1       5.708   5.292  19.018  0.00  0.00    +0.000 A 
ATOM     24  C   UNL     1       7.036   5.560  19.368  0.00  0.00    +0.000 A 
ATOM     25  C   UNL     1       7.815   6.391  18.571  0.00  0.00    +0.000 A 
ATOM     26  C   UNL     1       7.283   6.919  17.398  0.00  0.00    +0.000 A 
ATOM     27  C   UNL     1       5.957   6.649  17.045  0.00  0.00    +0.000 A 
ENDBRANCH  21  22
BRANCH  21  28
ATOM     28  C   UNL     1       2.952   4.447  17.765  0.00  0.00    +0.000 A 
ATOM     29  C   UNL     1       1.687   4.376  18.373  0.00  0.00    +0.000 A 
ATOM     30  C   UNL     1       1.104   3.141  18.676  0.00  0.00    +0.000 A 
ATOM     31  C   UNL     1       1.770   1.957  18.370  0.00  0.00    +0.000 A 
ATOM     32  C   UNL     1       3.020   2.004  17.764  0.00  0.00    +0.000 A 
ATOM     33  C   UNL     1       3.606   3.238  17.467  0.00  0.00    +0.000 A 
ENDBRANCH  21  28
ENDBRANCH  20  21
ENDBRANCH  19  20
ENDBRANCH   4  19
TORSDOF 8
ENDMDL
MODEL 8
REMARK VINA RESULT:      -8.4      0.627      1.237
REMARK  Name = 
REMARK  9 active torsions:
REMARK  status: ('A' for Active; 'I' for Inactive)
REMARK    1  A    between atoms: C_1  and  N_2
REMARK    2  A    between atoms: N_2  and  C_13
REMARK    3  A    between atoms: C_3  and  C_5
REMARK    4  A    between atoms: C_5  and  C_7
REMARK    5  A    between atoms: N_16  and  C_17
REMARK    6  A    between atoms: C_17  and  C_18
REMARK    7  A    between atoms: C_18  and  C_19
REMARK    8  A    between atoms: C_19  and  C_20
REMARK    9  A    between atoms: C_19  and  C_26
REMARK                            x       y       z     vdW  Elec       q    Type
REMARK                         _______ _______ _______ _____ _____    ______ ____
ROOT
ATOM      1  C   UNL     1      -0.425  10.529  20.024  0.00  0.00    +0.000 C 
ATOM      2  C   UNL     1       0.163   9.322  20.754  0.00  0.00    +0.000 C 
ATOM      3  C   UNL     1       1.495   8.900  20.166  0.00  0.00    +0.000 C 
ATOM      4  N   UNL     1       1.440   8.586  18.731  0.00  0.00    +0.000 NA
ATOM      5  C   UNL     1       0.752   9.603  17.923  0.00  0.00    +0.000 C 
ATOM      6  C   UNL     1      -0.546  10.144  18.538  0.00  0.00    +0.000 C 
ENDROOT
BRANCH   1   8
ATOM      7  C   UNL     1       1.330  12.299  19.447  0.00  0.00    +0.000 C 
ATOM      8  N   UNL     1       0.287  11.801  20.333  0.00  0.00    +0.000 N 
ATOM      9  C   UNL     1       0.175  12.460  21.569  0.00  0.00    +0.000 C 
ATOM     10  O   UNL     1       0.885  13.396  21.929  0.00  0.00    +0.000 OA
BRANCH   9  11
ATOM     11  C   UNL     1      -0.948  12.062  22.511  0.00  0.00    +0.000 C 
ATOM     12  O   UNL     1      -0.792  11.138  23.300  0.00  0.00    +0.000 OA
BRANCH  11  13
ATOM     13  C   UNL     1      -2.209  12.842  22.481  0.00  0.00    +0.000 A 
ATOM     14  C   UNL     1      -2.523  13.780  23.471  0.00  0.00    +0.000 A 
ATOM     15  C   UNL     1      -3.724  14.487  23.401  0.00  0.00    +0.000 A 
ATOM     16  C   UNL     1      -4.613  14.258  22.350  0.00  0.00    +0.000 A 
ATOM     17  C   UNL     1      -4.304  13.326  21.362  0.00  0.00    +0.000 A 
ATOM     18  C   UNL     1      -3.103  12.618  21.426  0.00  0.00    +0.000 A 
ENDBRANCH  11  13
ENDBRANCH   9  11
ENDBRANCH   1   8
BRANCH   4  19
ATOM     19  C   UNL     1       2.810   8.374  18.199  0.00  0.00    +0.000 C 
BRANCH  19  20
ATOM     20  C   UNL     1       2.945   7.001  17.526  0.00  0.00    +0.000 C 
BRANCH  20  21
ATOM     21  C   UNL     1       3.741   5.958  18.342  0.00  0.00    +0.000 C 
BRANCH  21  22
ATOM     22  C   UNL     1       2.823   4.879  18.922  0.00  0.00    +0.000 A 
ATOM     23  C   UNL     1       2.499   3.707  18.219  0.00  0.00    +0.000 A 
ATOM     24  C   UNL     1       1.480   2.859  18.664  0.00  0.00    +0.000 A 
ATOM     25  C   UNL     1       0.775   3.160  19.824  0.00  0.00    +0.000 A 
ATOM     26  C   UNL     1       1.120   4.285  20.567  0.00  0.00    +0.000 A 
ATOM     27  C   UNL     1       2.141   5.133  20.125  0.00  0.00    +0.000 A 
ENDBRANCH  21  22
BRANCH  21  28
ATOM     28  C   UNL     1       4.918   5.469  17.494  0.00  0.00    +0.000 A 
ATOM     29  C   UNL     1       6.060   4.952  18.127  0.00  0.00    +0.000 A 
ATOM     30  C   UNL     1       7.205   4.630  17.392  0.00  0.00    +0.000 A 
ATOM     31  C   UNL     1       7.226   4.811  16.011  0.00  0.00    +0.000 A 
ATOM     32  C   UNL     1       6.105   5.318  15.364  0.00  0.00    +0.000 A 
ATOM     33  C   UNL     1       4.963   5.646  16.099  0.00  0.00    +0.000 A 
ENDBRANCH  21  28
ENDBRANCH  20  21
ENDBRANCH  19  20
ENDBRANCH   4  19
TORSDOF 8
ENDMDL
MODEL 9
REMARK VINA RESULT:      -8.4      0.939      3.625
REMARK  Name = 
REMARK  9 active torsions:
REMARK  status: ('A' for Active; 'I' for Inactive)
REMARK    1  A    between atoms: C_1  and  N_2
REMARK    2  A    between atoms: N_2  and  C_13
REMARK    3  A    between atoms: C_3  and  C_5
REMARK    4  A    between atoms: C_5  and  C_7
REMARK    5  A    between atoms: N_16  and  C_17
REMARK    6  A    between atoms: C_17  and  C_18
REMARK    7  A    between atoms: C_18  and  C_19
REMARK    8  A    between atoms: C_19  and  C_20
REMARK    9  A    between atoms: C_19  and  C_26
REMARK                            x       y       z     vdW  Elec       q    Type
REMARK                         _______ _______ _______ _____ _____    ______ ____
ROOT
ATOM      1  C   UNL     1       0.298  10.955  19.605  0.00  0.00    +0.000 C 
ATOM      2  C   UNL     1      -0.344   9.985  18.614  0.00  0.00    +0.000 C 
ATOM      3  C   UNL     1       0.626   8.908  18.167  0.00  0.00    +0.000 C 
ATOM      4  N   UNL     1       1.860   9.432  17.564  0.00  0.00    +0.000 NA
ATOM      5  C   UNL     1       2.503  10.495  18.348  0.00  0.00    +0.000 C 
ATOM      6  C   UNL     1       1.542  11.547  18.918  0.00  0.00    +0.000 C 
ENDROOT
BRANCH   1   8
ATOM      7  C   UNL     1       1.076   9.032  21.103  0.00  0.00    +0.000 C 
ATOM      8  N   UNL     1       0.497  10.360  20.957  0.00  0.00    +0.000 N 
ATOM      9  C   UNL     1      -0.056  10.912  22.126  0.00  0.00    +0.000 C 
ATOM     10  O   UNL     1      -0.077  10.354  23.220  0.00  0.00    +0.000 OA
BRANCH   9  11
ATOM     11  C   UNL     1      -0.596  12.330  22.079  0.00  0.00    +0.000 C 
ATOM     12  O   UNL     1       0.176  13.283  22.083  0.00  0.00    +0.000 OA
BRANCH  11  13
ATOM     13  C   UNL     1      -2.062  12.529  21.986  0.00  0.00    +0.000 A 
ATOM     14  C   UNL     1      -2.709  12.699  20.757  0.00  0.00    +0.000 A 
ATOM     15  C   UNL     1      -4.092  12.887  20.721  0.00  0.00    +0.000 A 
ATOM     16  C   UNL     1      -4.828  12.909  21.907  0.00  0.00    +0.000 A 
ATOM     17  C   UNL     1      -4.188  12.739  23.132  0.00  0.00    +0.000 A 
ATOM     18  C   UNL     1      -2.807  12.549  23.173  0.00  0.00    +0.000 A 
ENDBRANCH  11  13
ENDBRANCH   9  11
ENDBRANCH   1   8
BRANCH   4  19
ATOM     19  C   UNL     1       2.827   8.330  17.336  0.00  0.00    +0.000 C 
BRANCH  19  20
ATOM     20  C   UNL     1       2.704   7.240  18.411  0.00  0.00    +0.000 C 
BRANCH  20  21
ATOM     21  C   UNL     1       2.945   5.802  17.901  0.00  0.00    +0.000 C 
BRANCH  21  22
ATOM     22  C   UNL     1       4.399   5.595  17.468  0.00  0.00    +0.000 A 
ATOM     23  C   UNL     1       5.482   6.132  18.183  0.00  0.00    +0.000 A 
ATOM     24  C   UNL     1       6.772   6.133  17.642  0.00  0.00    +0.000 A 
ATOM     25  C   UNL     1       7.005   5.588  16.384  0.00  0.00    +0.000 A 
ATOM     26  C   UNL     1       5.956   4.998  15.685  0.00  0.00    +0.000 A 
ATOM     27  C   UNL     1       4.666   4.993  16.225  0.00  0.00    +0.000 A 
ENDBRANCH  21  22
BRANCH  21  28
ATOM     28  C   UNL     1       2.396   4.819  18.937  0.00  0.00    +0.000 A 
ATOM     29  C   UNL     1       1.470   3.840  18.540  0.00  0.00    +0.000 A 
ATOM     30  C   UNL     1       0.842   3.020  19.484  0.00  0.00    +0.000 A 
ATOM     31  C   UNL     1       1.134   3.158  20.839  0.00  0.00    +0.000 A 
ATOM     32  C   UNL     1       2.051   4.118  21.253  0.00  0.00    +0.000 A 
ATOM     33  C   UNL     1       2.673   4.941  20.311  0.00  0.00    +0.000 A 
ENDBRANCH  21  28
ENDBRANCH  20  21
ENDBRANCH  19  20
ENDBRANCH   4  19
TORSDOF 8
ENDMDL
