MODEL 1
REMARK VINA RESULT:      -7.6      0.000      0.000
REMARK  Name = 
REMARK  9 active torsions:
REMARK  status: ('A' for Active; 'I' for Inactive)
REMARK    1  A    between atoms: N_1  and  C_2
REMARK    2  A    between atoms: C_2  and  C_3
REMARK    3  A    between atoms: C_3  and  N_4
REMARK    4  A    between atoms: C_3  and  C_22
REMARK    5  A    between atoms: C_5  and  C_7
REMARK    6  A    between atoms: C_10  and  C_11
REMARK    7  A    between atoms: C_14  and  C_15
REMARK    8  A    between atoms: C_24  and  C_25
REMARK    9  A    between atoms: C_25  and  O_26
REMARK                            x       y       z     vdW  Elec       q    Type
REMARK                         _______ _______ _______ _____ _____    ______ ____
ROOT
ATOM      1  N   UNK     1       3.178   5.775  18.155  0.00  0.00    +0.000 N 
ATOM      2  C   UNK     1       2.578   6.214  19.307  0.00  0.00    +0.000 C 
ATOM      3  O   UNK     1       2.425   5.498  20.302  0.00  0.00    +0.000 OA
ATOM      4  H   UNK     1       3.366   6.431  17.404  0.00  0.00    +0.000 HD
ENDROOT
BRANCH   2   5
ATOM      5  C   UNK     1       2.082   7.568  19.274  0.00  0.00    +0.000 A 
ATOM      6  C   UNK     1       2.125   8.512  18.264  0.00  0.00    +0.000 A 
ATOM      7  C   UNK     1       1.389   9.637  18.691  0.00  0.00    +0.000 A 
ATOM      8  C   UNK     1       0.948   9.408  19.976  0.00  0.00    +0.000 A 
ATOM      9  N   UNK     1       1.385   8.142  20.323  0.00  0.00    +0.000 N 
ATOM     10  H   UNK     1       1.169   7.656  21.187  0.00  0.00    +0.000 HD
BRANCH   8  11
ATOM     11  C   UNK     1       0.115  10.236  20.845  0.00  0.00    +0.000 A 
ATOM     12  C   UNK     1      -0.124   9.878  22.170  0.00  0.00    +0.000 A 
ATOM     13  C   UNK     1      -0.978  10.649  22.959  0.00  0.00    +0.000 A 
ATOM     14  C   UNK     1      -1.582  11.782  22.412  0.00  0.00    +0.000 A 
ATOM     15  N   UNK     1      -1.336  12.167  21.125  0.00  0.00    +0.000 NA
ATOM     16  C   UNK     1      -0.502  11.395  20.383  0.00  0.00    +0.000 A 
BRANCH  14  17
ATOM     17  C   UNK     1      -2.561  12.600  23.251  0.00  0.00    +0.000 C 
ATOM     18  F   UNK     1      -3.308  11.834  24.103  0.00  0.00    +0.000 F 
ATOM     19  F   UNK     1      -1.950  13.530  24.039  0.00  0.00    +0.000 F 
ATOM     20  F   UNK     1      -3.470  13.286  22.497  0.00  0.00    +0.000 F 
ENDBRANCH  14  17
ENDBRANCH   8  11
ENDBRANCH   2   5
BRANCH   1  21
ATOM     21  C   UNK     1       3.709   4.415  17.994  0.00  0.00    +0.000 C 
BRANCH  21  22
ATOM     22  C   UNK     1       5.017   4.468  17.206  0.00  0.00    +0.000 A 
ATOM     23  N   UNK     1       5.123   4.339  15.892  0.00  0.00    +0.000 NA
ATOM     24  C   UNK     1       6.446   4.540  15.491  0.00  0.00    +0.000 A 
ATOM     25  C   UNK     1       7.329   4.806  16.520  0.00  0.00    +0.000 A 
ATOM     26  S   UNK     1       6.524   4.680  18.029  0.00  0.00    +0.000 S 
BRANCH  24  27
ATOM     27  C   UNK     1       6.790   4.454  14.036  0.00  0.00    +0.000 C 
BRANCH  27  28
ATOM     28  O   UNK     1       6.236   3.297  13.411  0.00  0.00    +0.000 OA
ATOM     29  H   UNK     1       5.422   3.104  13.912  0.00  0.00    +0.000 HD
ENDBRANCH  27  28
ENDBRANCH  24  27
ENDBRANCH  21  22
BRANCH  21  30
ATOM     30  C   UNK     1       2.687   3.497  17.272  0.00  0.00    +0.000 C 
BRANCH  30  31
ATOM     31  N   UNK     1       1.377   3.421  17.927  0.00  0.00    +0.000 NA
ATOM     32  H   UNK     1       1.180   2.461  18.206  0.00  0.00    +0.000 HD
ATOM     33  H   UNK     1       0.658   3.661  17.241  0.00  0.00    +0.000 HD
ENDBRANCH  30  31
ENDBRANCH  21  30
ENDBRANCH   1  21
TORSDOF 9
ENDMDL
MODEL 2
REMARK VINA RESULT:      -7.5      6.336      9.851
REMARK  Name = 
REMARK  9 active torsions:
REMARK  status: ('A' for Active; 'I' for Inactive)
REMARK    1  A    between atoms: N_1  and  C_2
REMARK    2  A    between atoms: C_2  and  C_3
REMARK    3  A    between atoms: C_3  and  N_4
REMARK    4  A    between atoms: C_3  and  C_22
REMARK    5  A    between atoms: C_5  and  C_7
REMARK    6  A    between atoms: C_10  and  C_11
REMARK    7  A    between atoms: C_14  and  C_15
REMARK    8  A    between atoms: C_24  and  C_25
REMARK    9  A    between atoms: C_25  and  O_26
REMARK                            x       y       z     vdW  Elec       q    Type
REMARK                         _______ _______ _______ _____ _____    ______ ____
ROOT
ATOM      1  N   UNK     1       0.271   9.727  19.596  0.00  0.00    +0.000 N 
ATOM      2  C   UNK     1       0.952   9.120  20.620  0.00  0.00    +0.000 C 
ATOM      3  O   UNK     1       1.058   9.615  21.745  0.00  0.00    +0.000 OA
ATOM      4  H   UNK     1       0.131   9.232  18.721  0.00  0.00    +0.000 HD
ENDROOT
BRANCH   2   5
ATOM      5  C   UNK     1       1.591   7.870  20.287  0.00  0.00    +0.000 A 
ATOM      6  C   UNK     1       1.482   6.625  20.880  0.00  0.00    +0.000 A 
ATOM      7  C   UNK     1       2.217   5.708  20.098  0.00  0.00    +0.000 A 
ATOM      8  C   UNK     1       2.819   6.397  19.068  0.00  0.00    +0.000 A 
ATOM      9  N   UNK     1       2.434   7.719  19.200  0.00  0.00    +0.000 N 
ATOM     10  H   UNK     1       2.663   8.470  18.558  0.00  0.00    +0.000 HD
BRANCH   8  11
ATOM     11  C   UNK     1       3.645   5.908  17.967  0.00  0.00    +0.000 A 
ATOM     12  C   UNK     1       4.408   6.780  17.194  0.00  0.00    +0.000 A 
ATOM     13  C   UNK     1       5.134   6.296  16.106  0.00  0.00    +0.000 A 
ATOM     14  C   UNK     1       5.095   4.933  15.805  0.00  0.00    +0.000 A 
ATOM     15  N   UNK     1       4.379   4.058  16.569  0.00  0.00    +0.000 NA
ATOM     16  C   UNK     1       3.681   4.560  17.620  0.00  0.00    +0.000 A 
BRANCH  14  17
ATOM     17  C   UNK     1       5.842   4.405  14.583  0.00  0.00    +0.000 C 
ATOM     18  F   UNK     1       6.773   5.282  14.101  0.00  0.00    +0.000 F 
ATOM     19  F   UNK     1       6.524   3.248  14.826  0.00  0.00    +0.000 F 
ATOM     20  F   UNK     1       5.020   4.140  13.525  0.00  0.00    +0.000 F 
ENDBRANCH  14  17
ENDBRANCH   8  11
ENDBRANCH   2   5
BRANCH   1  21
ATOM     21  C   UNK     1      -0.409  11.021  19.741  0.00  0.00    +0.000 C 
BRANCH  21  22
ATOM     22  C   UNK     1      -1.519  11.133  18.697  0.00  0.00    +0.000 A 
ATOM     23  N   UNK     1      -1.465  10.639  17.469  0.00  0.00    +0.000 NA
ATOM     24  C   UNK     1      -2.686  10.831  16.817  0.00  0.00    +0.000 A 
ATOM     25  C   UNK     1      -3.645  11.487  17.564  0.00  0.00    +0.000 A 
ATOM     26  S   UNK     1      -2.979  11.986  19.063  0.00  0.00    +0.000 S 
BRANCH  24  27
ATOM     27  C   UNK     1      -2.851  10.332  15.414  0.00  0.00    +0.000 C 
BRANCH  27  28
ATOM     28  O   UNK     1      -4.220  10.200  15.038  0.00  0.00    +0.000 OA
ATOM     29  H   UNK     1      -4.379   9.239  14.997  0.00  0.00    +0.000 HD
ENDBRANCH  27  28
ENDBRANCH  24  27
ENDBRANCH  21  22
BRANCH  21  30
ATOM     30  C   UNK     1       0.589  12.199  19.588  0.00  0.00    +0.000 C 
BRANCH  30  31
ATOM     31  N   UNK     1       0.971  12.490  18.202  0.00  0.00    +0.000 NA
ATOM     32  H   UNK     1       1.196  13.478  18.100  0.00  0.00    +0.000 HD
ATOM     33  H   UNK     1       0.159  12.330  17.603  0.00  0.00    +0.000 HD
ENDBRANCH  30  31
ENDBRANCH  21  30
ENDBRANCH   1  21
TORSDOF 9
ENDMDL
MODEL 3
REMARK VINA RESULT:      -7.5      0.855      1.122
REMARK  Name = 
REMARK  9 active torsions:
REMARK  status: ('A' for Active; 'I' for Inactive)
REMARK    1  A    between atoms: N_1  and  C_2
REMARK    2  A    between atoms: C_2  and  C_3
REMARK    3  A    between atoms: C_3  and  N_4
REMARK    4  A    between atoms: C_3  and  C_22
REMARK    5  A    between atoms: C_5  and  C_7
REMARK    6  A    between atoms: C_10  and  C_11
REMARK    7  A    between atoms: C_14  and  C_15
REMARK    8  A    between atoms: C_24  and  C_25
REMARK    9  A    between atoms: C_25  and  O_26
REMARK                            x       y       z     vdW  Elec       q    Type
REMARK                         _______ _______ _______ _____ _____    ______ ____
ROOT
ATOM      1  N   UNK     1       2.876   5.676  17.985  0.00  0.00    +0.000 N 
ATOM      2  C   UNK     1       2.815   6.425  19.133  0.00  0.00    +0.000 C 
ATOM      3  O   UNK     1       3.248   6.028  20.219  0.00  0.00    +0.000 OA
ATOM      4  H   UNK     1       2.595   6.086  17.101  0.00  0.00    +0.000 HD
ENDROOT
BRANCH   2   5
ATOM      5  C   UNK     1       2.160   7.704  19.007  0.00  0.00    +0.000 A 
ATOM      6  C   UNK     1       1.954   8.497  17.893  0.00  0.00    +0.000 A 
ATOM      7  C   UNK     1       1.153   9.591  18.283  0.00  0.00    +0.000 A 
ATOM      8  C   UNK     1       0.920   9.500  19.637  0.00  0.00    +0.000 A 
ATOM      9  N   UNK     1       1.548   8.346  20.069  0.00  0.00    +0.000 N 
ATOM     10  H   UNK     1       1.510   7.966  21.009  0.00  0.00    +0.000 HD
BRANCH   8  11
ATOM     11  C   UNK     1       0.119  10.353  20.513  0.00  0.00    +0.000 A 
ATOM     12  C   UNK     1      -0.796  11.265  19.993  0.00  0.00    +0.000 A 
ATOM     13  C   UNK     1      -1.498  12.116  20.847  0.00  0.00    +0.000 A 
ATOM     14  C   UNK     1      -1.280  12.039  22.224  0.00  0.00    +0.000 A 
ATOM     15  N   UNK     1      -0.410  11.130  22.755  0.00  0.00    +0.000 NA
ATOM     16  C   UNK     1       0.259  10.318  21.897  0.00  0.00    +0.000 A 
BRANCH  14  17
ATOM     17  C   UNK     1      -2.002  13.003  23.161  0.00  0.00    +0.000 C 
ATOM     18  F   UNK     1      -2.920  12.387  23.965  0.00  0.00    +0.000 F 
ATOM     19  F   UNK     1      -1.160  13.662  24.010  0.00  0.00    +0.000 F 
ATOM     20  F   UNK     1      -2.700  13.973  22.499  0.00  0.00    +0.000 F 
ENDBRANCH  14  17
ENDBRANCH   8  11
ENDBRANCH   2   5
BRANCH   1  21
ATOM     21  C   UNK     1       3.472   4.334  17.933  0.00  0.00    +0.000 C 
BRANCH  21  22
ATOM     22  C   UNK     1       4.829   4.406  17.236  0.00  0.00    +0.000 A 
ATOM     23  N   UNK     1       5.024   4.300  15.929  0.00  0.00    +0.000 NA
ATOM     24  C   UNK     1       6.370   4.514  15.622  0.00  0.00    +0.000 A 
ATOM     25  C   UNK     1       7.180   4.765  16.713  0.00  0.00    +0.000 A 
ATOM     26  S   UNK     1       6.276   4.610  18.161  0.00  0.00    +0.000 S 
BRANCH  24  27
ATOM     27  C   UNK     1       6.811   4.455  14.192  0.00  0.00    +0.000 C 
BRANCH  27  28
ATOM     28  O   UNK     1       7.822   5.415  13.892  0.00  0.00    +0.000 OA
ATOM     29  H   UNK     1       8.543   5.229  14.522  0.00  0.00    +0.000 HD
ENDBRANCH  27  28
ENDBRANCH  24  27
ENDBRANCH  21  22
BRANCH  21  30
ATOM     30  C   UNK     1       2.542   3.337  17.191  0.00  0.00    +0.000 C 
BRANCH  30  31
ATOM     31  N   UNK     1       1.243   3.126  17.839  0.00  0.00    +0.000 NA
ATOM     32  H   UNK     1       1.360   2.568  18.683  0.00  0.00    +0.000 HD
ATOM     33  H   UNK     1       0.659   2.564  17.217  0.00  0.00    +0.000 HD
ENDBRANCH  30  31
ENDBRANCH  21  30
ENDBRANCH   1  21
TORSDOF 9
ENDMDL
MODEL 4
REMARK VINA RESULT:      -7.5      0.985      1.446
REMARK  Name = 
REMARK  9 active torsions:
REMARK  status: ('A' for Active; 'I' for Inactive)
REMARK    1  A    between atoms: N_1  and  C_2
REMARK    2  A    between atoms: C_2  and  C_3
REMARK    3  A    between atoms: C_3  and  N_4
REMARK    4  A    between atoms: C_3  and  C_22
REMARK    5  A    between atoms: C_5  and  C_7
REMARK    6  A    between atoms: C_10  and  C_11
REMARK    7  A    between atoms: C_14  and  C_15
REMARK    8  A    between atoms: C_24  and  C_25
REMARK    9  A    between atoms: C_25  and  O_26
REMARK                            x       y       z     vdW  Elec       q    Type
REMARK                         _______ _______ _______ _____ _____    ______ ____
ROOT
ATOM      1  N   UNK     1       3.743   5.647  17.890  0.00  0.00    +0.000 N 
ATOM      2  C   UNK     1       3.189   6.141  19.042  0.00  0.00    +0.000 C 
ATOM      3  O   UNK     1       3.225   5.539  20.119  0.00  0.00    +0.000 OA
ATOM      4  H   UNK     1       3.771   6.225  17.056  0.00  0.00    +0.000 HD
ENDROOT
BRANCH   2   5
ATOM      5  C   UNK     1       2.506   7.405  18.913  0.00  0.00    +0.000 A 
ATOM      6  C   UNK     1       2.311   8.206  17.802  0.00  0.00    +0.000 A 
ATOM      7  C   UNK     1       1.472   9.275  18.181  0.00  0.00    +0.000 A 
ATOM      8  C   UNK     1       1.202   9.162  19.527  0.00  0.00    +0.000 A 
ATOM      9  N   UNK     1       1.847   8.019  19.963  0.00  0.00    +0.000 N 
ATOM     10  H   UNK     1       1.792   7.626  20.898  0.00  0.00    +0.000 HD
BRANCH   8  11
ATOM     11  C   UNK     1       0.355   9.984  20.389  0.00  0.00    +0.000 A 
ATOM     12  C   UNK     1      -0.652  10.786  19.859  0.00  0.00    +0.000 A 
ATOM     13  C   UNK     1      -1.401  11.613  20.696  0.00  0.00    +0.000 A 
ATOM     14  C   UNK     1      -1.137  11.622  22.067  0.00  0.00    +0.000 A 
ATOM     15  N   UNK     1      -0.175  10.820  22.610  0.00  0.00    +0.000 NA
ATOM     16  C   UNK     1       0.538  10.028  21.768  0.00  0.00    +0.000 A 
BRANCH  14  17
ATOM     17  C   UNK     1      -1.913  12.565  22.982  0.00  0.00    +0.000 C 
ATOM     18  F   UNK     1      -2.689  13.460  22.299  0.00  0.00    +0.000 F 
ATOM     19  F   UNK     1      -2.766  11.916  23.827  0.00  0.00    +0.000 F 
ATOM     20  F   UNK     1      -1.105  13.326  23.778  0.00  0.00    +0.000 F 
ENDBRANCH  14  17
ENDBRANCH   8  11
ENDBRANCH   2   5
BRANCH   1  21
ATOM     21  C   UNK     1       4.444   4.358  17.824  0.00  0.00    +0.000 C 
BRANCH  21  22
ATOM     22  C   UNK     1       5.365   4.339  16.606  0.00  0.00    +0.000 A 
ATOM     23  N   UNK     1       5.047   3.856  15.414  0.00  0.00    +0.000 NA
ATOM     24  C   UNK     1       6.081   4.091  14.505  0.00  0.00    +0.000 A 
ATOM     25  C   UNK     1       7.180   4.740  15.032  0.00  0.00    +0.000 A 
ATOM     26  S   UNK     1       6.979   4.953  16.721  0.00  0.00    +0.000 S 
BRANCH  24  27
ATOM     27  C   UNK     1       5.923   3.636  13.086  0.00  0.00    +0.000 C 
BRANCH  27  28
ATOM     28  O   UNK     1       7.029   4.008  12.266  0.00  0.00    +0.000 OA
ATOM     29  H   UNK     1       7.179   3.243  11.681  0.00  0.00    +0.000 HD
ENDBRANCH  27  28
ENDBRANCH  24  27
ENDBRANCH  21  22
BRANCH  21  30
ATOM     30  C   UNK     1       3.440   3.177  17.753  0.00  0.00    +0.000 C 
BRANCH  30  31
ATOM     31  N   UNK     1       2.231   3.460  16.970  0.00  0.00    +0.000 NA
ATOM     32  H   UNK     1       1.679   2.612  16.859  0.00  0.00    +0.000 HD
ATOM     33  H   UNK     1       2.514   3.730  16.026  0.00  0.00    +0.000 HD
ENDBRANCH  30  31
ENDBRANCH  21  30
ENDBRANCH   1  21
TORSDOF 9
ENDMDL
MODEL 5
REMARK VINA RESULT:      -7.4      6.330     10.199
REMARK  Name = 
REMARK  9 active torsions:
REMARK  status: ('A' for Active; 'I' for Inactive)
REMARK    1  A    between atoms: N_1  and  C_2
REMARK    2  A    between atoms: C_2  and  C_3
REMARK    3  A    between atoms: C_3  and  N_4
REMARK    4  A    between atoms: C_3  and  C_22
REMARK    5  A    between atoms: C_5  and  C_7
REMARK    6  A    between atoms: C_10  and  C_11
REMARK    7  A    between atoms: C_14  and  C_15
REMARK    8  A    between atoms: C_24  and  C_25
REMARK    9  A    between atoms: C_25  and  O_26
REMARK                            x       y       z     vdW  Elec       q    Type
REMARK                         _______ _______ _______ _____ _____    ______ ____
ROOT
ATOM      1  N   UNK     1      -0.337  10.106  19.360  0.00  0.00    +0.000 N 
ATOM      2  C   UNK     1       0.605   9.844  20.322  0.00  0.00    +0.000 C 
ATOM      3  O   UNK     1       0.888  10.641  21.222  0.00  0.00    +0.000 OA
ATOM      4  H   UNK     1      -0.601   9.380  18.703  0.00  0.00    +0.000 HD
ENDROOT
BRANCH   2   5
ATOM      5  C   UNK     1       1.293   8.584  20.192  0.00  0.00    +0.000 A 
ATOM      6  C   UNK     1       1.290   7.474  21.019  0.00  0.00    +0.000 A 
ATOM      7  C   UNK     1       2.029   6.456  20.379  0.00  0.00    +0.000 A 
ATOM      8  C   UNK     1       2.530   6.957  19.197  0.00  0.00    +0.000 A 
ATOM      9  N   UNK     1       2.079   8.261  19.100  0.00  0.00    +0.000 N 
ATOM     10  H   UNK     1       2.226   8.883  18.311  0.00  0.00    +0.000 HD
BRANCH   8  11
ATOM     11  C   UNK     1       3.317   6.300  18.156  0.00  0.00    +0.000 A 
ATOM     12  C   UNK     1       3.280   4.919  17.986  0.00  0.00    +0.000 A 
ATOM     13  C   UNK     1       4.092   4.310  17.030  0.00  0.00    +0.000 A 
ATOM     14  C   UNK     1       4.936   5.097  16.243  0.00  0.00    +0.000 A 
ATOM     15  N   UNK     1       4.964   6.455  16.374  0.00  0.00    +0.000 NA
ATOM     16  C   UNK     1       4.162   7.018  17.314  0.00  0.00    +0.000 A 
BRANCH  14  17
ATOM     17  C   UNK     1       5.869   4.434  15.234  0.00  0.00    +0.000 C 
ATOM     18  F   UNK     1       6.103   3.114  15.505  0.00  0.00    +0.000 F 
ATOM     19  F   UNK     1       5.390   4.463  13.957  0.00  0.00    +0.000 F 
ATOM     20  F   UNK     1       7.104   5.014  15.185  0.00  0.00    +0.000 F 
ENDBRANCH  14  17
ENDBRANCH   8  11
ENDBRANCH   2   5
BRANCH   1  21
ATOM     21  C   UNK     1      -1.109  11.355  19.312  0.00  0.00    +0.000 C 
BRANCH  21  22
ATOM     22  C   UNK     1      -2.317  11.172  18.395  0.00  0.00    +0.000 A 
ATOM     23  N   UNK     1      -3.448  11.859  18.473  0.00  0.00    +0.000 NA
ATOM     24  C   UNK     1      -4.298  11.512  17.421  0.00  0.00    +0.000 A 
ATOM     25  C   UNK     1      -3.799  10.549  16.566  0.00  0.00    +0.000 A 
ATOM     26  S   UNK     1      -2.293   9.972  17.149  0.00  0.00    +0.000 S 
BRANCH  24  27
ATOM     27  C   UNK     1      -5.633  12.183  17.309  0.00  0.00    +0.000 C 
BRANCH  27  28
ATOM     28  O   UNK     1      -6.077  12.727  18.550  0.00  0.00    +0.000 OA
ATOM     29  H   UNK     1      -5.472  12.357  19.219  0.00  0.00    +0.000 HD
ENDBRANCH  27  28
ENDBRANCH  24  27
ENDBRANCH  21  22
BRANCH  21  30
ATOM     30  C   UNK     1      -0.234  12.536  18.815  0.00  0.00    +0.000 C 
BRANCH  30  31
ATOM     31  N   UNK     1      -0.742  13.196  17.606  0.00  0.00    +0.000 NA
ATOM     32  H   UNK     1      -1.757  13.126  17.569  0.00  0.00    +0.000 HD
ATOM     33  H   UNK     1      -0.401  12.683  16.791  0.00  0.00    +0.000 HD
ENDBRANCH  30  31
ENDBRANCH  21  30
ENDBRANCH   1  21
TORSDOF 9
ENDMDL
MODEL 6
REMARK VINA RESULT:      -7.4      6.334      9.883
REMARK  Name = 
REMARK  9 active torsions:
REMARK  status: ('A' for Active; 'I' for Inactive)
REMARK    1  A    between atoms: N_1  and  C_2
REMARK    2  A    between atoms: C_2  and  C_3
REMARK    3  A    between atoms: C_3  and  N_4
REMARK    4  A    between atoms: C_3  and  C_22
REMARK    5  A    between atoms: C_5  and  C_7
REMARK    6  A    between atoms: C_10  and  C_11
REMARK    7  A    between atoms: C_14  and  C_15
REMARK    8  A    between atoms: C_24  and  C_25
REMARK    9  A    between atoms: C_25  and  O_26
REMARK                            x       y       z     vdW  Elec       q    Type
REMARK                         _______ _______ _______ _____ _____    ______ ____
ROOT
ATOM      1  N   UNK     1       0.786   9.540  19.772  0.00  0.00    +0.000 N 
ATOM      2  C   UNK     1       1.152   8.654  20.753  0.00  0.00    +0.000 C 
ATOM      3  O   UNK     1       1.015   8.889  21.958  0.00  0.00    +0.000 OA
ATOM      4  H   UNK     1       0.829   9.258  18.798  0.00  0.00    +0.000 HD
ENDROOT
BRANCH   2   5
ATOM      5  C   UNK     1       1.762   7.431  20.292  0.00  0.00    +0.000 A 
ATOM      6  C   UNK     1       1.600   6.130  20.733  0.00  0.00    +0.000 A 
ATOM      7  C   UNK     1       2.328   5.287  19.867  0.00  0.00    +0.000 A 
ATOM      8  C   UNK     1       2.978   6.070  18.939  0.00  0.00    +0.000 A 
ATOM      9  N   UNK     1       2.630   7.380  19.216  0.00  0.00    +0.000 N 
ATOM     10  H   UNK     1       2.898   8.193  18.671  0.00  0.00    +0.000 HD
BRANCH   8  11
ATOM     11  C   UNK     1       3.820   5.686  17.808  0.00  0.00    +0.000 A 
ATOM     12  C   UNK     1       3.902   4.361  17.387  0.00  0.00    +0.000 A 
ATOM     13  C   UNK     1       4.765   4.009  16.349  0.00  0.00    +0.000 A 
ATOM     14  C   UNK     1       5.537   4.997  15.734  0.00  0.00    +0.000 A 
ATOM     15  N   UNK     1       5.447   6.305  16.111  0.00  0.00    +0.000 NA
ATOM     16  C   UNK     1       4.600   6.615  17.126  0.00  0.00    +0.000 A 
BRANCH  14  17
ATOM     17  C   UNK     1       6.525   4.613  14.635  0.00  0.00    +0.000 C 
ATOM     18  F   UNK     1       6.620   5.551  13.645  0.00  0.00    +0.000 F 
ATOM     19  F   UNK     1       7.798   4.436  15.092  0.00  0.00    +0.000 F 
ATOM     20  F   UNK     1       6.192   3.452  13.997  0.00  0.00    +0.000 F 
ENDBRANCH  14  17
ENDBRANCH   8  11
ENDBRANCH   2   5
BRANCH   1  21
ATOM     21  C   UNK     1       0.184  10.850  20.056  0.00  0.00    +0.000 C 
BRANCH  21  22
ATOM     22  C   UNK     1      -0.991  11.087  19.110  0.00  0.00    +0.000 A 
ATOM     23  N   UNK     1      -1.149  10.510  17.928  0.00  0.00    +0.000 NA
ATOM     24  C   UNK     1      -2.380  10.871  17.374  0.00  0.00    +0.000 A 
ATOM     25  C   UNK     1      -3.132  11.735  18.147  0.00  0.00    +0.000 A 
ATOM     26  S   UNK     1      -2.241  12.207  19.534  0.00  0.00    +0.000 S 
BRANCH  24  27
ATOM     27  C   UNK     1      -2.771  10.317  16.039  0.00  0.00    +0.000 C 
BRANCH  27  28
ATOM     28  O   UNK     1      -3.240  11.325  15.145  0.00  0.00    +0.000 OA
ATOM     29  H   UNK     1      -4.175  11.103  14.981  0.00  0.00    +0.000 HD
ENDBRANCH  27  28
ENDBRANCH  24  27
ENDBRANCH  21  22
BRANCH  21  30
ATOM     30  C   UNK     1       1.228  11.989  19.908  0.00  0.00    +0.000 C 
BRANCH  30  31
ATOM     31  N   UNK     1       1.636  12.602  21.176  0.00  0.00    +0.000 NA
ATOM     32  H   UNK     1       1.404  13.593  21.178  0.00  0.00    +0.000 HD
ATOM     33  H   UNK     1       2.655  12.558  21.243  0.00  0.00    +0.000 HD
ENDBRANCH  30  31
ENDBRANCH  21  30
ENDBRANCH   1  21
TORSDOF 9
ENDMDL
MODEL 7
REMARK VINA RESULT:      -7.3      6.329      9.844
REMARK  Name = 
REMARK  9 active torsions:
REMARK  status: ('A' for Active; 'I' for Inactive)
REMARK    1  A    between atoms: N_1  and  C_2
REMARK    2  A    between atoms: C_2  and  C_3
REMARK    3  A    between atoms: C_3  and  N_4
REMARK    4  A    between atoms: C_3  and  C_22
REMARK    5  A    between atoms: C_5  and  C_7
REMARK    6  A    between atoms: C_10  and  C_11
REMARK    7  A    between atoms: C_14  and  C_15
REMARK    8  A    between atoms: C_24  and  C_25
REMARK    9  A    between atoms: C_25  and  O_26
REMARK                            x       y       z     vdW  Elec       q    Type
REMARK                         _______ _______ _______ _____ _____    ______ ____
ROOT
ATOM      1  N   UNK     1       0.545  10.759  19.415  0.00  0.00    +0.000 N 
ATOM      2  C   UNK     1       0.540   9.954  20.526  0.00  0.00    +0.000 C 
ATOM      3  O   UNK     1       0.047  10.297  21.604  0.00  0.00    +0.000 OA
ATOM      4  H   UNK     1       0.876  10.392  18.529  0.00  0.00    +0.000 HD
ENDROOT
BRANCH   2   5
ATOM      5  C   UNK     1       1.199   8.680  20.374  0.00  0.00    +0.000 A 
ATOM      6  C   UNK     1       1.160   7.552  21.174  0.00  0.00    +0.000 A 
ATOM      7  C   UNK     1       1.881   6.532  20.518  0.00  0.00    +0.000 A 
ATOM      8  C   UNK     1       2.407   7.047  19.354  0.00  0.00    +0.000 A 
ATOM      9  N   UNK     1       1.988   8.364  19.282  0.00  0.00    +0.000 N 
ATOM     10  H   UNK     1       2.160   8.999  18.510  0.00  0.00    +0.000 HD
BRANCH   8  11
ATOM     11  C   UNK     1       3.189   6.395  18.306  0.00  0.00    +0.000 A 
ATOM     12  C   UNK     1       3.165   5.013  18.141  0.00  0.00    +0.000 A 
ATOM     13  C   UNK     1       3.973   4.409  17.178  0.00  0.00    +0.000 A 
ATOM     14  C   UNK     1       4.798   5.203  16.379  0.00  0.00    +0.000 A 
ATOM     15  N   UNK     1       4.813   6.562  16.504  0.00  0.00    +0.000 NA
ATOM     16  C   UNK     1       4.016   7.119  17.452  0.00  0.00    +0.000 A 
BRANCH  14  17
ATOM     17  C   UNK     1       5.727   4.547  15.361  0.00  0.00    +0.000 C 
ATOM     18  F   UNK     1       6.965   5.126  15.311  0.00  0.00    +0.000 F 
ATOM     19  F   UNK     1       5.955   3.225  15.612  0.00  0.00    +0.000 F 
ATOM     20  F   UNK     1       5.251   4.608  14.083  0.00  0.00    +0.000 F 
ENDBRANCH  14  17
ENDBRANCH   8  11
ENDBRANCH   2   5
BRANCH   1  21
ATOM     21  C   UNK     1      -0.046  12.104  19.396  0.00  0.00    +0.000 C 
BRANCH  21  22
ATOM     22  C   UNK     1      -1.503  12.015  18.946  0.00  0.00    +0.000 A 
ATOM     23  N   UNK     1      -1.909  11.626  17.746  0.00  0.00    +0.000 NA
ATOM     24  C   UNK     1      -3.304  11.562  17.706  0.00  0.00    +0.000 A 
ATOM     25  C   UNK     1      -3.935  11.921  18.881  0.00  0.00    +0.000 A 
ATOM     26  S   UNK     1      -2.778  12.469  20.022  0.00  0.00    +0.000 S 
BRANCH  24  27
ATOM     27  C   UNK     1      -3.979  11.128  16.441  0.00  0.00    +0.000 C 
BRANCH  27  28
ATOM     28  O   UNK     1      -3.237  11.484  15.276  0.00  0.00    +0.000 OA
ATOM     29  H   UNK     1      -2.307  11.514  15.568  0.00  0.00    +0.000 HD
ENDBRANCH  27  28
ENDBRANCH  24  27
ENDBRANCH  21  22
BRANCH  21  30
ATOM     30  C   UNK     1       0.747  13.050  18.456  0.00  0.00    +0.000 C 
BRANCH  30  31
ATOM     31  N   UNK     1       1.916  12.431  17.821  0.00  0.00    +0.000 NA
ATOM     32  H   UNK     1       2.750  12.982  18.010  0.00  0.00    +0.000 HD
ATOM     33  H   UNK     1       1.788  12.462  16.808  0.00  0.00    +0.000 HD
ENDBRANCH  30  31
ENDBRANCH  21  30
ENDBRANCH   1  21
TORSDOF 9
ENDMDL
MODEL 8
REMARK VINA RESULT:      -7.3      2.197      3.305
REMARK  Name = 
REMARK  9 active torsions:
REMARK  status: ('A' for Active; 'I' for Inactive)
REMARK    1  A    between atoms: N_1  and  C_2
REMARK    2  A    between atoms: C_2  and  C_3
REMARK    3  A    between atoms: C_3  and  N_4
REMARK    4  A    between atoms: C_3  and  C_22
REMARK    5  A    between atoms: C_5  and  C_7
REMARK    6  A    between atoms: C_10  and  C_11
REMARK    7  A    between atoms: C_14  and  C_15
REMARK    8  A    between atoms: C_24  and  C_25
REMARK    9  A    between atoms: C_25  and  O_26
REMARK                            x       y       z     vdW  Elec       q    Type
REMARK                         _______ _______ _______ _____ _____    ______ ____
ROOT
ATOM      1  N   UNK     1       5.422   6.187  18.326  0.00  0.00    +0.000 N 
ATOM      2  C   UNK     1       4.917   5.233  19.171  0.00  0.00    +0.000 C 
ATOM      3  O   UNK     1       5.523   4.194  19.453  0.00  0.00    +0.000 OA
ATOM      4  H   UNK     1       4.928   7.065  18.205  0.00  0.00    +0.000 HD
ENDROOT
BRANCH   2   5
ATOM      5  C   UNK     1       3.594   5.492  19.683  0.00  0.00    +0.000 A 
ATOM      6  C   UNK     1       2.638   4.619  20.171  0.00  0.00    +0.000 A 
ATOM      7  C   UNK     1       1.562   5.388  20.663  0.00  0.00    +0.000 A 
ATOM      8  C   UNK     1       1.831   6.718  20.425  0.00  0.00    +0.000 A 
ATOM      9  N   UNK     1       3.073   6.766  19.818  0.00  0.00    +0.000 N 
ATOM     10  H   UNK     1       3.581   7.610  19.572  0.00  0.00    +0.000 HD
BRANCH   8  11
ATOM     11  C   UNK     1       1.063   7.911  20.776  0.00  0.00    +0.000 A 
ATOM     12  C   UNK     1       1.157   9.078  20.023  0.00  0.00    +0.000 A 
ATOM     13  C   UNK     1       0.466  10.223  20.419  0.00  0.00    +0.000 A 
ATOM     14  C   UNK     1      -0.324  10.185  21.570  0.00  0.00    +0.000 A 
ATOM     15  N   UNK     1      -0.454   9.042  22.303  0.00  0.00    +0.000 NA
ATOM     16  C   UNK     1       0.233   7.945  21.893  0.00  0.00    +0.000 A 
BRANCH  14  17
ATOM     17  C   UNK     1      -1.038  11.449  22.041  0.00  0.00    +0.000 C 
ATOM     18  F   UNK     1      -1.865  11.985  21.093  0.00  0.00    +0.000 F 
ATOM     19  F   UNK     1      -1.825  11.247  23.138  0.00  0.00    +0.000 F 
ATOM     20  F   UNK     1      -0.179  12.457  22.377  0.00  0.00    +0.000 F 
ENDBRANCH  14  17
ENDBRANCH   8  11
ENDBRANCH   2   5
BRANCH   1  21
ATOM     21  C   UNK     1       6.738   6.074  17.681  0.00  0.00    +0.000 C 
BRANCH  21  22
ATOM     22  C   UNK     1       6.570   5.493  16.278  0.00  0.00    +0.000 A 
ATOM     23  N   UNK     1       7.389   5.708  15.259  0.00  0.00    +0.000 NA
ATOM     24  C   UNK     1       6.998   4.946  14.156  0.00  0.00    +0.000 A 
ATOM     25  C   UNK     1       5.872   4.171  14.356  0.00  0.00    +0.000 A 
ATOM     26  S   UNK     1       5.211   4.490  15.906  0.00  0.00    +0.000 S 
BRANCH  24  27
ATOM     27  C   UNK     1       7.798   5.026  12.892  0.00  0.00    +0.000 C 
BRANCH  27  28
ATOM     28  O   UNK     1       8.866   5.968  12.980  0.00  0.00    +0.000 OA
ATOM     29  H   UNK     1       8.715   6.443  13.818  0.00  0.00    +0.000 HD
ENDBRANCH  27  28
ENDBRANCH  24  27
ENDBRANCH  21  22
BRANCH  21  30
ATOM     30  C   UNK     1       7.696   5.184  18.517  0.00  0.00    +0.000 C 
BRANCH  30  31
ATOM     31  N   UNK     1       8.276   4.060  17.774  0.00  0.00    +0.000 NA
ATOM     32  H   UNK     1       8.093   3.185  18.262  0.00  0.00    +0.000 HD
ATOM     33  H   UNK     1       9.293   4.165  17.771  0.00  0.00    +0.000 HD
ENDBRANCH  30  31
ENDBRANCH  21  30
ENDBRANCH   1  21
TORSDOF 9
ENDMDL
MODEL 9
REMARK VINA RESULT:      -7.2      1.904      2.143
REMARK  Name = 
REMARK  9 active torsions:
REMARK  status: ('A' for Active; 'I' for Inactive)
REMARK    1  A    between atoms: N_1  and  C_2
REMARK    2  A    between atoms: C_2  and  C_3
REMARK    3  A    between atoms: C_3  and  N_4
REMARK    4  A    between atoms: C_3  and  C_22
REMARK    5  A    between atoms: C_5  and  C_7
REMARK    6  A    between atoms: C_10  and  C_11
REMARK    7  A    between atoms: C_14  and  C_15
REMARK    8  A    between atoms: C_24  and  C_25
REMARK    9  A    between atoms: C_25  and  O_26
REMARK                            x       y       z     vdW  Elec       q    Type
REMARK                         _______ _______ _______ _____ _____    ______ ____
ROOT
ATOM      1  N   UNK     1       2.852   6.117  18.421  0.00  0.00    +0.000 N 
ATOM      2  C   UNK     1       2.369   6.630  19.597  0.00  0.00    +0.000 C 
ATOM      3  O   UNK     1       2.375   6.000  20.659  0.00  0.00    +0.000 OA
ATOM      4  H   UNK     1       2.912   6.710  17.600  0.00  0.00    +0.000 HD
ENDROOT
BRANCH   2   5
ATOM      5  C   UNK     1       1.798   7.952  19.512  0.00  0.00    +0.000 A 
ATOM      6  C   UNK     1       1.818   8.869  18.477  0.00  0.00    +0.000 A 
ATOM      7  C   UNK     1       1.007   9.961  18.852  0.00  0.00    +0.000 A 
ATOM      8  C   UNK     1       0.542   9.742  20.129  0.00  0.00    +0.000 A 
ATOM      9  N   UNK     1       1.039   8.513  20.524  0.00  0.00    +0.000 N 
ATOM     10  H   UNK     1       0.826   8.038  21.396  0.00  0.00    +0.000 HD
BRANCH   8  11
ATOM     11  C   UNK     1      -0.362  10.543  20.952  0.00  0.00    +0.000 A 
ATOM     12  C   UNK     1      -0.484  10.317  22.321  0.00  0.00    +0.000 A 
ATOM     13  C   UNK     1      -1.404  11.050  23.071  0.00  0.00    +0.000 A 
ATOM     14  C   UNK     1      -2.192  12.014  22.440  0.00  0.00    +0.000 A 
ATOM     15  N   UNK     1      -2.065  12.272  21.106  0.00  0.00    +0.000 NA
ATOM     16  C   UNK     1      -1.163  11.540  20.403  0.00  0.00    +0.000 A 
BRANCH  14  17
ATOM     17  C   UNK     1      -3.240  12.781  23.242  0.00  0.00    +0.000 C 
ATOM     18  F   UNK     1      -3.452  12.258  24.488  0.00  0.00    +0.000 F 
ATOM     19  F   UNK     1      -2.910  14.089  23.448  0.00  0.00    +0.000 F 
ATOM     20  F   UNK     1      -4.468  12.794  22.646  0.00  0.00    +0.000 F 
ENDBRANCH  14  17
ENDBRANCH   8  11
ENDBRANCH   2   5
BRANCH   1  21
ATOM     21  C   UNK     1       3.434   4.772  18.310  0.00  0.00    +0.000 C 
BRANCH  21  22
ATOM     22  C   UNK     1       4.943   4.886  18.103  0.00  0.00    +0.000 A 
ATOM     23  N   UNK     1       5.790   5.456  18.949  0.00  0.00    +0.000 NA
ATOM     24  C   UNK     1       7.103   5.294  18.501  0.00  0.00    +0.000 A 
ATOM     25  C   UNK     1       7.228   4.613  17.305  0.00  0.00    +0.000 A 
ATOM     26  S   UNK     1       5.676   4.273  16.661  0.00  0.00    +0.000 S 
BRANCH  24  27
ATOM     27  C   UNK     1       8.227   5.853  19.318  0.00  0.00    +0.000 C 
BRANCH  27  28
ATOM     28  O   UNK     1       8.183   5.420  20.677  0.00  0.00    +0.000 OA
ATOM     29  H   UNK     1       8.521   4.506  20.662  0.00  0.00    +0.000 HD
ENDBRANCH  27  28
ENDBRANCH  24  27
ENDBRANCH  21  22
BRANCH  21  30
ATOM     30  C   UNK     1       2.793   3.979  17.140  0.00  0.00    +0.000 C 
BRANCH  30  31
ATOM     31  N   UNK     1       2.061   2.777  17.556  0.00  0.00    +0.000 NA
ATOM     32  H   UNK     1       1.516   2.413  16.778  0.00  0.00    +0.000 HD
ATOM     33  H   UNK     1       1.379   3.045  18.268  0.00  0.00    +0.000 HD
ENDBRANCH  30  31
ENDBRANCH  21  30
ENDBRANCH   1  21
TORSDOF 9
ENDMDL
