MODEL 1
REMARK VINA RESULT:      -8.1      0.000      0.000
REMARK  Name = 
REMARK  3 active torsions:
REMARK  status: ('A' for Active; 'I' for Inactive)
REMARK    1  A    between atoms: C_1  and  C_2
REMARK    2  A    between atoms: C_7  and  C_8
REMARK    3  A    between atoms: C_11  and  O_12
REMARK                            x       y       z     vdW  Elec       q    Type
REMARK                         _______ _______ _______ _____ _____    ______ ____
ROOT
ATOM      1  C   UNL     1       5.215   5.975  15.515  0.00  0.00    +0.000 C 
ATOM      2  C   UNL     1       5.557   5.211  16.741  0.00  0.00    +0.000 A 
ATOM      3  N   UNL     1       6.828   5.133  17.150  0.00  0.00    +0.000 NA
ATOM      4  N   UNL     1       6.761   4.439  18.292  0.00  0.00    +0.000 N 
ATOM      5  C   UNL     1       5.507   3.964  18.567  0.00  0.00    +0.000 A 
ATOM      6  C   UNL     1       4.664   4.524  17.626  0.00  0.00    +0.000 A 
ATOM      7  C   UNL     1       3.166   4.565  17.546  0.00  0.00    +0.000 C 
ATOM      8  S   UNL     1       2.202   3.081  17.938  0.00  0.00    +0.000 S 
ATOM      9  C   UNL     1       3.469   1.922  18.474  0.00  0.00    +0.000 C 
ATOM     10  C   UNL     1       4.163   2.343  19.755  0.00  0.00    +0.000 C 
ATOM     11  O   UNL     1       3.842   1.897  20.857  0.00  0.00    +0.000 OA
ATOM     12  N   UNL     1       5.262   3.158  19.652  0.00  0.00    +0.000 N 
ATOM     13  H   UNL     1       7.622   4.268  18.799  0.00  0.00    +0.000 HD
ATOM     14  H   UNL     1       5.853   3.198  20.474  0.00  0.00    +0.000 HD
ENDROOT
BRANCH   7  15
ATOM     15  C   UNL     1       2.724   5.743  18.411  0.00  0.00    +0.000 A 
ATOM     16  C   UNL     1       2.353   5.598  19.760  0.00  0.00    +0.000 A 
ATOM     17  C   UNL     1       1.906   6.680  20.519  0.00  0.00    +0.000 A 
ATOM     18  C   UNL     1       1.804   7.936  19.929  0.00  0.00    +0.000 A 
ATOM     19  C   UNL     1       2.157   8.110  18.590  0.00  0.00    +0.000 A 
ATOM     20 CL   UNL     1       2.027   9.649  17.819  0.00  0.00    +0.000 Cl
ATOM     21  C   UNL     1       2.617   7.024  17.836  0.00  0.00    +0.000 A 
BRANCH  18  22
ATOM     22  O   UNL     1       1.344   8.990  20.667  0.00  0.00    +0.000 OA
ATOM     23  H   UNL     1       1.681   9.817  20.288  0.00  0.00    +0.000 HD
ENDBRANCH  18  22
ENDBRANCH   7  15
TORSDOF 2
ENDMDL
MODEL 2
REMARK VINA RESULT:      -7.4      2.687      3.924
REMARK  Name = 
REMARK  3 active torsions:
REMARK  status: ('A' for Active; 'I' for Inactive)
REMARK    1  A    between atoms: C_1  and  C_2
REMARK    2  A    between atoms: C_7  and  C_8
REMARK    3  A    between atoms: C_11  and  O_12
REMARK                            x       y       z     vdW  Elec       q    Type
REMARK                         _______ _______ _______ _____ _____    ______ ____
ROOT
ATOM      1  C   UNL     1       1.851   3.405  21.472  0.00  0.00    +0.000 C 
ATOM      2  C   UNL     1       2.087   3.261  20.014  0.00  0.00    +0.000 A 
ATOM      3  N   UNL     1       1.372   2.383  19.302  0.00  0.00    +0.000 NA
ATOM      4  N   UNL     1       1.793   2.562  18.045  0.00  0.00    +0.000 N 
ATOM      5  C   UNL     1       2.840   3.437  17.942  0.00  0.00    +0.000 A 
ATOM      6  C   UNL     1       3.007   3.993  19.196  0.00  0.00    +0.000 A 
ATOM      7  C   UNL     1       3.829   5.162  19.653  0.00  0.00    +0.000 C 
ATOM      8  S   UNL     1       5.514   5.381  19.023  0.00  0.00    +0.000 S 
ATOM      9  C   UNL     1       5.659   4.049  17.823  0.00  0.00    +0.000 C 
ATOM     10  C   UNL     1       4.726   4.206  16.638  0.00  0.00    +0.000 C 
ATOM     11  O   UNL     1       5.095   4.686  15.567  0.00  0.00    +0.000 OA
ATOM     12  N   UNL     1       3.463   3.681  16.741  0.00  0.00    +0.000 N 
ATOM     13  H   UNL     1       1.368   2.002  17.314  0.00  0.00    +0.000 HD
ATOM     14  H   UNL     1       2.968   3.558  15.865  0.00  0.00    +0.000 HD
ENDROOT
BRANCH   7  15
ATOM     15  C   UNL     1       2.985   6.407  19.388  0.00  0.00    +0.000 A 
ATOM     16  C   UNL     1       3.016   7.099  18.164  0.00  0.00    +0.000 A 
ATOM     17  C   UNL     1       2.272   8.262  17.959  0.00  0.00    +0.000 A 
ATOM     18  C   UNL     1       1.492   8.768  18.993  0.00  0.00    +0.000 A 
ATOM     19  C   UNL     1       1.447   8.108  20.222  0.00  0.00    +0.000 A 
ATOM     20 CL   UNL     1       0.503   8.715  21.534  0.00  0.00    +0.000 Cl
ATOM     21  C   UNL     1       2.184   6.935  20.419  0.00  0.00    +0.000 A 
BRANCH  18  22
ATOM     22  O   UNL     1       0.783   9.920  18.799  0.00  0.00    +0.000 OA
ATOM     23  H   UNL     1      -0.014   9.723  18.283  0.00  0.00    +0.000 HD
ENDBRANCH  18  22
ENDBRANCH   7  15
TORSDOF 2
ENDMDL
MODEL 3
REMARK VINA RESULT:      -7.3      2.649      3.828
REMARK  Name = 
REMARK  3 active torsions:
REMARK  status: ('A' for Active; 'I' for Inactive)
REMARK    1  A    between atoms: C_1  and  C_2
REMARK    2  A    between atoms: C_7  and  C_8
REMARK    3  A    between atoms: C_11  and  O_12
REMARK                            x       y       z     vdW  Elec       q    Type
REMARK                         _______ _______ _______ _____ _____    ______ ____
ROOT
ATOM      1  C   UNL     1       3.345   2.635  20.505  0.00  0.00    +0.000 C 
ATOM      2  C   UNL     1       3.861   2.730  19.117  0.00  0.00    +0.000 A 
ATOM      3  N   UNL     1       3.508   1.817  18.206  0.00  0.00    +0.000 NA
ATOM      4  N   UNL     1       4.092   2.240  17.078  0.00  0.00    +0.000 N 
ATOM      5  C   UNL     1       4.907   3.324  17.261  0.00  0.00    +0.000 A 
ATOM      6  C   UNL     1       4.715   3.739  18.565  0.00  0.00    +0.000 A 
ATOM      7  C   UNL     1       5.147   4.989  19.274  0.00  0.00    +0.000 C 
ATOM      8  S   UNL     1       6.819   5.640  19.015  0.00  0.00    +0.000 S 
ATOM      9  C   UNL     1       7.480   4.532  17.762  0.00  0.00    +0.000 C 
ATOM     10  C   UNL     1       6.761   4.636  16.431  0.00  0.00    +0.000 C 
ATOM     11  O   UNL     1       7.191   5.315  15.499  0.00  0.00    +0.000 OA
ATOM     12  N   UNL     1       5.658   3.845  16.235  0.00  0.00    +0.000 N 
ATOM     13  H   UNL     1       3.945   1.700  16.233  0.00  0.00    +0.000 HD
ATOM     14  H   UNL     1       5.369   3.732  15.270  0.00  0.00    +0.000 HD
ENDROOT
BRANCH   7  15
ATOM     15  C   UNL     1       4.097   6.049  18.950  0.00  0.00    +0.000 A 
ATOM     16  C   UNL     1       4.103   6.782  17.749  0.00  0.00    +0.000 A 
ATOM     17  C   UNL     1       3.161   7.779  17.493  0.00  0.00    +0.000 A 
ATOM     18  C   UNL     1       2.199   8.076  18.453  0.00  0.00    +0.000 A 
ATOM     19  C   UNL     1       2.172   7.372  19.657  0.00  0.00    +0.000 A 
ATOM     20 CL   UNL     1       1.004   7.724  20.879  0.00  0.00    +0.000 Cl
ATOM     21  C   UNL     1       3.110   6.363  19.905  0.00  0.00    +0.000 A 
BRANCH  18  22
ATOM     22  O   UNL     1       1.292   9.070  18.211  0.00  0.00    +0.000 OA
ATOM     23  H   UNL     1       0.637   9.086  18.926  0.00  0.00    +0.000 HD
ENDBRANCH  18  22
ENDBRANCH   7  15
TORSDOF 2
ENDMDL
MODEL 4
REMARK VINA RESULT:      -7.2      1.190      1.609
REMARK  Name = 
REMARK  3 active torsions:
REMARK  status: ('A' for Active; 'I' for Inactive)
REMARK    1  A    between atoms: C_1  and  C_2
REMARK    2  A    between atoms: C_7  and  C_8
REMARK    3  A    between atoms: C_11  and  O_12
REMARK                            x       y       z     vdW  Elec       q    Type
REMARK                         _______ _______ _______ _____ _____    ______ ____
ROOT
ATOM      1  C   UNL     1       5.944   5.530  15.245  0.00  0.00    +0.000 C 
ATOM      2  C   UNL     1       6.084   4.933  16.596  0.00  0.00    +0.000 A 
ATOM      3  N   UNL     1       7.282   4.889  17.189  0.00  0.00    +0.000 NA
ATOM      4  N   UNL     1       7.032   4.357  18.392  0.00  0.00    +0.000 N 
ATOM      5  C   UNL     1       5.736   3.945  18.543  0.00  0.00    +0.000 A 
ATOM      6  C   UNL     1       5.053   4.387  17.426  0.00  0.00    +0.000 A 
ATOM      7  C   UNL     1       3.583   4.442  17.128  0.00  0.00    +0.000 C 
ATOM      8  S   UNL     1       2.521   3.041  17.570  0.00  0.00    +0.000 S 
ATOM      9  C   UNL     1       3.659   1.943  18.429  0.00  0.00    +0.000 C 
ATOM     10  C   UNL     1       4.181   2.521  19.729  0.00  0.00    +0.000 C 
ATOM     11  O   UNL     1       3.694   2.234  20.822  0.00  0.00    +0.000 OA
ATOM     12  N   UNL     1       5.312   3.296  19.679  0.00  0.00    +0.000 N 
ATOM     13  H   UNL     1       7.807   4.242  19.034  0.00  0.00    +0.000 HD
ATOM     14  H   UNL     1       5.784   3.437  20.565  0.00  0.00    +0.000 HD
ENDROOT
BRANCH   7  15
ATOM     15  C   UNL     1       3.067   5.733  17.759  0.00  0.00    +0.000 A 
ATOM     16  C   UNL     1       3.272   6.998  17.177  0.00  0.00    +0.000 A 
ATOM     17  C   UNL     1       2.834   8.169  17.795  0.00  0.00    +0.000 A 
ATOM     18  C   UNL     1       2.193   8.097  19.027  0.00  0.00    +0.000 A 
ATOM     19  C   UNL     1       1.981   6.857  19.633  0.00  0.00    +0.000 A 
ATOM     20 CL   UNL     1       1.205   6.729  21.170  0.00  0.00    +0.000 Cl
ATOM     21  C   UNL     1       2.411   5.684  19.005  0.00  0.00    +0.000 A 
BRANCH  18  22
ATOM     22  O   UNL     1       1.785   9.247  19.642  0.00  0.00    +0.000 OA
ATOM     23  H   UNL     1       0.820   9.237  19.732  0.00  0.00    +0.000 HD
ENDBRANCH  18  22
ENDBRANCH   7  15
TORSDOF 2
ENDMDL
MODEL 5
REMARK VINA RESULT:      -6.4      1.532      1.911
REMARK  Name = 
REMARK  3 active torsions:
REMARK  status: ('A' for Active; 'I' for Inactive)
REMARK    1  A    between atoms: C_1  and  C_2
REMARK    2  A    between atoms: C_7  and  C_8
REMARK    3  A    between atoms: C_11  and  O_12
REMARK                            x       y       z     vdW  Elec       q    Type
REMARK                         _______ _______ _______ _____ _____    ______ ____
ROOT
ATOM      1  C   UNL     1       6.908   6.856  16.590  0.00  0.00    +0.000 C 
ATOM      2  C   UNL     1       6.622   5.996  17.766  0.00  0.00    +0.000 A 
ATOM      3  N   UNL     1       7.534   5.861  18.735  0.00  0.00    +0.000 NA
ATOM      4  N   UNL     1       6.931   5.086  19.644  0.00  0.00    +0.000 N 
ATOM      5  C   UNL     1       5.710   4.620  19.236  0.00  0.00    +0.000 A 
ATOM      6  C   UNL     1       5.424   5.266  18.049  0.00  0.00    +0.000 A 
ATOM      7  C   UNL     1       4.154   5.344  17.253  0.00  0.00    +0.000 C 
ATOM      8  S   UNL     1       3.146   3.857  17.013  0.00  0.00    +0.000 S 
ATOM      9  C   UNL     1       4.011   2.634  18.010  0.00  0.00    +0.000 C 
ATOM     10  C   UNL     1       3.985   2.944  19.494  0.00  0.00    +0.000 C 
ATOM     11  O   UNL     1       3.176   2.426  20.263  0.00  0.00    +0.000 OA
ATOM     12  N   UNL     1       4.981   3.741  20.001  0.00  0.00    +0.000 N 
ATOM     13  H   UNL     1       7.438   4.860  20.491  0.00  0.00    +0.000 HD
ATOM     14  H   UNL     1       5.096   3.707  21.007  0.00  0.00    +0.000 HD
ENDROOT
BRANCH   7  15
ATOM     15  C   UNL     1       3.326   6.465  17.878  0.00  0.00    +0.000 A 
ATOM     16  C   UNL     1       3.223   7.745  17.303  0.00  0.00    +0.000 A 
ATOM     17  C   UNL     1       2.500   8.769  17.917  0.00  0.00    +0.000 A 
ATOM     18  C   UNL     1       1.878   8.532  19.138  0.00  0.00    +0.000 A 
ATOM     19  C   UNL     1       1.968   7.275  19.737  0.00  0.00    +0.000 A 
ATOM     20 CL   UNL     1       1.223   6.949  21.260  0.00  0.00    +0.000 Cl
ATOM     21  C   UNL     1       2.683   6.247  19.113  0.00  0.00    +0.000 A 
BRANCH  18  22
ATOM     22  O   UNL     1       1.190   9.543  19.750  0.00  0.00    +0.000 OA
ATOM     23  H   UNL     1       0.640   9.999  19.093  0.00  0.00    +0.000 HD
ENDBRANCH  18  22
ENDBRANCH   7  15
TORSDOF 2
ENDMDL
MODEL 6
REMARK VINA RESULT:      -6.4      2.519      3.707
REMARK  Name = 
REMARK  3 active torsions:
REMARK  status: ('A' for Active; 'I' for Inactive)
REMARK    1  A    between atoms: C_1  and  C_2
REMARK    2  A    between atoms: C_7  and  C_8
REMARK    3  A    between atoms: C_11  and  O_12
REMARK                            x       y       z     vdW  Elec       q    Type
REMARK                         _______ _______ _______ _____ _____    ______ ____
ROOT
ATOM      1  C   UNL     1       1.974   2.663  21.369  0.00  0.00    +0.000 C 
ATOM      2  C   UNL     1       2.153   2.824  19.905  0.00  0.00    +0.000 A 
ATOM      3  N   UNL     1       1.424   2.093  19.055  0.00  0.00    +0.000 NA
ATOM      4  N   UNL     1       1.791   2.534  17.846  0.00  0.00    +0.000 N 
ATOM      5  C   UNL     1       2.820   3.435  17.887  0.00  0.00    +0.000 A 
ATOM      6  C   UNL     1       3.029   3.728  19.221  0.00  0.00    +0.000 A 
ATOM      7  C   UNL     1       3.850   4.800  19.877  0.00  0.00    +0.000 C 
ATOM      8  S   UNL     1       5.505   5.181  19.244  0.00  0.00    +0.000 S 
ATOM      9  C   UNL     1       5.622   4.124  17.793  0.00  0.00    +0.000 C 
ATOM     10  C   UNL     1       4.640   4.497  16.700  0.00  0.00    +0.000 C 
ATOM     11  O   UNL     1       4.958   5.193  15.736  0.00  0.00    +0.000 OA
ATOM     12  N   UNL     1       3.390   3.933  16.739  0.00  0.00    +0.000 N 
ATOM     13  H   UNL     1       1.346   2.125  17.033  0.00  0.00    +0.000 HD
ATOM     14  H   UNL     1       2.863   3.979  15.875  0.00  0.00    +0.000 HD
ENDROOT
BRANCH   7  15
ATOM     15  C   UNL     1       2.977   6.052  19.902  0.00  0.00    +0.000 A 
ATOM     16  C   UNL     1       2.076   6.330  20.947  0.00  0.00    +0.000 A 
ATOM     17  C   UNL     1       1.253   7.456  20.926  0.00  0.00    +0.000 A 
ATOM     18  C   UNL     1       1.303   8.323  19.840  0.00  0.00    +0.000 A 
ATOM     19  C   UNL     1       2.181   8.070  18.784  0.00  0.00    +0.000 A 
ATOM     20 CL   UNL     1       2.260   9.114  17.411  0.00  0.00    +0.000 Cl
ATOM     21  C   UNL     1       3.014   6.946  18.815  0.00  0.00    +0.000 A 
BRANCH  18  22
ATOM     22  O   UNL     1       0.480   9.413  19.809  0.00  0.00    +0.000 OA
ATOM     23  H   UNL     1      -0.250   9.280  20.434  0.00  0.00    +0.000 HD
ENDBRANCH  18  22
ENDBRANCH   7  15
TORSDOF 2
ENDMDL
MODEL 7
REMARK VINA RESULT:      -6.4      1.587      1.971
REMARK  Name = 
REMARK  3 active torsions:
REMARK  status: ('A' for Active; 'I' for Inactive)
REMARK    1  A    between atoms: C_1  and  C_2
REMARK    2  A    between atoms: C_7  and  C_8
REMARK    3  A    between atoms: C_11  and  O_12
REMARK                            x       y       z     vdW  Elec       q    Type
REMARK                         _______ _______ _______ _____ _____    ______ ____
ROOT
ATOM      1  C   UNL     1       5.501   6.297  16.075  0.00  0.00    +0.000 C 
ATOM      2  C   UNL     1       5.424   5.718  17.440  0.00  0.00    +0.000 A 
ATOM      3  N   UNL     1       6.532   5.586  18.176  0.00  0.00    +0.000 NA
ATOM      4  N   UNL     1       6.093   5.102  19.344  0.00  0.00    +0.000 N 
ATOM      5  C   UNL     1       4.757   4.804  19.339  0.00  0.00    +0.000 A 
ATOM      6  C   UNL     1       4.256   5.278  18.142  0.00  0.00    +0.000 A 
ATOM      7  C   UNL     1       2.843   5.450  17.666  0.00  0.00    +0.000 C 
ATOM      8  S   UNL     1       1.619   4.152  17.988  0.00  0.00    +0.000 S 
ATOM      9  C   UNL     1       2.546   2.981  18.991  0.00  0.00    +0.000 C 
ATOM     10  C   UNL     1       2.954   3.540  20.340  0.00  0.00    +0.000 C 
ATOM     11  O   UNL     1       2.315   3.318  21.368  0.00  0.00    +0.000 OA
ATOM     12  N   UNL     1       4.145   4.216  20.421  0.00  0.00    +0.000 N 
ATOM     13  H   UNL     1       6.772   4.935  20.077  0.00  0.00    +0.000 HD
ATOM     14  H   UNL     1       4.517   4.335  21.357  0.00  0.00    +0.000 HD
ENDROOT
BRANCH   7  15
ATOM     15  C   UNL     1       2.367   6.793  18.215  0.00  0.00    +0.000 A 
ATOM     16  C   UNL     1       2.353   7.968  17.442  0.00  0.00    +0.000 A 
ATOM     17  C   UNL     1       1.959   9.195  17.978  0.00  0.00    +0.000 A 
ATOM     18  C   UNL     1       1.588   9.271  19.316  0.00  0.00    +0.000 A 
ATOM     19  C   UNL     1       1.599   8.123  20.111  0.00  0.00    +0.000 A 
ATOM     20 CL   UNL     1       1.161   8.182  21.780  0.00  0.00    +0.000 Cl
ATOM     21  C   UNL     1       1.982   6.893  19.566  0.00  0.00    +0.000 A 
BRANCH  18  22
ATOM     22  O   UNL     1       1.225  10.477  19.846  0.00  0.00    +0.000 OA
ATOM     23  H   UNL     1       0.386  10.761  19.452  0.00  0.00    +0.000 HD
ENDBRANCH  18  22
ENDBRANCH   7  15
TORSDOF 2
ENDMDL
MODEL 8
REMARK VINA RESULT:      -6.3     10.306     12.229
REMARK  Name = 
REMARK  3 active torsions:
REMARK  status: ('A' for Active; 'I' for Inactive)
REMARK    1  A    between atoms: C_1  and  C_2
REMARK    2  A    between atoms: C_7  and  C_8
REMARK    3  A    between atoms: C_11  and  O_12
REMARK                            x       y       z     vdW  Elec       q    Type
REMARK                         _______ _______ _______ _____ _____    ______ ____
ROOT
ATOM      1  C   UNL     1      -5.360  11.701  17.580  0.00  0.00    +0.000 C 
ATOM      2  C   UNL     1      -6.104  11.264  18.788  0.00  0.00    +0.000 A 
ATOM      3  N   UNL     1      -6.738  10.087  18.797  0.00  0.00    +0.000 NA
ATOM      4  N   UNL     1      -7.234   9.992  20.036  0.00  0.00    +0.000 N 
ATOM      5  C   UNL     1      -7.044  11.122  20.785  0.00  0.00    +0.000 A 
ATOM      6  C   UNL     1      -6.225  11.949  20.040  0.00  0.00    +0.000 A 
ATOM      7  C   UNL     1      -5.494  13.205  20.414  0.00  0.00    +0.000 C 
ATOM      8  S   UNL     1      -6.320  14.463  21.424  0.00  0.00    +0.000 S 
ATOM      9  C   UNL     1      -7.895  13.683  21.809  0.00  0.00    +0.000 C 
ATOM     10  C   UNL     1      -7.755  12.448  22.678  0.00  0.00    +0.000 C 
ATOM     11  O   UNL     1      -7.917  12.477  23.897  0.00  0.00    +0.000 OA
ATOM     12  N   UNL     1      -7.560  11.243  22.053  0.00  0.00    +0.000 N 
ATOM     13  H   UNL     1      -7.750   9.155  20.281  0.00  0.00    +0.000 HD
ATOM     14  H   UNL     1      -7.742  10.423  22.621  0.00  0.00    +0.000 HD
ENDROOT
BRANCH   7  15
ATOM     15  C   UNL     1      -4.186  12.760  21.065  0.00  0.00    +0.000 A 
ATOM     16  C   UNL     1      -4.042  12.610  22.456  0.00  0.00    +0.000 A 
ATOM     17  C   UNL     1      -2.824  12.249  23.034  0.00  0.00    +0.000 A 
ATOM     18  C   UNL     1      -1.713  12.048  22.222  0.00  0.00    +0.000 A 
ATOM     19  C   UNL     1      -1.823  12.196  20.838  0.00  0.00    +0.000 A 
ATOM     20 CL   UNL     1      -0.462  11.971  19.800  0.00  0.00    +0.000 Cl
ATOM     21  C   UNL     1      -3.049  12.546  20.262  0.00  0.00    +0.000 A 
BRANCH  18  22
ATOM     22  O   UNL     1      -0.516  11.717  22.790  0.00  0.00    +0.000 OA
ATOM     23  H   UNL     1      -0.489  10.760  22.947  0.00  0.00    +0.000 HD
ENDBRANCH  18  22
ENDBRANCH   7  15
TORSDOF 2
ENDMDL
MODEL 9
REMARK VINA RESULT:      -6.1      9.948     11.285
REMARK  Name = 
REMARK  3 active torsions:
REMARK  status: ('A' for Active; 'I' for Inactive)
REMARK    1  A    between atoms: C_1  and  C_2
REMARK    2  A    between atoms: C_7  and  C_8
REMARK    3  A    between atoms: C_11  and  O_12
REMARK                            x       y       z     vdW  Elec       q    Type
REMARK                         _______ _______ _______ _____ _____    ______ ____
ROOT
ATOM      1  C   UNL     1       9.245  10.290  18.859  0.00  0.00    +0.000 C 
ATOM      2  C   UNL     1       9.070  11.649  18.289  0.00  0.00    +0.000 A 
ATOM      3  N   UNL     1       8.098  11.884  17.401  0.00  0.00    +0.000 NA
ATOM      4  N   UNL     1       8.190  13.196  17.156  0.00  0.00    +0.000 N 
ATOM      5  C   UNL     1       9.266  13.787  17.761  0.00  0.00    +0.000 A 
ATOM      6  C   UNL     1       9.820  12.831  18.591  0.00  0.00    +0.000 A 
ATOM      7  C   UNL     1      10.860  12.944  19.667  0.00  0.00    +0.000 C 
ATOM      8  S   UNL     1      12.333  13.964  19.392  0.00  0.00    +0.000 S 
ATOM      9  C   UNL     1      12.004  14.701  17.784  0.00  0.00    +0.000 C 
ATOM     10  C   UNL     1      10.816  15.643  17.789  0.00  0.00    +0.000 C 
ATOM     11  O   UNL     1      10.941  16.864  17.887  0.00  0.00    +0.000 OA
ATOM     12  N   UNL     1       9.573  15.111  17.555  0.00  0.00    +0.000 N 
ATOM     13  H   UNL     1       7.527  13.609  16.511  0.00  0.00    +0.000 HD
ATOM     14  H   UNL     1       8.855  15.777  17.296  0.00  0.00    +0.000 HD
ENDROOT
BRANCH   7  15
ATOM     15  C   UNL     1      10.123  13.386  20.930  0.00  0.00    +0.000 A 
ATOM     16  C   UNL     1      10.128  14.716  21.386  0.00  0.00    +0.000 A 
ATOM     17  C   UNL     1       9.488  15.088  22.569  0.00  0.00    +0.000 A 
ATOM     18  C   UNL     1       8.841  14.122  23.332  0.00  0.00    +0.000 A 
ATOM     19  C   UNL     1       8.824  12.793  22.908  0.00  0.00    +0.000 A 
ATOM     20 CL   UNL     1       8.046  11.563  23.837  0.00  0.00    +0.000 Cl
ATOM     21  C   UNL     1       9.457  12.425  21.716  0.00  0.00    +0.000 A 
BRANCH  18  22
ATOM     22  O   UNL     1       8.234  14.484  24.502  0.00  0.00    +0.000 OA
ATOM     23  H   UNL     1       8.855  15.001  25.038  0.00  0.00    +0.000 HD
ENDBRANCH  18  22
ENDBRANCH   7  15
TORSDOF 2
ENDMDL
