MODEL 1
REMARK VINA RESULT:      -8.3      0.000      0.000
REMARK  Name = 
REMARK  6 active torsions:
REMARK  status: ('A' for Active; 'I' for Inactive)
REMARK    1  A    between atoms: N_2  and  C_4
REMARK    2  A    between atoms: C_10  and  C_11
REMARK    3  A    between atoms: C_11  and  O_12
REMARK    4  A    between atoms: O_12  and  C_13
REMARK    5  A    between atoms: C_13  and  C_14
REMARK    6  A    between atoms: C_17  and  C_18
REMARK                            x       y       z     vdW  Elec       q    Type
REMARK                         _______ _______ _______ _____ _____    ______ ____
ROOT
ATOM      1  O   UNL     1      -0.273  10.700  19.537  0.00  0.00    +0.000 OA
ENDROOT
BRANCH   1   2
ATOM      2  C   UNL     1      -1.116  11.648  20.183  0.00  0.00    +0.000 C 
BRANCH   2   9
ATOM      3  C   UNL     1      -3.435  10.631  15.290  0.00  0.00    +0.000 A 
ATOM      4  C   UNL     1      -4.463  10.882  16.178  0.00  0.00    +0.000 A 
ATOM      5  N   UNL     1      -3.835  11.401  17.273  0.00  0.00    +0.000 N 
ATOM      6  C   UNL     1      -2.501  11.457  17.021  0.00  0.00    +0.000 A 
ATOM      7  N   UNL     1      -2.215  10.995  15.826  0.00  0.00    +0.000 NA
ATOM      8  O   UNL     1      -1.584  11.896  17.864  0.00  0.00    +0.000 OA
ATOM      9  C   UNL     1      -1.986  12.378  19.146  0.00  0.00    +0.000 C 
ATOM     10  C   UNL     1      -3.478  12.334  19.530  0.00  0.00    +0.000 C 
ATOM     11  C   UNL     1      -4.449  11.778  18.510  0.00  0.00    +0.000 C 
BRANCH   3  13
ATOM     12  O   UNL     1      -2.479   9.774  13.398  0.00  0.00    +0.000 OA
ATOM     13  N   UNL     1      -3.544  10.053  13.969  0.00  0.00    +0.000 N 
ATOM     14  O   UNL     1      -4.678   9.884  13.501  0.00  0.00    +0.000 OA
ENDBRANCH   3  13
ENDBRANCH   2   9
ENDBRANCH   1   2
BRANCH   1  15
ATOM     15  C   UNL     1       0.571  10.027  20.469  0.00  0.00    +0.000 C 
BRANCH  15  16
ATOM     16  C   UNL     1       1.384   9.013  19.717  0.00  0.00    +0.000 A 
ATOM     17  C   UNL     1       1.821   9.278  18.416  0.00  0.00    +0.000 A 
ATOM     18  C   UNL     1       2.568   8.331  17.711  0.00  0.00    +0.000 A 
ATOM     19  C   UNL     1       2.922   7.097  18.286  0.00  0.00    +0.000 A 
ATOM     20  C   UNL     1       2.484   6.852  19.599  0.00  0.00    +0.000 A 
ATOM     21  C   UNL     1       1.722   7.790  20.304  0.00  0.00    +0.000 A 
BRANCH  19  22
ATOM     22  C   UNL     1       3.724   6.102  17.536  0.00  0.00    +0.000 A 
ATOM     23  C   UNL     1       3.462   4.723  17.650  0.00  0.00    +0.000 A 
ATOM     24  C   UNL     1       4.226   3.777  16.962  0.00  0.00    +0.000 A 
ATOM     25  C   UNL     1       5.254   4.203  16.133  0.00  0.00    +0.000 A 
ATOM     26  F   UNL     1       5.984   3.298  15.471  0.00  0.00    +0.000 F 
ATOM     27  C   UNL     1       5.534   5.551  15.987  0.00  0.00    +0.000 A 
ATOM     28  C   UNL     1       4.776   6.496  16.686  0.00  0.00    +0.000 A 
ENDBRANCH  19  22
ENDBRANCH  15  16
ENDBRANCH   1  15
TORSDOF 6
ENDMDL
MODEL 2
REMARK VINA RESULT:      -8.2      5.945      9.330
REMARK  Name = 
REMARK  6 active torsions:
REMARK  status: ('A' for Active; 'I' for Inactive)
REMARK    1  A    between atoms: N_2  and  C_4
REMARK    2  A    between atoms: C_10  and  C_11
REMARK    3  A    between atoms: C_11  and  O_12
REMARK    4  A    between atoms: O_12  and  C_13
REMARK    5  A    between atoms: C_13  and  C_14
REMARK    6  A    between atoms: C_17  and  C_18
REMARK                            x       y       z     vdW  Elec       q    Type
REMARK                         _______ _______ _______ _____ _____    ______ ____
ROOT
ATOM      1  O   UNL     1       5.057   7.105  17.585  0.00  0.00    +0.000 OA
ENDROOT
BRANCH   1   2
ATOM      2  C   UNL     1       5.935   6.317  16.789  0.00  0.00    +0.000 C 
BRANCH   2   9
ATOM      3  C   UNL     1       2.884   3.119  20.078  0.00  0.00    +0.000 A 
ATOM      4  C   UNL     1       2.725   2.641  18.791  0.00  0.00    +0.000 A 
ATOM      5  N   UNL     1       3.706   3.271  18.080  0.00  0.00    +0.000 N 
ATOM      6  C   UNL     1       4.408   4.070  18.927  0.00  0.00    +0.000 A 
ATOM      7  N   UNL     1       3.938   4.009  20.151  0.00  0.00    +0.000 NA
ATOM      8  O   UNL     1       5.425   4.837  18.580  0.00  0.00    +0.000 OA
ATOM      9  C   UNL     1       5.868   4.844  17.223  0.00  0.00    +0.000 C 
ATOM     10  C   UNL     1       5.118   3.984  16.186  0.00  0.00    +0.000 C 
ATOM     11  C   UNL     1       3.940   3.167  16.672  0.00  0.00    +0.000 C 
BRANCH   3  13
ATOM     12  O   UNL     1       2.692   2.323  22.212  0.00  0.00    +0.000 OA
ATOM     13  N   UNL     1       2.084   2.790  21.236  0.00  0.00    +0.000 N 
ATOM     14  O   UNL     1       0.863   2.987  21.174  0.00  0.00    +0.000 OA
ENDBRANCH   3  13
ENDBRANCH   2   9
ENDBRANCH   1   2
BRANCH   1  15
ATOM     15  C   UNL     1       3.714   7.041  17.108  0.00  0.00    +0.000 C 
BRANCH  15  16
ATOM     16  C   UNL     1       2.833   7.758  18.091  0.00  0.00    +0.000 A 
ATOM     17  C   UNL     1       2.239   8.976  17.753  0.00  0.00    +0.000 A 
ATOM     18  C   UNL     1       1.428   9.650  18.670  0.00  0.00    +0.000 A 
ATOM     19  C   UNL     1       1.166   9.120  19.947  0.00  0.00    +0.000 A 
ATOM     20  C   UNL     1       1.763   7.888  20.265  0.00  0.00    +0.000 A 
ATOM     21  C   UNL     1       2.588   7.218  19.356  0.00  0.00    +0.000 A 
BRANCH  19  22
ATOM     22  C   UNL     1       0.296   9.835  20.910  0.00  0.00    +0.000 A 
ATOM     23  C   UNL     1       0.152   9.379  22.235  0.00  0.00    +0.000 A 
ATOM     24  C   UNL     1      -0.682  10.035  23.144  0.00  0.00    +0.000 A 
ATOM     25  C   UNL     1      -1.371  11.170  22.742  0.00  0.00    +0.000 A 
ATOM     26  F   UNL     1      -2.167  11.800  23.614  0.00  0.00    +0.000 F 
ATOM     27  C   UNL     1      -1.246  11.654  21.451  0.00  0.00    +0.000 A 
ATOM     28  C   UNL     1      -0.420  10.989  20.539  0.00  0.00    +0.000 A 
ENDBRANCH  19  22
ENDBRANCH  15  16
ENDBRANCH   1  15
TORSDOF 6
ENDMDL
MODEL 3
REMARK VINA RESULT:      -8.2      5.956      9.406
REMARK  Name = 
REMARK  6 active torsions:
REMARK  status: ('A' for Active; 'I' for Inactive)
REMARK    1  A    between atoms: N_2  and  C_4
REMARK    2  A    between atoms: C_10  and  C_11
REMARK    3  A    between atoms: C_11  and  O_12
REMARK    4  A    between atoms: O_12  and  C_13
REMARK    5  A    between atoms: C_13  and  C_14
REMARK    6  A    between atoms: C_17  and  C_18
REMARK                            x       y       z     vdW  Elec       q    Type
REMARK                         _______ _______ _______ _____ _____    ______ ____
ROOT
ATOM      1  O   UNL     1       5.099   7.023  17.582  0.00  0.00    +0.000 OA
ENDROOT
BRANCH   1   2
ATOM      2  C   UNL     1       5.974   6.236  16.780  0.00  0.00    +0.000 C 
BRANCH   2   9
ATOM      3  C   UNL     1       2.900   3.048  20.058  0.00  0.00    +0.000 A 
ATOM      4  C   UNL     1       2.693   2.613  18.763  0.00  0.00    +0.000 A 
ATOM      5  N   UNL     1       3.675   3.230  18.044  0.00  0.00    +0.000 N 
ATOM      6  C   UNL     1       4.426   3.980  18.894  0.00  0.00    +0.000 A 
ATOM      7  N   UNL     1       3.985   3.900  20.128  0.00  0.00    +0.000 NA
ATOM      8  O   UNL     1       5.459   4.723  18.542  0.00  0.00    +0.000 OA
ATOM      9  C   UNL     1       5.867   4.754  17.175  0.00  0.00    +0.000 C 
ATOM     10  C   UNL     1       5.062   3.950  16.134  0.00  0.00    +0.000 C 
ATOM     11  C   UNL     1       3.870   3.159  16.628  0.00  0.00    +0.000 C 
BRANCH   3  13
ATOM     12  O   UNL     1       2.756   2.393  22.243  0.00  0.00    +0.000 OA
ATOM     13  N   UNL     1       2.120   2.712  21.227  0.00  0.00    +0.000 N 
ATOM     14  O   UNL     1       0.886   2.759  21.135  0.00  0.00    +0.000 OA
ENDBRANCH   3  13
ENDBRANCH   2   9
ENDBRANCH   1   2
BRANCH   1  15
ATOM     15  C   UNL     1       3.770   7.023  17.066  0.00  0.00    +0.000 C 
BRANCH  15  16
ATOM     16  C   UNL     1       2.883   7.721  18.057  0.00  0.00    +0.000 A 
ATOM     17  C   UNL     1       2.688   7.187  19.334  0.00  0.00    +0.000 A 
ATOM     18  C   UNL     1       1.855   7.828  20.253  0.00  0.00    +0.000 A 
ATOM     19  C   UNL     1       1.204   9.036  19.938  0.00  0.00    +0.000 A 
ATOM     20  C   UNL     1       1.421   9.565  18.654  0.00  0.00    +0.000 A 
ATOM     21  C   UNL     1       2.242   8.917  17.724  0.00  0.00    +0.000 A 
BRANCH  19  22
ATOM     22  C   UNL     1       0.331   9.716  20.922  0.00  0.00    +0.000 A 
ATOM     23  C   UNL     1      -0.457  10.823  20.551  0.00  0.00    +0.000 A 
ATOM     24  C   UNL     1      -1.268  11.484  21.476  0.00  0.00    +0.000 A 
ATOM     25  C   UNL     1      -1.315  11.032  22.787  0.00  0.00    +0.000 A 
ATOM     26  F   UNL     1      -2.094  11.662  23.674  0.00  0.00    +0.000 F 
ATOM     27  C   UNL     1      -0.563   9.940  23.187  0.00  0.00    +0.000 A 
ATOM     28  C   UNL     1       0.258   9.288  22.262  0.00  0.00    +0.000 A 
ENDBRANCH  19  22
ENDBRANCH  15  16
ENDBRANCH   1  15
TORSDOF 6
ENDMDL
MODEL 4
REMARK VINA RESULT:      -8.1      5.897      9.667
REMARK  Name = 
REMARK  6 active torsions:
REMARK  status: ('A' for Active; 'I' for Inactive)
REMARK    1  A    between atoms: N_2  and  C_4
REMARK    2  A    between atoms: C_10  and  C_11
REMARK    3  A    between atoms: C_11  and  O_12
REMARK    4  A    between atoms: O_12  and  C_13
REMARK    5  A    between atoms: C_13  and  C_14
REMARK    6  A    between atoms: C_17  and  C_18
REMARK                            x       y       z     vdW  Elec       q    Type
REMARK                         _______ _______ _______ _____ _____    ______ ____
ROOT
ATOM      1  O   UNL     1       2.040   5.696  17.872  0.00  0.00    +0.000 OA
ENDROOT
BRANCH   1   2
ATOM      2  C   UNL     1       2.046   4.549  18.714  0.00  0.00    +0.000 C 
BRANCH   2   9
ATOM      3  C   UNL     1       6.378   4.552  15.311  0.00  0.00    +0.000 A 
ATOM      4  C   UNL     1       6.877   4.599  16.598  0.00  0.00    +0.000 A 
ATOM      5  N   UNL     1       5.799   4.308  17.383  0.00  0.00    +0.000 N 
ATOM      6  C   UNL     1       4.725   4.090  16.578  0.00  0.00    +0.000 A 
ATOM      7  N   UNL     1       5.034   4.232  15.311  0.00  0.00    +0.000 NA
ATOM      8  O   UNL     1       3.508   3.794  16.997  0.00  0.00    +0.000 OA
ATOM      9  C   UNL     1       3.262   3.663  18.397  0.00  0.00    +0.000 C 
ATOM     10  C   UNL     1       4.416   3.912  19.388  0.00  0.00    +0.000 C 
ATOM     11  C   UNL     1       5.766   4.284  18.814  0.00  0.00    +0.000 C 
BRANCH   3  13
ATOM     12  O   UNL     1       6.740   4.162  13.088  0.00  0.00    +0.000 OA
ATOM     13  N   UNL     1       7.100   4.806  14.085  0.00  0.00    +0.000 N 
ATOM     14  O   UNL     1       8.021   5.634  14.114  0.00  0.00    +0.000 OA
ENDBRANCH   3  13
ENDBRANCH   2   9
ENDBRANCH   1   2
BRANCH   1  15
ATOM     15  C   UNL     1       2.964   6.684  18.322  0.00  0.00    +0.000 C 
BRANCH  15  16
ATOM     16  C   UNL     1       2.206   7.707  19.120  0.00  0.00    +0.000 A 
ATOM     17  C   UNL     1       1.979   7.516  20.485  0.00  0.00    +0.000 A 
ATOM     18  C   UNL     1       1.264   8.460  21.226  0.00  0.00    +0.000 A 
ATOM     19  C   UNL     1       0.770   9.637  20.634  0.00  0.00    +0.000 A 
ATOM     20  C   UNL     1       1.017   9.819  19.262  0.00  0.00    +0.000 A 
ATOM     21  C   UNL     1       1.719   8.868  18.513  0.00  0.00    +0.000 A 
BRANCH  19  22
ATOM     22  C   UNL     1       0.023  10.640  21.428  0.00  0.00    +0.000 A 
ATOM     23  C   UNL     1       0.070  12.009  21.100  0.00  0.00    +0.000 A 
ATOM     24  C   UNL     1      -0.615  12.963  21.854  0.00  0.00    +0.000 A 
ATOM     25  C   UNL     1      -1.374  12.557  22.942  0.00  0.00    +0.000 A 
ATOM     26  F   UNL     1      -2.033  13.471  23.664  0.00  0.00    +0.000 F 
ATOM     27  C   UNL     1      -1.454  11.219  23.289  0.00  0.00    +0.000 A 
ATOM     28  C   UNL     1      -0.757  10.266  22.540  0.00  0.00    +0.000 A 
ENDBRANCH  19  22
ENDBRANCH  15  16
ENDBRANCH   1  15
TORSDOF 6
ENDMDL
MODEL 5
REMARK VINA RESULT:      -8.1      6.090      9.650
REMARK  Name = 
REMARK  6 active torsions:
REMARK  status: ('A' for Active; 'I' for Inactive)
REMARK    1  A    between atoms: N_2  and  C_4
REMARK    2  A    between atoms: C_10  and  C_11
REMARK    3  A    between atoms: C_11  and  O_12
REMARK    4  A    between atoms: O_12  and  C_13
REMARK    5  A    between atoms: C_13  and  C_14
REMARK    6  A    between atoms: C_17  and  C_18
REMARK                            x       y       z     vdW  Elec       q    Type
REMARK                         _______ _______ _______ _____ _____    ______ ____
ROOT
ATOM      1  O   UNL     1       3.471   5.447  18.347  0.00  0.00    +0.000 OA
ENDROOT
BRANCH   1   2
ATOM      2  C   UNL     1       4.554   5.317  19.261  0.00  0.00    +0.000 C 
BRANCH   2   9
ATOM      3  C   UNL     1       6.153   4.121  14.127  0.00  0.00    +0.000 A 
ATOM      4  C   UNL     1       6.994   5.115  14.589  0.00  0.00    +0.000 A 
ATOM      5  N   UNL     1       6.744   5.163  15.930  0.00  0.00    +0.000 N 
ATOM      6  C   UNL     1       5.806   4.226  16.229  0.00  0.00    +0.000 A 
ATOM      7  N   UNL     1       5.417   3.573  15.159  0.00  0.00    +0.000 NA
ATOM      8  O   UNL     1       5.314   3.999  17.433  0.00  0.00    +0.000 OA
ATOM      9  C   UNL     1       5.793   4.761  18.541  0.00  0.00    +0.000 C 
ATOM     10  C   UNL     1       6.845   5.862  18.295  0.00  0.00    +0.000 C 
ATOM     11  C   UNL     1       7.319   6.074  16.873  0.00  0.00    +0.000 C 
BRANCH   3  13
ATOM     12  O   UNL     1       4.839   3.457  12.377  0.00  0.00    +0.000 OA
ATOM     13  N   UNL     1       5.999   3.674  12.761  0.00  0.00    +0.000 N 
ATOM     14  O   UNL     1       7.022   3.533  12.077  0.00  0.00    +0.000 OA
ENDBRANCH   3  13
ENDBRANCH   2   9
ENDBRANCH   1   2
BRANCH   1  15
ATOM     15  C   UNL     1       3.421   6.752  17.773  0.00  0.00    +0.000 C 
BRANCH  15  16
ATOM     16  C   UNL     1       2.532   7.607  18.630  0.00  0.00    +0.000 A 
ATOM     17  C   UNL     1       2.002   8.800  18.132  0.00  0.00    +0.000 A 
ATOM     18  C   UNL     1       1.184   9.603  18.931  0.00  0.00    +0.000 A 
ATOM     19  C   UNL     1       0.850   9.231  20.247  0.00  0.00    +0.000 A 
ATOM     20  C   UNL     1       1.382   8.022  20.727  0.00  0.00    +0.000 A 
ATOM     21  C   UNL     1       2.214   7.223  19.935  0.00  0.00    +0.000 A 
BRANCH  19  22
ATOM     22  C   UNL     1      -0.028  10.082  21.084  0.00  0.00    +0.000 A 
ATOM     23  C   UNL     1      -0.664  11.218  20.548  0.00  0.00    +0.000 A 
ATOM     24  C   UNL     1      -1.478  12.037  21.335  0.00  0.00    +0.000 A 
ATOM     25  C   UNL     1      -1.680  11.717  22.670  0.00  0.00    +0.000 A 
ATOM     26  F   UNL     1      -2.461  12.499  23.424  0.00  0.00    +0.000 F 
ATOM     27  C   UNL     1      -1.079  10.602  23.230  0.00  0.00    +0.000 A 
ATOM     28  C   UNL     1      -0.255   9.790  22.443  0.00  0.00    +0.000 A 
ENDBRANCH  19  22
ENDBRANCH  15  16
ENDBRANCH   1  15
TORSDOF 6
ENDMDL
MODEL 6
REMARK VINA RESULT:      -8.0      8.191     10.393
REMARK  Name = 
REMARK  6 active torsions:
REMARK  status: ('A' for Active; 'I' for Inactive)
REMARK    1  A    between atoms: N_2  and  C_4
REMARK    2  A    between atoms: C_10  and  C_11
REMARK    3  A    between atoms: C_11  and  O_12
REMARK    4  A    between atoms: O_12  and  C_13
REMARK    5  A    between atoms: C_13  and  C_14
REMARK    6  A    between atoms: C_17  and  C_18
REMARK                            x       y       z     vdW  Elec       q    Type
REMARK                         _______ _______ _______ _____ _____    ______ ____
ROOT
ATOM      1  O   UNL     1       8.459   8.488  18.561  0.00  0.00    +0.000 OA
ENDROOT
BRANCH   1   2
ATOM      2  C   UNL     1       8.354   9.904  18.459  0.00  0.00    +0.000 C 
BRANCH   2   9
ATOM      3  C   UNL     1      10.756  14.862  18.390  0.00  0.00    +0.000 A 
ATOM      4  C   UNL     1      10.490  14.561  19.711  0.00  0.00    +0.000 A 
ATOM      5  N   UNL     1      10.172  13.234  19.693  0.00  0.00    +0.000 N 
ATOM      6  C   UNL     1      10.263  12.786  18.413  0.00  0.00    +0.000 A 
ATOM      7  N   UNL     1      10.612  13.746  17.588  0.00  0.00    +0.000 NA
ATOM      8  O   UNL     1      10.014  11.551  18.019  0.00  0.00    +0.000 OA
ATOM      9  C   UNL     1       9.636  10.571  18.986  0.00  0.00    +0.000 C 
ATOM     10  C   UNL     1       9.487  10.991  20.462  0.00  0.00    +0.000 C 
ATOM     11  C   UNL     1       9.757  12.440  20.809  0.00  0.00    +0.000 C 
BRANCH   3  13
ATOM     12  O   UNL     1      11.534  16.156  16.673  0.00  0.00    +0.000 OA
ATOM     13  N   UNL     1      11.124  16.149  17.844  0.00  0.00    +0.000 N 
ATOM     14  O   UNL     1      11.012  17.143  18.574  0.00  0.00    +0.000 OA
ENDBRANCH   3  13
ENDBRANCH   2   9
ENDBRANCH   1   2
BRANCH   1  15
ATOM     15  C   UNL     1       8.176   7.849  17.318  0.00  0.00    +0.000 C 
BRANCH  15  16
ATOM     16  C   UNL     1       7.005   6.930  17.520  0.00  0.00    +0.000 A 
ATOM     17  C   UNL     1       5.823   7.119  16.799  0.00  0.00    +0.000 A 
ATOM     18  C   UNL     1       4.729   6.273  16.994  0.00  0.00    +0.000 A 
ATOM     19  C   UNL     1       4.784   5.195  17.898  0.00  0.00    +0.000 A 
ATOM     20  C   UNL     1       5.985   5.012  18.605  0.00  0.00    +0.000 A 
ATOM     21  C   UNL     1       7.078   5.867  18.425  0.00  0.00    +0.000 A 
BRANCH  19  22
ATOM     22  C   UNL     1       3.624   4.295  18.090  0.00  0.00    +0.000 A 
ATOM     23  C   UNL     1       2.424   4.767  18.656  0.00  0.00    +0.000 A 
ATOM     24  C   UNL     1       1.332   3.920  18.859  0.00  0.00    +0.000 A 
ATOM     25  C   UNL     1       1.420   2.589  18.480  0.00  0.00    +0.000 A 
ATOM     26  F   UNL     1       0.373   1.778  18.671  0.00  0.00    +0.000 F 
ATOM     27  C   UNL     1       2.580   2.091  17.910  0.00  0.00    +0.000 A 
ATOM     28  C   UNL     1       3.677   2.937  17.719  0.00  0.00    +0.000 A 
ENDBRANCH  19  22
ENDBRANCH  15  16
ENDBRANCH   1  15
TORSDOF 6
ENDMDL
MODEL 7
REMARK VINA RESULT:      -8.0      5.914      9.752
REMARK  Name = 
REMARK  6 active torsions:
REMARK  status: ('A' for Active; 'I' for Inactive)
REMARK    1  A    between atoms: N_2  and  C_4
REMARK    2  A    between atoms: C_10  and  C_11
REMARK    3  A    between atoms: C_11  and  O_12
REMARK    4  A    between atoms: O_12  and  C_13
REMARK    5  A    between atoms: C_13  and  C_14
REMARK    6  A    between atoms: C_17  and  C_18
REMARK                            x       y       z     vdW  Elec       q    Type
REMARK                         _______ _______ _______ _____ _____    ______ ____
ROOT
ATOM      1  O   UNL     1       2.331   5.599  19.697  0.00  0.00    +0.000 OA
ENDROOT
BRANCH   1   2
ATOM      2  C   UNL     1       1.974   4.624  18.723  0.00  0.00    +0.000 C 
BRANCH   2   9
ATOM      3  C   UNL     1       6.365   4.584  15.396  0.00  0.00    +0.000 A 
ATOM      4  C   UNL     1       6.842   4.602  16.693  0.00  0.00    +0.000 A 
ATOM      5  N   UNL     1       5.744   4.322  17.454  0.00  0.00    +0.000 N 
ATOM      6  C   UNL     1       4.681   4.140  16.628  0.00  0.00    +0.000 A 
ATOM      7  N   UNL     1       5.015   4.293  15.368  0.00  0.00    +0.000 NA
ATOM      8  O   UNL     1       3.451   3.863  17.020  0.00  0.00    +0.000 OA
ATOM      9  C   UNL     1       3.176   3.717  18.414  0.00  0.00    +0.000 C 
ATOM     10  C   UNL     1       4.317   3.927  19.429  0.00  0.00    +0.000 C 
ATOM     11  C   UNL     1       5.685   4.279  18.884  0.00  0.00    +0.000 C 
BRANCH   3  13
ATOM     12  O   UNL     1       6.755   4.223  13.173  0.00  0.00    +0.000 OA
ATOM     13  N   UNL     1       7.114   4.841  14.187  0.00  0.00    +0.000 N 
ATOM     14  O   UNL     1       8.055   5.644  14.246  0.00  0.00    +0.000 OA
ENDBRANCH   3  13
ENDBRANCH   2   9
ENDBRANCH   1   2
BRANCH   1  15
ATOM     15  C   UNL     1       2.713   6.832  19.092  0.00  0.00    +0.000 C 
BRANCH  15  16
ATOM     16  C   UNL     1       1.825   7.915  19.635  0.00  0.00    +0.000 A 
ATOM     17  C   UNL     1       1.416   8.973  18.819  0.00  0.00    +0.000 A 
ATOM     18  C   UNL     1       0.599   9.987  19.326  0.00  0.00    +0.000 A 
ATOM     19  C   UNL     1       0.146   9.969  20.658  0.00  0.00    +0.000 A 
ATOM     20  C   UNL     1       0.557   8.891  21.461  0.00  0.00    +0.000 A 
ATOM     21  C   UNL     1       1.387   7.881  20.962  0.00  0.00    +0.000 A 
BRANCH  19  22
ATOM     22  C   UNL     1      -0.730  11.041  21.185  0.00  0.00    +0.000 A 
ATOM     23  C   UNL     1      -1.465  11.871  20.316  0.00  0.00    +0.000 A 
ATOM     24  C   UNL     1      -2.278  12.897  20.802  0.00  0.00    +0.000 A 
ATOM     25  C   UNL     1      -2.379  13.096  22.172  0.00  0.00    +0.000 A 
ATOM     26  F   UNL     1      -3.160  14.078  22.639  0.00  0.00    +0.000 F 
ATOM     27  C   UNL     1      -1.680  12.294  23.057  0.00  0.00    +0.000 A 
ATOM     28  C   UNL     1      -0.857  11.274  22.568  0.00  0.00    +0.000 A 
ENDBRANCH  19  22
ENDBRANCH  15  16
ENDBRANCH   1  15
TORSDOF 6
ENDMDL
MODEL 8
REMARK VINA RESULT:      -8.0      5.962      9.571
REMARK  Name = 
REMARK  6 active torsions:
REMARK  status: ('A' for Active; 'I' for Inactive)
REMARK    1  A    between atoms: N_2  and  C_4
REMARK    2  A    between atoms: C_10  and  C_11
REMARK    3  A    between atoms: C_11  and  O_12
REMARK    4  A    between atoms: O_12  and  C_13
REMARK    5  A    between atoms: C_13  and  C_14
REMARK    6  A    between atoms: C_17  and  C_18
REMARK                            x       y       z     vdW  Elec       q    Type
REMARK                         _______ _______ _______ _____ _____    ______ ____
ROOT
ATOM      1  O   UNL     1       2.747   5.453  18.313  0.00  0.00    +0.000 OA
ENDROOT
BRANCH   1   2
ATOM      2  C   UNL     1       2.668   4.032  18.328  0.00  0.00    +0.000 C 
BRANCH   2   9
ATOM      3  C   UNL     1       6.789   4.656  14.725  0.00  0.00    +0.000 A 
ATOM      4  C   UNL     1       7.296   4.959  15.974  0.00  0.00    +0.000 A 
ATOM      5  N   UNL     1       6.337   4.516  16.838  0.00  0.00    +0.000 N 
ATOM      6  C   UNL     1       5.324   3.969  16.115  0.00  0.00    +0.000 A 
ATOM      7  N   UNL     1       5.558   4.038  14.825  0.00  0.00    +0.000 NA
ATOM      8  O   UNL     1       4.221   3.449  16.623  0.00  0.00    +0.000 OA
ATOM      9  C   UNL     1       4.049   3.420  18.040  0.00  0.00    +0.000 C 
ATOM     10  C   UNL     1       5.138   4.036  18.941  0.00  0.00    +0.000 C 
ATOM     11  C   UNL     1       6.348   4.643  18.264  0.00  0.00    +0.000 C 
BRANCH   3  13
ATOM     12  O   UNL     1       8.286   5.801  13.431  0.00  0.00    +0.000 OA
ATOM     13  N   UNL     1       7.399   4.933  13.444  0.00  0.00    +0.000 N 
ATOM     14  O   UNL     1       6.997   4.299  12.460  0.00  0.00    +0.000 OA
ENDBRANCH   3  13
ENDBRANCH   2   9
ENDBRANCH   1   2
BRANCH   1  15
ATOM     15  C   UNL     1       2.547   6.004  19.614  0.00  0.00    +0.000 C 
BRANCH  15  16
ATOM     16  C   UNL     1       2.092   7.426  19.455  0.00  0.00    +0.000 A 
ATOM     17  C   UNL     1       1.475   8.096  20.514  0.00  0.00    +0.000 A 
ATOM     18  C   UNL     1       1.041   9.415  20.365  0.00  0.00    +0.000 A 
ATOM     19  C   UNL     1       1.227  10.118  19.160  0.00  0.00    +0.000 A 
ATOM     20  C   UNL     1       1.860   9.433  18.109  0.00  0.00    +0.000 A 
ATOM     21  C   UNL     1       2.283   8.107  18.249  0.00  0.00    +0.000 A 
BRANCH  19  22
ATOM     22  C   UNL     1       0.774  11.521  19.012  0.00  0.00    +0.000 A 
ATOM     23  C   UNL     1      -0.578  11.871  19.193  0.00  0.00    +0.000 A 
ATOM     24  C   UNL     1      -1.017  13.188  19.037  0.00  0.00    +0.000 A 
ATOM     25  C   UNL     1      -0.101  14.179  18.714  0.00  0.00    +0.000 A 
ATOM     26  F   UNL     1      -0.520  15.441  18.567  0.00  0.00    +0.000 F 
ATOM     27  C   UNL     1       1.238  13.875  18.539  0.00  0.00    +0.000 A 
ATOM     28  C   UNL     1       1.674  12.554  18.684  0.00  0.00    +0.000 A 
ENDBRANCH  19  22
ENDBRANCH  15  16
ENDBRANCH   1  15
TORSDOF 6
ENDMDL
MODEL 9
REMARK VINA RESULT:      -8.0      6.089      9.730
REMARK  Name = 
REMARK  6 active torsions:
REMARK  status: ('A' for Active; 'I' for Inactive)
REMARK    1  A    between atoms: N_2  and  C_4
REMARK    2  A    between atoms: C_10  and  C_11
REMARK    3  A    between atoms: C_11  and  O_12
REMARK    4  A    between atoms: O_12  and  C_13
REMARK    5  A    between atoms: C_13  and  C_14
REMARK    6  A    between atoms: C_17  and  C_18
REMARK                            x       y       z     vdW  Elec       q    Type
REMARK                         _______ _______ _______ _____ _____    ______ ____
ROOT
ATOM      1  O   UNL     1       2.454   5.512  18.985  0.00  0.00    +0.000 OA
ENDROOT
BRANCH   1   2
ATOM      2  C   UNL     1       2.320   4.377  18.137  0.00  0.00    +0.000 C 
BRANCH   2   9
ATOM      3  C   UNL     1       6.702   4.741  14.818  0.00  0.00    +0.000 A 
ATOM      4  C   UNL     1       7.139   5.031  16.095  0.00  0.00    +0.000 A 
ATOM      5  N   UNL     1       6.102   4.649  16.896  0.00  0.00    +0.000 N 
ATOM      6  C   UNL     1       5.112   4.148  16.111  0.00  0.00    +0.000 A 
ATOM      7  N   UNL     1       5.436   4.189  14.840  0.00  0.00    +0.000 NA
ATOM      8  O   UNL     1       3.952   3.693  16.547  0.00  0.00    +0.000 OA
ATOM      9  C   UNL     1       3.683   3.690  17.949  0.00  0.00    +0.000 C 
ATOM     10  C   UNL     1       4.740   4.259  18.917  0.00  0.00    +0.000 C 
ATOM     11  C   UNL     1       6.023   4.793  18.318  0.00  0.00    +0.000 C 
BRANCH   3  13
ATOM     12  O   UNL     1       8.363   5.764  13.627  0.00  0.00    +0.000 OA
ATOM     13  N   UNL     1       7.411   4.970  13.579  0.00  0.00    +0.000 N 
ATOM     14  O   UNL     1       7.023   4.370  12.568  0.00  0.00    +0.000 OA
ENDBRANCH   3  13
ENDBRANCH   2   9
ENDBRANCH   1   2
BRANCH   1  15
ATOM     15  C   UNL     1       2.672   6.705  18.236  0.00  0.00    +0.000 C 
BRANCH  15  16
ATOM     16  C   UNL     1       2.050   7.849  18.985  0.00  0.00    +0.000 A 
ATOM     17  C   UNL     1       1.818   7.753  20.360  0.00  0.00    +0.000 A 
ATOM     18  C   UNL     1       1.228   8.811  21.056  0.00  0.00    +0.000 A 
ATOM     19  C   UNL     1       0.870  10.008  20.409  0.00  0.00    +0.000 A 
ATOM     20  C   UNL     1       1.122  10.092  19.029  0.00  0.00    +0.000 A 
ATOM     21  C   UNL     1       1.697   9.029  18.324  0.00  0.00    +0.000 A 
BRANCH  19  22
ATOM     22  C   UNL     1       0.256  11.131  21.156  0.00  0.00    +0.000 A 
ATOM     23  C   UNL     1      -0.669  10.894  22.191  0.00  0.00    +0.000 A 
ATOM     24  C   UNL     1      -1.267  11.946  22.888  0.00  0.00    +0.000 A 
ATOM     25  C   UNL     1      -0.933  13.254  22.569  0.00  0.00    +0.000 A 
ATOM     26  F   UNL     1      -1.504  14.263  23.238  0.00  0.00    +0.000 F 
ATOM     27  C   UNL     1      -0.019  13.526  21.564  0.00  0.00    +0.000 A 
ATOM     28  C   UNL     1       0.570  12.471  20.859  0.00  0.00    +0.000 A 
ENDBRANCH  19  22
ENDBRANCH  15  16
ENDBRANCH   1  15
TORSDOF 6
ENDMDL
