MODEL 1
REMARK VINA RESULT:      -8.8      0.000      0.000
REMARK  Name = 
REMARK  11 active torsions:
REMARK  status: ('A' for Active; 'I' for Inactive)
REMARK    1  A    between atoms: C_1  and  C_2
REMARK    2  A    between atoms: C_6  and  C_7
REMARK    3  A    between atoms: C_8  and  C_9
REMARK    4  A    between atoms: C_9  and  O_10
REMARK    5  A    between atoms: C_9  and  C_11
REMARK    6  A    between atoms: C_16  and  C_17
REMARK    7  A    between atoms: C_18  and  C_19
REMARK    8  A    between atoms: C_19  and  O_21
REMARK    9  A    between atoms: C_22  and  O_23
REMARK   10  A    between atoms: O_23  and  C_24
REMARK   11  A    between atoms: C_24  and  C_25
REMARK                            x       y       z     vdW  Elec       q    Type
REMARK                         _______ _______ _______ _____ _____    ______ ____
ROOT
ATOM      1  C   UNL     1       7.720   5.409  19.078  0.00  0.00    +0.000 C 
ATOM      2  C   UNL     1       6.687   5.508  17.970  0.00  0.00    +0.000 A 
ATOM      3  C   UNL     1       7.165   5.325  16.677  0.00  0.00    +0.000 A 
ATOM      4  C   UNL     1       6.381   5.692  15.610  0.00  0.00    +0.000 A 
ATOM      5  C   UNL     1       5.156   6.328  15.839  0.00  0.00    +0.000 A 
ATOM      6  C   UNL     1       4.572   6.485  17.125  0.00  0.00    +0.000 A 
ATOM      7  C   UNL     1       5.332   5.934  18.208  0.00  0.00    +0.000 A 
ENDROOT
BRANCH   6   8
ATOM      8  C   UNL     1       3.300   7.320  17.149  0.00  0.00    +0.000 C 
ATOM      9  C   UNL     1       2.878   8.153  18.144  0.00  0.00    +0.000 C 
BRANCH   9  10
ATOM     10  C   UNL     1       1.593   8.965  18.315  0.00  0.00    +0.000 C 
BRANCH  10  11
ATOM     11  C   UNL     1       1.082   9.294  19.734  0.00  0.00    +0.000 A 
ATOM     12  C   UNL     1       1.511   8.489  20.820  0.00  0.00    +0.000 A 
ATOM     13  C   UNL     1       1.047   8.673  22.141  0.00  0.00    +0.000 A 
ATOM     14  C   UNL     1       0.228   9.741  22.459  0.00  0.00    +0.000 A 
ATOM     15  C   UNL     1      -0.146  10.589  21.439  0.00  0.00    +0.000 A 
ATOM     16  C   UNL     1       0.225  10.351  20.086  0.00  0.00    +0.000 A 
BRANCH  16  17
ATOM     17  C   UNL     1      -0.632  11.123  19.190  0.00  0.00    +0.000 C 
ATOM     18  C   UNL     1      -0.491  12.438  19.432  0.00  0.00    +0.000 C 
BRANCH  18  19
ATOM     19  C   UNL     1      -0.544  13.418  18.349  0.00  0.00    +0.000 C 
ATOM     20  O   UNL     1      -0.309  14.616  18.370  0.00  0.00    +0.000 OA
BRANCH  19  21
ATOM     21  O   UNL     1      -1.077  12.813  17.255  0.00  0.00    +0.000 OA
ATOM     22  H   UNL     1      -0.359  12.237  16.955  0.00  0.00    +0.000 HD
ENDBRANCH  19  21
ENDBRANCH  18  19
ENDBRANCH  16  17
ENDBRANCH  10  11
BRANCH  10  23
ATOM     23  O   UNL     1       1.686  10.146  17.525  0.00  0.00    +0.000 OA
ATOM     24  H   UNL     1       0.881  10.185  16.985  0.00  0.00    +0.000 HD
ENDBRANCH  10  23
ENDBRANCH   9  10
ENDBRANCH   6   8
BRANCH   7  25
ATOM     25  O   UNL     1       4.992   5.569  19.487  0.00  0.00    +0.000 OA
BRANCH  25  26
ATOM     26  C   UNL     1       4.547   4.313  19.938  0.00  0.00    +0.000 C 
BRANCH  26  27
ATOM     27  C   UNL     1       3.258   3.743  19.354  0.00  0.00    +0.000 A 
ATOM     28  C   UNL     1       3.066   3.010  18.186  0.00  0.00    +0.000 A 
ATOM     29 CL   UNL     1       4.219   3.014  16.910  0.00  0.00    +0.000 Cl
ATOM     30  C   UNL     1       1.861   2.293  17.984  0.00  0.00    +0.000 A 
ATOM     31  C   UNL     1       0.901   2.191  18.993  0.00  0.00    +0.000 A 
ATOM     32  C   UNL     1       1.047   2.975  20.119  0.00  0.00    +0.000 A 
ATOM     33  C   UNL     1       2.125   3.854  20.157  0.00  0.00    +0.000 A 
ATOM     34 CL   UNL     1       1.710   5.468  20.551  0.00  0.00    +0.000 Cl
ENDBRANCH  26  27
ENDBRANCH  25  26
ENDBRANCH   7  25
TORSDOF 10
ENDMDL
MODEL 2
REMARK VINA RESULT:      -8.7      0.738      1.677
REMARK  Name = 
REMARK  11 active torsions:
REMARK  status: ('A' for Active; 'I' for Inactive)
REMARK    1  A    between atoms: C_1  and  C_2
REMARK    2  A    between atoms: C_6  and  C_7
REMARK    3  A    between atoms: C_8  and  C_9
REMARK    4  A    between atoms: C_9  and  O_10
REMARK    5  A    between atoms: C_9  and  C_11
REMARK    6  A    between atoms: C_16  and  C_17
REMARK    7  A    between atoms: C_18  and  C_19
REMARK    8  A    between atoms: C_19  and  O_21
REMARK    9  A    between atoms: C_22  and  O_23
REMARK   10  A    between atoms: O_23  and  C_24
REMARK   11  A    between atoms: C_24  and  C_25
REMARK                            x       y       z     vdW  Elec       q    Type
REMARK                         _______ _______ _______ _____ _____    ______ ____
ROOT
ATOM      1  C   UNL     1       7.937   5.131  18.733  0.00  0.00    +0.000 C 
ATOM      2  C   UNL     1       6.788   5.214  17.744  0.00  0.00    +0.000 A 
ATOM      3  C   UNL     1       7.138   5.144  16.400  0.00  0.00    +0.000 A 
ATOM      4  C   UNL     1       6.221   5.511  15.445  0.00  0.00    +0.000 A 
ATOM      5  C   UNL     1       4.985   6.036  15.837  0.00  0.00    +0.000 A 
ATOM      6  C   UNL     1       4.531   6.072  17.183  0.00  0.00    +0.000 A 
ATOM      7  C   UNL     1       5.438   5.520  18.146  0.00  0.00    +0.000 A 
ENDROOT
BRANCH   6   8
ATOM      8  C   UNL     1       3.213   6.804  17.392  0.00  0.00    +0.000 C 
ATOM      9  C   UNL     1       3.033   8.142  17.587  0.00  0.00    +0.000 C 
BRANCH   9  10
ATOM     10  C   UNL     1       1.781   8.967  17.890  0.00  0.00    +0.000 C 
BRANCH  10  11
ATOM     11  C   UNL     1       1.231   9.018  19.330  0.00  0.00    +0.000 A 
ATOM     12  C   UNL     1       1.704   8.075  20.278  0.00  0.00    +0.000 A 
ATOM     13  C   UNL     1       1.213   8.004  21.600  0.00  0.00    +0.000 A 
ATOM     14  C   UNL     1       0.315   8.944  22.071  0.00  0.00    +0.000 A 
ATOM     15  C   UNL     1      -0.107   9.922  21.198  0.00  0.00    +0.000 A 
ATOM     16  C   UNL     1       0.296   9.940  19.833  0.00  0.00    +0.000 A 
BRANCH  16  17
ATOM     17  C   UNL     1      -0.604  10.791  19.058  0.00  0.00    +0.000 C 
ATOM     18  C   UNL     1      -0.434  12.079  19.399  0.00  0.00    +0.000 C 
BRANCH  18  19
ATOM     19  C   UNL     1      -0.540  13.147  18.407  0.00  0.00    +0.000 C 
ATOM     20  O   UNL     1      -0.284  14.336  18.511  0.00  0.00    +0.000 OA
BRANCH  19  21
ATOM     21  O   UNL     1      -1.152  12.641  17.304  0.00  0.00    +0.000 OA
ATOM     22  H   UNL     1      -1.639  11.882  17.656  0.00  0.00    +0.000 HD
ENDBRANCH  19  21
ENDBRANCH  18  19
ENDBRANCH  16  17
ENDBRANCH  10  11
BRANCH  10  23
ATOM     23  O   UNL     1       1.958  10.281  17.369  0.00  0.00    +0.000 OA
ATOM     24  H   UNL     1       1.732  10.241  16.426  0.00  0.00    +0.000 HD
ENDBRANCH  10  23
ENDBRANCH   9  10
ENDBRANCH   6   8
BRANCH   7  25
ATOM     25  O   UNL     1       5.262   5.056  19.425  0.00  0.00    +0.000 OA
BRANCH  25  26
ATOM     26  C   UNL     1       4.841   3.777  19.831  0.00  0.00    +0.000 C 
BRANCH  26  27
ATOM     27  C   UNL     1       3.387   3.378  19.597  0.00  0.00    +0.000 A 
ATOM     28  C   UNL     1       2.254   3.693  20.341  0.00  0.00    +0.000 A 
ATOM     29 CL   UNL     1       2.357   4.222  21.975  0.00  0.00    +0.000 Cl
ATOM     30  C   UNL     1       0.963   3.511  19.788  0.00  0.00    +0.000 A 
ATOM     31  C   UNL     1       0.794   3.142  18.451  0.00  0.00    +0.000 A 
ATOM     32  C   UNL     1       1.906   2.754  17.731  0.00  0.00    +0.000 A 
ATOM     33  C   UNL     1       3.125   2.713  18.401  0.00  0.00    +0.000 A 
ATOM     34 CL   UNL     1       3.980   1.240  18.226  0.00  0.00    +0.000 Cl
ENDBRANCH  26  27
ENDBRANCH  25  26
ENDBRANCH   7  25
TORSDOF 10
ENDMDL
MODEL 3
REMARK VINA RESULT:      -8.5      1.567      2.252
REMARK  Name = 
REMARK  11 active torsions:
REMARK  status: ('A' for Active; 'I' for Inactive)
REMARK    1  A    between atoms: C_1  and  C_2
REMARK    2  A    between atoms: C_6  and  C_7
REMARK    3  A    between atoms: C_8  and  C_9
REMARK    4  A    between atoms: C_9  and  O_10
REMARK    5  A    between atoms: C_9  and  C_11
REMARK    6  A    between atoms: C_16  and  C_17
REMARK    7  A    between atoms: C_18  and  C_19
REMARK    8  A    between atoms: C_19  and  O_21
REMARK    9  A    between atoms: C_22  and  O_23
REMARK   10  A    between atoms: O_23  and  C_24
REMARK   11  A    between atoms: C_24  and  C_25
REMARK                            x       y       z     vdW  Elec       q    Type
REMARK                         _______ _______ _______ _____ _____    ______ ____
ROOT
ATOM      1  C   UNL     1       7.596   4.393  17.971  0.00  0.00    +0.000 C 
ATOM      2  C   UNL     1       6.427   4.997  17.215  0.00  0.00    +0.000 A 
ATOM      3  C   UNL     1       6.477   4.884  15.829  0.00  0.00    +0.000 A 
ATOM      4  C   UNL     1       5.637   5.652  15.059  0.00  0.00    +0.000 A 
ATOM      5  C   UNL     1       4.812   6.601  15.671  0.00  0.00    +0.000 A 
ATOM      6  C   UNL     1       4.656   6.726  17.078  0.00  0.00    +0.000 A 
ATOM      7  C   UNL     1       5.411   5.791  17.859  0.00  0.00    +0.000 A 
ENDROOT
BRANCH   6   8
ATOM      8  C   UNL     1       3.808   7.910  17.523  0.00  0.00    +0.000 C 
ATOM      9  C   UNL     1       2.447   8.005  17.502  0.00  0.00    +0.000 C 
BRANCH   9  10
ATOM     10  C   UNL     1       1.503   9.160  17.837  0.00  0.00    +0.000 C 
BRANCH  10  11
ATOM     11  C   UNL     1       0.928   9.286  19.264  0.00  0.00    +0.000 A 
ATOM     12  C   UNL     1       1.524   8.538  20.310  0.00  0.00    +0.000 A 
ATOM     13  C   UNL     1       1.029   8.539  21.632  0.00  0.00    +0.000 A 
ATOM     14  C   UNL     1      -0.009   9.378  21.997  0.00  0.00    +0.000 A 
ATOM     15  C   UNL     1      -0.561  10.177  21.019  0.00  0.00    +0.000 A 
ATOM     16  C   UNL     1      -0.144  10.104  19.660  0.00  0.00    +0.000 A 
BRANCH  16  17
ATOM     17  C   UNL     1      -1.151  10.715  18.796  0.00  0.00    +0.000 C 
ATOM     18  C   UNL     1      -1.277  10.009  17.659  0.00  0.00    +0.000 C 
BRANCH  18  19
ATOM     19  C   UNL     1      -2.575   9.849  17.007  0.00  0.00    +0.000 C 
ATOM     20  O   UNL     1      -2.843   9.735  15.821  0.00  0.00    +0.000 OA
BRANCH  19  21
ATOM     21  O   UNL     1      -3.545  10.007  17.947  0.00  0.00    +0.000 OA
ATOM     22  H   UNL     1      -4.263   9.451  17.612  0.00  0.00    +0.000 HD
ENDBRANCH  19  21
ENDBRANCH  18  19
ENDBRANCH  16  17
ENDBRANCH  10  11
BRANCH  10  23
ATOM     23  O   UNL     1       2.106  10.383  17.425  0.00  0.00    +0.000 OA
ATOM     24  H   UNL     1       1.689  11.089  17.945  0.00  0.00    +0.000 HD
ENDBRANCH  10  23
ENDBRANCH   9  10
ENDBRANCH   6   8
BRANCH   7  25
ATOM     25  O   UNL     1       5.289   5.352  19.153  0.00  0.00    +0.000 OA
BRANCH  25  26
ATOM     26  C   UNL     1       4.111   5.199  19.906  0.00  0.00    +0.000 C 
BRANCH  26  27
ATOM     27  C   UNL     1       3.177   4.039  19.573  0.00  0.00    +0.000 A 
ATOM     28  C   UNL     1       1.786   4.004  19.551  0.00  0.00    +0.000 A 
ATOM     29 CL   UNL     1       0.833   5.176  20.374  0.00  0.00    +0.000 Cl
ATOM     30  C   UNL     1       1.109   2.942  18.903  0.00  0.00    +0.000 A 
ATOM     31  C   UNL     1       1.806   1.984  18.163  0.00  0.00    +0.000 A 
ATOM     32  C   UNL     1       3.184   1.967  18.244  0.00  0.00    +0.000 A 
ATOM     33  C   UNL     1       3.790   2.883  19.098  0.00  0.00    +0.000 A 
ATOM     34 CL   UNL     1       4.914   2.195  20.192  0.00  0.00    +0.000 Cl
ENDBRANCH  26  27
ENDBRANCH  25  26
ENDBRANCH   7  25
TORSDOF 10
ENDMDL
MODEL 4
REMARK VINA RESULT:      -8.4      1.222      1.922
REMARK  Name = 
REMARK  11 active torsions:
REMARK  status: ('A' for Active; 'I' for Inactive)
REMARK    1  A    between atoms: C_1  and  C_2
REMARK    2  A    between atoms: C_6  and  C_7
REMARK    3  A    between atoms: C_8  and  C_9
REMARK    4  A    between atoms: C_9  and  O_10
REMARK    5  A    between atoms: C_9  and  C_11
REMARK    6  A    between atoms: C_16  and  C_17
REMARK    7  A    between atoms: C_18  and  C_19
REMARK    8  A    between atoms: C_19  and  O_21
REMARK    9  A    between atoms: C_22  and  O_23
REMARK   10  A    between atoms: O_23  and  C_24
REMARK   11  A    between atoms: C_24  and  C_25
REMARK                            x       y       z     vdW  Elec       q    Type
REMARK                         _______ _______ _______ _____ _____    ______ ____
ROOT
ATOM      1  C   UNL     1       7.919   5.270  19.193  0.00  0.00    +0.000 C 
ATOM      2  C   UNL     1       6.847   5.202  18.121  0.00  0.00    +0.000 A 
ATOM      3  C   UNL     1       7.279   4.827  16.853  0.00  0.00    +0.000 A 
ATOM      4  C   UNL     1       6.455   5.030  15.772  0.00  0.00    +0.000 A 
ATOM      5  C   UNL     1       5.236   5.693  15.947  0.00  0.00    +0.000 A 
ATOM      6  C   UNL     1       4.698   6.042  17.216  0.00  0.00    +0.000 A 
ATOM      7  C   UNL     1       5.498   5.659  18.341  0.00  0.00    +0.000 A 
ENDROOT
BRANCH   6   8
ATOM      8  C   UNL     1       3.423   6.872  17.161  0.00  0.00    +0.000 C 
ATOM      9  C   UNL     1       3.093   7.931  17.954  0.00  0.00    +0.000 C 
BRANCH   9  10
ATOM     10  C   UNL     1       1.821   8.776  18.047  0.00  0.00    +0.000 C 
BRANCH  10  11
ATOM     11  C   UNL     1       1.231   9.116  19.432  0.00  0.00    +0.000 A 
ATOM     12  C   UNL     1       1.499   8.249  20.522  0.00  0.00    +0.000 A 
ATOM     13  C   UNL     1       0.951   8.443  21.808  0.00  0.00    +0.000 A 
ATOM     14  C   UNL     1       0.209   9.574  22.096  0.00  0.00    +0.000 A 
ATOM     15  C   UNL     1      -0.006  10.477  21.078  0.00  0.00    +0.000 A 
ATOM     16  C   UNL     1       0.448  10.239  19.750  0.00  0.00    +0.000 A 
BRANCH  16  17
ATOM     17  C   UNL     1      -0.263  11.109  18.817  0.00  0.00    +0.000 C 
ATOM     18  C   UNL     1      -1.363  10.492  18.352  0.00  0.00    +0.000 C 
BRANCH  18  19
ATOM     19  C   UNL     1      -2.592  11.235  18.082  0.00  0.00    +0.000 C 
ATOM     20  O   UNL     1      -3.710  11.088  18.550  0.00  0.00    +0.000 OA
BRANCH  19  21
ATOM     21  O   UNL     1      -2.356  12.084  17.048  0.00  0.00    +0.000 OA
ATOM     22  H   UNL     1      -2.555  11.540  16.272  0.00  0.00    +0.000 HD
ENDBRANCH  19  21
ENDBRANCH  18  19
ENDBRANCH  16  17
ENDBRANCH  10  11
BRANCH  10  23
ATOM     23  O   UNL     1       1.993   9.955  17.267  0.00  0.00    +0.000 OA
ATOM     24  H   UNL     1       2.174  10.678  17.889  0.00  0.00    +0.000 HD
ENDBRANCH  10  23
ENDBRANCH   9  10
ENDBRANCH   6   8
BRANCH   7  25
ATOM     25  O   UNL     1       5.206   5.490  19.671  0.00  0.00    +0.000 OA
BRANCH  25  26
ATOM     26  C   UNL     1       3.994   5.063  20.243  0.00  0.00    +0.000 C 
BRANCH  26  27
ATOM     27  C   UNL     1       3.232   3.925  19.573  0.00  0.00    +0.000 A 
ATOM     28  C   UNL     1       1.881   3.837  19.247  0.00  0.00    +0.000 A 
ATOM     29 CL   UNL     1       0.700   4.845  19.987  0.00  0.00    +0.000 Cl
ATOM     30  C   UNL     1       1.429   2.849  18.339  0.00  0.00    +0.000 A 
ATOM     31  C   UNL     1       2.329   2.031  17.651  0.00  0.00    +0.000 A 
ATOM     32  C   UNL     1       3.657   2.058  18.024  0.00  0.00    +0.000 A 
ATOM     33  C   UNL     1       4.008   2.870  19.098  0.00  0.00    +0.000 A 
ATOM     34 CL   UNL     1       4.924   2.082  20.313  0.00  0.00    +0.000 Cl
ENDBRANCH  26  27
ENDBRANCH  25  26
ENDBRANCH   7  25
TORSDOF 10
ENDMDL
MODEL 5
REMARK VINA RESULT:      -8.3      2.224      4.356
REMARK  Name = 
REMARK  11 active torsions:
REMARK  status: ('A' for Active; 'I' for Inactive)
REMARK    1  A    between atoms: C_1  and  C_2
REMARK    2  A    between atoms: C_6  and  C_7
REMARK    3  A    between atoms: C_8  and  C_9
REMARK    4  A    between atoms: C_9  and  O_10
REMARK    5  A    between atoms: C_9  and  C_11
REMARK    6  A    between atoms: C_16  and  C_17
REMARK    7  A    between atoms: C_18  and  C_19
REMARK    8  A    between atoms: C_19  and  O_21
REMARK    9  A    between atoms: C_22  and  O_23
REMARK   10  A    between atoms: O_23  and  C_24
REMARK   11  A    between atoms: C_24  and  C_25
REMARK                            x       y       z     vdW  Elec       q    Type
REMARK                         _______ _______ _______ _____ _____    ______ ____
ROOT
ATOM      1  C   UNL     1       1.052   2.392  18.620  0.00  0.00    +0.000 C 
ATOM      2  C   UNL     1       1.648   3.652  19.222  0.00  0.00    +0.000 A 
ATOM      3  C   UNL     1       1.603   3.742  20.609  0.00  0.00    +0.000 A 
ATOM      4  C   UNL     1       1.834   4.953  21.215  0.00  0.00    +0.000 A 
ATOM      5  C   UNL     1       2.019   6.095  20.428  0.00  0.00    +0.000 A 
ATOM      6  C   UNL     1       2.147   6.070  19.013  0.00  0.00    +0.000 A 
ATOM      7  C   UNL     1       2.079   4.768  18.419  0.00  0.00    +0.000 A 
ENDROOT
BRANCH   6   8
ATOM      8  C   UNL     1       2.212   7.441  18.354  0.00  0.00    +0.000 C 
ATOM      9  C   UNL     1       1.383   8.502  18.574  0.00  0.00    +0.000 C 
BRANCH   9  10
ATOM     10  C   UNL     1       1.300   9.881  17.917  0.00  0.00    +0.000 C 
BRANCH  10  11
ATOM     11  C   UNL     1       0.546  11.022  18.631  0.00  0.00    +0.000 A 
ATOM     12  C   UNL     1       1.253  11.840  19.549  0.00  0.00    +0.000 A 
ATOM     13  C   UNL     1       0.634  12.866  20.296  0.00  0.00    +0.000 A 
ATOM     14  C   UNL     1      -0.690  13.200  20.075  0.00  0.00    +0.000 A 
ATOM     15  C   UNL     1      -1.386  12.475  19.133  0.00  0.00    +0.000 A 
ATOM     16  C   UNL     1      -0.805  11.368  18.453  0.00  0.00    +0.000 A 
BRANCH  16  17
ATOM     17  C   UNL     1      -1.853  10.542  17.858  0.00  0.00    +0.000 C 
ATOM     18  C   UNL     1      -2.720  11.311  17.178  0.00  0.00    +0.000 C 
BRANCH  18  19
ATOM     19  C   UNL     1      -3.339  10.842  15.940  0.00  0.00    +0.000 C 
ATOM     20  O   UNL     1      -2.820  10.507  14.887  0.00  0.00    +0.000 OA
BRANCH  19  21
ATOM     21  O   UNL     1      -4.686  10.979  16.061  0.00  0.00    +0.000 OA
ATOM     22  H   UNL     1      -4.961  10.116  16.402  0.00  0.00    +0.000 HD
ENDBRANCH  19  21
ENDBRANCH  18  19
ENDBRANCH  16  17
ENDBRANCH  10  11
BRANCH  10  23
ATOM     23  O   UNL     1       2.611  10.296  17.547  0.00  0.00    +0.000 OA
ATOM     24  H   UNL     1       2.938   9.649  16.902  0.00  0.00    +0.000 HD
ENDBRANCH  10  23
ENDBRANCH   9  10
ENDBRANCH   6   8
BRANCH   7  25
ATOM     25  O   UNL     1       2.488   4.280  17.203  0.00  0.00    +0.000 OA
BRANCH  25  26
ATOM     26  C   UNL     1       3.611   3.480  16.926  0.00  0.00    +0.000 C 
BRANCH  26  27
ATOM     27  C   UNL     1       4.991   3.999  17.317  0.00  0.00    +0.000 A 
ATOM     28  C   UNL     1       6.059   4.367  16.503  0.00  0.00    +0.000 A 
ATOM     29 CL   UNL     1       6.180   3.845  14.868  0.00  0.00    +0.000 Cl
ATOM     30  C   UNL     1       7.129   5.129  17.032  0.00  0.00    +0.000 A 
ATOM     31  C   UNL     1       7.081   5.641  18.331  0.00  0.00    +0.000 A 
ATOM     32  C   UNL     1       6.067   5.218  19.166  0.00  0.00    +0.000 A 
ATOM     33  C   UNL     1       5.178   4.269  18.670  0.00  0.00    +0.000 A 
ATOM     34 CL   UNL     1       4.957   2.907  19.685  0.00  0.00    +0.000 Cl
ENDBRANCH  26  27
ENDBRANCH  25  26
ENDBRANCH   7  25
TORSDOF 10
ENDMDL
MODEL 6
REMARK VINA RESULT:      -8.2      3.088      8.835
REMARK  Name = 
REMARK  11 active torsions:
REMARK  status: ('A' for Active; 'I' for Inactive)
REMARK    1  A    between atoms: C_1  and  C_2
REMARK    2  A    between atoms: C_6  and  C_7
REMARK    3  A    between atoms: C_8  and  C_9
REMARK    4  A    between atoms: C_9  and  O_10
REMARK    5  A    between atoms: C_9  and  C_11
REMARK    6  A    between atoms: C_16  and  C_17
REMARK    7  A    between atoms: C_18  and  C_19
REMARK    8  A    between atoms: C_19  and  O_21
REMARK    9  A    between atoms: C_22  and  O_23
REMARK   10  A    between atoms: O_23  and  C_24
REMARK   11  A    between atoms: C_24  and  C_25
REMARK                            x       y       z     vdW  Elec       q    Type
REMARK                         _______ _______ _______ _____ _____    ______ ____
ROOT
ATOM      1  C   UNL     1      -0.234  12.637  22.248  0.00  0.00    +0.000 C 
ATOM      2  C   UNL     1      -0.269  11.159  21.904  0.00  0.00    +0.000 A 
ATOM      3  C   UNL     1      -0.681  10.308  22.923  0.00  0.00    +0.000 A 
ATOM      4  C   UNL     1      -0.456   8.958  22.807  0.00  0.00    +0.000 A 
ATOM      5  C   UNL     1       0.265   8.469  21.712  0.00  0.00    +0.000 A 
ATOM      6  C   UNL     1       0.656   9.264  20.601  0.00  0.00    +0.000 A 
ATOM      7  C   UNL     1       0.253  10.638  20.666  0.00  0.00    +0.000 A 
ENDROOT
BRANCH   6   8
ATOM      8  C   UNL     1       1.543   8.553  19.589  0.00  0.00    +0.000 C 
ATOM      9  C   UNL     1       2.154   7.342  19.734  0.00  0.00    +0.000 C 
BRANCH   9  10
ATOM     10  C   UNL     1       3.125   6.578  18.832  0.00  0.00    +0.000 C 
BRANCH  10  11
ATOM     11  C   UNL     1       2.844   5.100  18.488  0.00  0.00    +0.000 A 
ATOM     12  C   UNL     1       1.613   4.525  18.894  0.00  0.00    +0.000 A 
ATOM     13  C   UNL     1       1.294   3.166  18.680  0.00  0.00    +0.000 A 
ATOM     14  C   UNL     1       2.136   2.350  17.948  0.00  0.00    +0.000 A 
ATOM     15  C   UNL     1       3.307   2.899  17.471  0.00  0.00    +0.000 A 
ATOM     16  C   UNL     1       3.691   4.236  17.773  0.00  0.00    +0.000 A 
BRANCH  16  17
ATOM     17  C   UNL     1       5.118   4.414  17.521  0.00  0.00    +0.000 C 
ATOM     18  C   UNL     1       5.333   4.665  16.218  0.00  0.00    +0.000 C 
BRANCH  18  19
ATOM     19  C   UNL     1       6.383   5.584  15.786  0.00  0.00    +0.000 C 
ATOM     20  O   UNL     1       7.425   5.354  15.193  0.00  0.00    +0.000 OA
BRANCH  19  21
ATOM     21  O   UNL     1       6.111   6.812  16.302  0.00  0.00    +0.000 OA
ATOM     22  H   UNL     1       6.635   7.403  15.741  0.00  0.00    +0.000 HD
ENDBRANCH  19  21
ENDBRANCH  18  19
ENDBRANCH  16  17
ENDBRANCH  10  11
BRANCH  10  23
ATOM     23  O   UNL     1       3.351   7.338  17.649  0.00  0.00    +0.000 OA
ATOM     24  H   UNL     1       2.583   7.923  17.541  0.00  0.00    +0.000 HD
ENDBRANCH  10  23
ENDBRANCH   9  10
ENDBRANCH   6   8
BRANCH   7  25
ATOM     25  O   UNL     1       0.117  11.610  19.707  0.00  0.00    +0.000 OA
BRANCH  25  26
ATOM     26  C   UNL     1      -0.550  11.519  18.472  0.00  0.00    +0.000 C 
BRANCH  26  27
ATOM     27  C   UNL     1      -2.037  11.857  18.419  0.00  0.00    +0.000 A 
ATOM     28  C   UNL     1      -3.002  11.454  17.500  0.00  0.00    +0.000 A 
ATOM     29 CL   UNL     1      -2.581  10.859  15.942  0.00  0.00    +0.000 Cl
ATOM     30  C   UNL     1      -4.378  11.599  17.802  0.00  0.00    +0.000 A 
ATOM     31  C   UNL     1      -4.802  12.018  19.065  0.00  0.00    +0.000 A 
ATOM     32  C   UNL     1      -3.857  12.491  19.952  0.00  0.00    +0.000 A 
ATOM     33  C   UNL     1      -2.539  12.561  19.511  0.00  0.00    +0.000 A 
ATOM     34 CL   UNL     1      -1.789  14.081  19.759  0.00  0.00    +0.000 Cl
ENDBRANCH  26  27
ENDBRANCH  25  26
ENDBRANCH   7  25
TORSDOF 10
ENDMDL
MODEL 7
REMARK VINA RESULT:      -7.9      1.561      1.761
REMARK  Name = 
REMARK  11 active torsions:
REMARK  status: ('A' for Active; 'I' for Inactive)
REMARK    1  A    between atoms: C_1  and  C_2
REMARK    2  A    between atoms: C_6  and  C_7
REMARK    3  A    between atoms: C_8  and  C_9
REMARK    4  A    between atoms: C_9  and  O_10
REMARK    5  A    between atoms: C_9  and  C_11
REMARK    6  A    between atoms: C_16  and  C_17
REMARK    7  A    between atoms: C_18  and  C_19
REMARK    8  A    between atoms: C_19  and  O_21
REMARK    9  A    between atoms: C_22  and  O_23
REMARK   10  A    between atoms: O_23  and  C_24
REMARK   11  A    between atoms: C_24  and  C_25
REMARK                            x       y       z     vdW  Elec       q    Type
REMARK                         _______ _______ _______ _____ _____    ______ ____
ROOT
ATOM      1  C   UNL     1       7.118   4.827  19.285  0.00  0.00    +0.000 C 
ATOM      2  C   UNL     1       6.195   5.211  18.142  0.00  0.00    +0.000 A 
ATOM      3  C   UNL     1       6.648   4.897  16.865  0.00  0.00    +0.000 A 
ATOM      4  C   UNL     1       6.038   5.468  15.774  0.00  0.00    +0.000 A 
ATOM      5  C   UNL     1       5.035   6.424  15.965  0.00  0.00    +0.000 A 
ATOM      6  C   UNL     1       4.474   6.743  17.231  0.00  0.00    +0.000 A 
ATOM      7  C   UNL     1       5.007   6.002  18.336  0.00  0.00    +0.000 A 
ENDROOT
BRANCH   6   8
ATOM      8  C   UNL     1       3.488   7.903  17.218  0.00  0.00    +0.000 C 
ATOM      9  C   UNL     1       2.512   8.167  18.133  0.00  0.00    +0.000 C 
BRANCH   9  10
ATOM     10  C   UNL     1       1.422   9.239  18.177  0.00  0.00    +0.000 C 
BRANCH  10  11
ATOM     11  C   UNL     1       0.760   9.600  19.524  0.00  0.00    +0.000 A 
ATOM     12  C   UNL     1       1.131   8.874  20.684  0.00  0.00    +0.000 A 
ATOM     13  C   UNL     1       0.535   9.089  21.946  0.00  0.00    +0.000 A 
ATOM     14  C   UNL     1      -0.371  10.117  22.133  0.00  0.00    +0.000 A 
ATOM     15  C   UNL     1      -0.696  10.892  21.041  0.00  0.00    +0.000 A 
ATOM     16  C   UNL     1      -0.186  10.616  19.741  0.00  0.00    +0.000 A 
BRANCH  16  17
ATOM     17  C   UNL     1      -0.998  11.291  18.733  0.00  0.00    +0.000 C 
ATOM     18  C   UNL     1      -1.722  10.394  18.041  0.00  0.00    +0.000 C 
BRANCH  18  19
ATOM     19  C   UNL     1      -3.074  10.704  17.581  0.00  0.00    +0.000 C 
ATOM     20  O   UNL     1      -3.906  11.460  18.058  0.00  0.00    +0.000 OA
BRANCH  19  21
ATOM     21  O   UNL     1      -3.376   9.864  16.556  0.00  0.00    +0.000 OA
ATOM     22  H   UNL     1      -4.289  10.105  16.341  0.00  0.00    +0.000 HD
ENDBRANCH  19  21
ENDBRANCH  18  19
ENDBRANCH  16  17
ENDBRANCH  10  11
BRANCH  10  23
ATOM     23  O   UNL     1       1.898  10.409  17.519  0.00  0.00    +0.000 OA
ATOM     24  H   UNL     1       1.465  11.166  17.945  0.00  0.00    +0.000 HD
ENDBRANCH  10  23
ENDBRANCH   9  10
ENDBRANCH   6   8
BRANCH   7  25
ATOM     25  O   UNL     1       4.533   5.751  19.599  0.00  0.00    +0.000 OA
BRANCH  25  26
ATOM     26  C   UNL     1       3.243   5.330  19.970  0.00  0.00    +0.000 C 
BRANCH  26  27
ATOM     27  C   UNL     1       2.731   3.994  19.441  0.00  0.00    +0.000 A 
ATOM     28  C   UNL     1       3.247   2.715  19.625  0.00  0.00    +0.000 A 
ATOM     29 CL   UNL     1       4.875   2.453  20.115  0.00  0.00    +0.000 Cl
ATOM     30  C   UNL     1       2.455   1.577  19.335  0.00  0.00    +0.000 A 
ATOM     31  C   UNL     1       1.107   1.703  18.989  0.00  0.00    +0.000 A 
ATOM     32  C   UNL     1       0.610   2.964  18.730  0.00  0.00    +0.000 A 
ATOM     33  C   UNL     1       1.502   4.031  18.787  0.00  0.00    +0.000 A 
ATOM     34 CL   UNL     1       1.481   5.046  17.408  0.00  0.00    +0.000 Cl
ENDBRANCH  26  27
ENDBRANCH  25  26
ENDBRANCH   7  25
TORSDOF 10
ENDMDL
MODEL 8
REMARK VINA RESULT:      -7.9      2.088      4.474
REMARK  Name = 
REMARK  11 active torsions:
REMARK  status: ('A' for Active; 'I' for Inactive)
REMARK    1  A    between atoms: C_1  and  C_2
REMARK    2  A    between atoms: C_6  and  C_7
REMARK    3  A    between atoms: C_8  and  C_9
REMARK    4  A    between atoms: C_9  and  O_10
REMARK    5  A    between atoms: C_9  and  C_11
REMARK    6  A    between atoms: C_16  and  C_17
REMARK    7  A    between atoms: C_18  and  C_19
REMARK    8  A    between atoms: C_19  and  O_21
REMARK    9  A    between atoms: C_22  and  O_23
REMARK   10  A    between atoms: O_23  and  C_24
REMARK   11  A    between atoms: C_24  and  C_25
REMARK                            x       y       z     vdW  Elec       q    Type
REMARK                         _______ _______ _______ _____ _____    ______ ____
ROOT
ATOM      1  C   UNL     1       1.917   2.225  17.874  0.00  0.00    +0.000 C 
ATOM      2  C   UNL     1       2.225   3.423  18.753  0.00  0.00    +0.000 A 
ATOM      3  C   UNL     1       1.985   3.257  20.113  0.00  0.00    +0.000 A 
ATOM      4  C   UNL     1       1.942   4.360  20.931  0.00  0.00    +0.000 A 
ATOM      5  C   UNL     1       2.049   5.639  20.373  0.00  0.00    +0.000 A 
ATOM      6  C   UNL     1       2.365   5.885  19.009  0.00  0.00    +0.000 A 
ATOM      7  C   UNL     1       2.578   4.712  18.214  0.00  0.00    +0.000 A 
ENDROOT
BRANCH   6   8
ATOM      8  C   UNL     1       2.301   7.348  18.594  0.00  0.00    +0.000 C 
ATOM      9  C   UNL     1       1.182   8.106  18.409  0.00  0.00    +0.000 C 
BRANCH   9  10
ATOM     10  C   UNL     1       0.995   9.541  17.915  0.00  0.00    +0.000 C 
BRANCH  10  11
ATOM     11  C   UNL     1       0.339  10.587  18.841  0.00  0.00    +0.000 A 
ATOM     12  C   UNL     1       0.934  10.857  20.099  0.00  0.00    +0.000 A 
ATOM     13  C   UNL     1       0.371  11.749  21.038  0.00  0.00    +0.000 A 
ATOM     14  C   UNL     1      -0.745  12.500  20.717  0.00  0.00    +0.000 A 
ATOM     15  C   UNL     1      -1.303  12.319  19.471  0.00  0.00    +0.000 A 
ATOM     16  C   UNL     1      -0.811  11.344  18.558  0.00  0.00    +0.000 A 
BRANCH  16  17
ATOM     17  C   UNL     1      -1.814  11.070  17.532  0.00  0.00    +0.000 C 
ATOM     18  C   UNL     1      -3.001  10.801  18.103  0.00  0.00    +0.000 C 
BRANCH  18  19
ATOM     19  C   UNL     1      -4.254  11.231  17.486  0.00  0.00    +0.000 C 
ATOM     20  O   UNL     1      -5.405  10.942  17.776  0.00  0.00    +0.000 OA
BRANCH  19  21
ATOM     21  O   UNL     1      -3.954  11.930  16.360  0.00  0.00    +0.000 OA
ATOM     22  H   UNL     1      -3.250  12.525  16.657  0.00  0.00    +0.000 HD
ENDBRANCH  19  21
ENDBRANCH  18  19
ENDBRANCH  16  17
ENDBRANCH  10  11
BRANCH  10  23
ATOM     23  O   UNL     1       2.238  10.021  17.413  0.00  0.00    +0.000 OA
ATOM     24  H   UNL     1       2.043  10.823  16.901  0.00  0.00    +0.000 HD
ENDBRANCH  10  23
ENDBRANCH   9  10
ENDBRANCH   6   8
BRANCH   7  25
ATOM     25  O   UNL     1       3.215   4.508  17.015  0.00  0.00    +0.000 OA
BRANCH  25  26
ATOM     26  C   UNL     1       4.594   4.357  16.783  0.00  0.00    +0.000 C 
BRANCH  26  27
ATOM     27  C   UNL     1       5.568   5.212  17.588  0.00  0.00    +0.000 A 
ATOM     28  C   UNL     1       6.139   4.965  18.833  0.00  0.00    +0.000 A 
ATOM     29 CL   UNL     1       5.465   3.827  19.933  0.00  0.00    +0.000 Cl
ATOM     30  C   UNL     1       7.263   5.712  19.263  0.00  0.00    +0.000 A 
ATOM     31  C   UNL     1       7.904   6.611  18.409  0.00  0.00    +0.000 A 
ATOM     32  C   UNL     1       7.301   6.918  17.206  0.00  0.00    +0.000 A 
ATOM     33  C   UNL     1       6.063   6.341  16.940  0.00  0.00    +0.000 A 
ATOM     34 CL   UNL     1       4.852   7.452  16.461  0.00  0.00    +0.000 Cl
ENDBRANCH  26  27
ENDBRANCH  25  26
ENDBRANCH   7  25
TORSDOF 10
ENDMDL
MODEL 9
REMARK VINA RESULT:      -7.9      2.336      4.601
REMARK  Name = 
REMARK  11 active torsions:
REMARK  status: ('A' for Active; 'I' for Inactive)
REMARK    1  A    between atoms: C_1  and  C_2
REMARK    2  A    between atoms: C_6  and  C_7
REMARK    3  A    between atoms: C_8  and  C_9
REMARK    4  A    between atoms: C_9  and  O_10
REMARK    5  A    between atoms: C_9  and  C_11
REMARK    6  A    between atoms: C_16  and  C_17
REMARK    7  A    between atoms: C_18  and  C_19
REMARK    8  A    between atoms: C_19  and  O_21
REMARK    9  A    between atoms: C_22  and  O_23
REMARK   10  A    between atoms: O_23  and  C_24
REMARK   11  A    between atoms: C_24  and  C_25
REMARK                            x       y       z     vdW  Elec       q    Type
REMARK                         _______ _______ _______ _____ _____    ______ ____
ROOT
ATOM      1  C   UNL     1       3.536   3.298  17.089  0.00  0.00    +0.000 C 
ATOM      2  C   UNL     1       3.381   4.480  18.029  0.00  0.00    +0.000 A 
ATOM      3  C   UNL     1       3.040   4.172  19.341  0.00  0.00    +0.000 A 
ATOM      4  C   UNL     1       2.586   5.167  20.172  0.00  0.00    +0.000 A 
ATOM      5  C   UNL     1       2.385   6.455  19.663  0.00  0.00    +0.000 A 
ATOM      6  C   UNL     1       2.774   6.861  18.358  0.00  0.00    +0.000 A 
ATOM      7  C   UNL     1       3.408   5.846  17.570  0.00  0.00    +0.000 A 
ENDROOT
BRANCH   6   8
ATOM      8  C   UNL     1       2.341   8.268  17.973  0.00  0.00    +0.000 C 
ATOM      9  C   UNL     1       1.566   9.122  18.701  0.00  0.00    +0.000 C 
BRANCH   9  10
ATOM     10  C   UNL     1       1.002  10.508  18.383  0.00  0.00    +0.000 C 
BRANCH  10  11
ATOM     11  C   UNL     1       0.026  11.180  19.371  0.00  0.00    +0.000 A 
ATOM     12  C   UNL     1       0.494  11.531  20.663  0.00  0.00    +0.000 A 
ATOM     13  C   UNL     1      -0.340  12.091  21.655  0.00  0.00    +0.000 A 
ATOM     14  C   UNL     1      -1.648  12.435  21.366  0.00  0.00    +0.000 A 
ATOM     15  C   UNL     1      -2.112  12.178  20.094  0.00  0.00    +0.000 A 
ATOM     16  C   UNL     1      -1.315  11.514  19.119  0.00  0.00    +0.000 A 
BRANCH  16  17
ATOM     17  C   UNL     1      -2.164  10.999  18.048  0.00  0.00    +0.000 C 
ATOM     18  C   UNL     1      -3.455  11.269  18.307  0.00  0.00    +0.000 C 
BRANCH  18  19
ATOM     19  C   UNL     1      -4.390  11.601  17.234  0.00  0.00    +0.000 C 
ATOM     20  O   UNL     1      -4.457  11.165  16.096  0.00  0.00    +0.000 OA
BRANCH  19  21
ATOM     21  O   UNL     1      -5.147  12.654  17.642  0.00  0.00    +0.000 OA
ATOM     22  H   UNL     1      -5.157  12.552  18.605  0.00  0.00    +0.000 HD
ENDBRANCH  19  21
ENDBRANCH  18  19
ENDBRANCH  16  17
ENDBRANCH  10  11
BRANCH  10  23
ATOM     23  O   UNL     1       2.081  11.382  18.064  0.00  0.00    +0.000 OA
ATOM     24  H   UNL     1       2.773  11.225  18.726  0.00  0.00    +0.000 HD
ENDBRANCH  10  23
ENDBRANCH   9  10
ENDBRANCH   6   8
BRANCH   7  25
ATOM     25  O   UNL     1       4.213   5.902  16.459  0.00  0.00    +0.000 OA
BRANCH  25  26
ATOM     26  C   UNL     1       5.356   6.696  16.259  0.00  0.00    +0.000 C 
BRANCH  26  27
ATOM     27  C   UNL     1       6.583   6.442  17.131  0.00  0.00    +0.000 A 
ATOM     28  C   UNL     1       7.374   7.350  17.828  0.00  0.00    +0.000 A 
ATOM     29 CL   UNL     1       7.389   9.027  17.442  0.00  0.00    +0.000 Cl
ATOM     30  C   UNL     1       8.259   6.898  18.837  0.00  0.00    +0.000 A 
ATOM     31  C   UNL     1       8.265   5.564  19.250  0.00  0.00    +0.000 A 
ATOM     32  C   UNL     1       7.543   4.646  18.515  0.00  0.00    +0.000 A 
ATOM     33  C   UNL     1       6.887   5.105  17.377  0.00  0.00    +0.000 A 
ATOM     34 CL   UNL     1       7.203   4.195  15.961  0.00  0.00    +0.000 Cl
ENDBRANCH  26  27
ENDBRANCH  25  26
ENDBRANCH   7  25
TORSDOF 10
ENDMDL
