MODEL 1
REMARK VINA RESULT:      -9.2      0.000      0.000
REMARK  Name = 
REMARK  6 active torsions:
REMARK  status: ('A' for Active; 'I' for Inactive)
REMARK    1  A    between atoms: C_1  and  C_2
REMARK    2  A    between atoms: C_5  and  C_6
REMARK    3  A    between atoms: C_12  and  N_13
REMARK    4  A    between atoms: C_17  and  C_18
REMARK    5  A    between atoms: C_24  and  C_25
REMARK    6  A    between atoms: C_26  and  N_27
REMARK                            x       y       z     vdW  Elec       q    Type
REMARK                         _______ _______ _______ _____ _____    ______ ____
ROOT
ATOM      1  C   UNL     1       4.662   4.043  17.247  0.00  0.00    +0.000 C 
ATOM      2  O   UNL     1       4.515   2.844  17.482  0.00  0.00    +0.000 OA
ATOM      3  N   UNL     1       3.964   5.059  17.934  0.00  0.00    +0.000 N 
ATOM      4  C   UNL     1       3.328   4.604  19.181  0.00  0.00    +0.000 C 
ATOM      5  C   UNL     1       1.882   5.061  19.268  0.00  0.00    +0.000 C 
ATOM      6  C   UNL     1       1.774   6.578  19.180  0.00  0.00    +0.000 C 
ATOM      7  C   UNL     1       2.522   7.136  17.958  0.00  0.00    +0.000 C 
ATOM      8  C   UNL     1       3.985   6.560  17.824  0.00  0.00    +0.000 C 
ATOM      9  C   UNL     1       4.620   7.237  16.604  0.00  0.00    +0.000 C 
ENDROOT
BRANCH   7  10
ATOM     10  N   UNL     1       2.586   8.598  18.042  0.00  0.00    +0.000 N 
ATOM     11  C   UNL     1       1.484   9.403  18.193  0.00  0.00    +0.000 A 
ATOM     12  C   UNL     1       0.236   9.117  17.668  0.00  0.00    +0.000 A 
ATOM     13  C   UNL     1      -0.813  10.008  17.873  0.00  0.00    +0.000 A 
ATOM     14  C   UNL     1      -0.592  11.186  18.590  0.00  0.00    +0.000 A 
ATOM     15  C   UNL     1       0.693  11.403  19.053  0.00  0.00    +0.000 A 
ATOM     16  N   UNL     1       1.721  10.542  18.873  0.00  0.00    +0.000 NA
ATOM     17  H   UNL     1       3.332   8.983  18.617  0.00  0.00    +0.000 HD
BRANCH  14  18
ATOM     18  C   UNL     1      -1.664  12.190  18.859  0.00  0.00    +0.000 C 
ATOM     19  F   UNL     1      -2.171  12.117  20.121  0.00  0.00    +0.000 F 
ATOM     20  F   UNL     1      -1.227  13.471  18.707  0.00  0.00    +0.000 F 
ATOM     21  F   UNL     1      -2.729  12.057  18.023  0.00  0.00    +0.000 F 
ENDBRANCH  14  18
ENDBRANCH   7  10
BRANCH   1  26
ATOM     22  C   UNL     1       7.861   5.299  12.677  0.00  0.00    +0.000 C 
ATOM     23  C   UNL     1       7.094   4.849  13.884  0.00  0.00    +0.000 A 
ATOM     24  C   UNL     1       5.956   4.071  13.750  0.00  0.00    +0.000 A 
ATOM     25  C   UNL     1       5.235   3.750  14.895  0.00  0.00    +0.000 A 
ATOM     26  C   UNL     1       5.557   4.337  16.121  0.00  0.00    +0.000 A 
ATOM     27  C   UNL     1       6.793   4.979  16.207  0.00  0.00    +0.000 A 
ATOM     28  N   UNL     1       7.563   5.226  15.095  0.00  0.00    +0.000 NA
BRANCH  27  29
ATOM     29  N   UNL     1       7.378   5.346  17.450  0.00  0.00    +0.000 N 
ATOM     30  C   UNL     1       7.598   6.638  17.881  0.00  0.00    +0.000 A 
ATOM     31  C   UNL     1       8.259   6.500  19.076  0.00  0.00    +0.000 A 
ATOM     32  N   UNL     1       8.332   5.177  19.400  0.00  0.00    +0.000 NA
ATOM     33  N   UNL     1       7.779   4.481  18.414  0.00  0.00    +0.000 NA
ENDBRANCH  27  29
ENDBRANCH   1  26
TORSDOF 4
ENDMDL
MODEL 2
REMARK VINA RESULT:      -8.0      1.224      1.483
REMARK  Name = 
REMARK  6 active torsions:
REMARK  status: ('A' for Active; 'I' for Inactive)
REMARK    1  A    between atoms: C_1  and  C_2
REMARK    2  A    between atoms: C_5  and  C_6
REMARK    3  A    between atoms: C_12  and  N_13
REMARK    4  A    between atoms: C_17  and  C_18
REMARK    5  A    between atoms: C_24  and  C_25
REMARK    6  A    between atoms: C_26  and  N_27
REMARK                            x       y       z     vdW  Elec       q    Type
REMARK                         _______ _______ _______ _____ _____    ______ ____
ROOT
ATOM      1  C   UNL     1       4.949   4.648  17.841  0.00  0.00    +0.000 C 
ATOM      2  O   UNL     1       5.022   3.568  18.425  0.00  0.00    +0.000 OA
ATOM      3  N   UNL     1       4.178   5.732  18.311  0.00  0.00    +0.000 N 
ATOM      4  C   UNL     1       3.766   5.602  19.717  0.00  0.00    +0.000 C 
ATOM      5  C   UNL     1       2.284   5.888  19.892  0.00  0.00    +0.000 C 
ATOM      6  C   UNL     1       1.926   7.283  19.396  0.00  0.00    +0.000 C 
ATOM      7  C   UNL     1       2.435   7.532  17.967  0.00  0.00    +0.000 C 
ATOM      8  C   UNL     1       3.947   7.121  17.779  0.00  0.00    +0.000 C 
ATOM      9  C   UNL     1       4.327   7.470  16.335  0.00  0.00    +0.000 C 
ENDROOT
BRANCH   7  10
ATOM     10  N   UNL     1       2.274   8.947  17.623  0.00  0.00    +0.000 N 
ATOM     11  C   UNL     1       1.522   9.830  18.358  0.00  0.00    +0.000 A 
ATOM     12  C   UNL     1       0.375   9.485  19.051  0.00  0.00    +0.000 A 
ATOM     13  C   UNL     1      -0.318  10.462  19.758  0.00  0.00    +0.000 A 
ATOM     14  C   UNL     1       0.141  11.781  19.748  0.00  0.00    +0.000 A 
ATOM     15  C   UNL     1       1.280  12.041  19.007  0.00  0.00    +0.000 A 
ATOM     16  N   UNL     1       1.971  11.100  18.323  0.00  0.00    +0.000 NA
ATOM     17  H   UNL     1       3.113   9.434  17.318  0.00  0.00    +0.000 HD
BRANCH  14  18
ATOM     18  C   UNL     1      -0.540  12.887  20.486  0.00  0.00    +0.000 C 
ATOM     19  F   UNL     1      -1.839  12.614  20.793  0.00  0.00    +0.000 F 
ATOM     20  F   UNL     1       0.070  13.177  21.668  0.00  0.00    +0.000 F 
ATOM     21  F   UNL     1      -0.562  14.051  19.781  0.00  0.00    +0.000 F 
ENDBRANCH  14  18
ENDBRANCH   7  10
BRANCH   1  26
ATOM     22  C   UNL     1       7.380   4.836  12.669  0.00  0.00    +0.000 C 
ATOM     23  C   UNL     1       6.834   4.685  14.057  0.00  0.00    +0.000 A 
ATOM     24  C   UNL     1       5.838   3.762  14.329  0.00  0.00    +0.000 A 
ATOM     25  C   UNL     1       5.309   3.719  15.614  0.00  0.00    +0.000 A 
ATOM     26  C   UNL     1       5.655   4.694  16.554  0.00  0.00    +0.000 A 
ATOM     27  C   UNL     1       6.766   5.486  16.260  0.00  0.00    +0.000 A 
ATOM     28  N   UNL     1       7.359   5.475  15.021  0.00  0.00    +0.000 NA
BRANCH  27  29
ATOM     29  N   UNL     1       7.409   6.292  17.240  0.00  0.00    +0.000 N 
ATOM     30  C   UNL     1       7.852   5.854  18.472  0.00  0.00    +0.000 A 
ATOM     31  C   UNL     1       8.312   6.984  19.100  0.00  0.00    +0.000 A 
ATOM     32  N   UNL     1       8.249   8.037  18.234  0.00  0.00    +0.000 NA
ATOM     33  N   UNL     1       7.714   7.605  17.099  0.00  0.00    +0.000 NA
ENDBRANCH  27  29
ENDBRANCH   1  26
TORSDOF 4
ENDMDL
MODEL 3
REMARK VINA RESULT:      -7.8      5.158     10.148
REMARK  Name = 
REMARK  6 active torsions:
REMARK  status: ('A' for Active; 'I' for Inactive)
REMARK    1  A    between atoms: C_1  and  C_2
REMARK    2  A    between atoms: C_5  and  C_6
REMARK    3  A    between atoms: C_12  and  N_13
REMARK    4  A    between atoms: C_17  and  C_18
REMARK    5  A    between atoms: C_24  and  C_25
REMARK    6  A    between atoms: C_26  and  N_27
REMARK                            x       y       z     vdW  Elec       q    Type
REMARK                         _______ _______ _______ _____ _____    ______ ____
ROOT
ATOM      1  C   UNL     1      -2.048  13.230  19.874  0.00  0.00    +0.000 C 
ATOM      2  O   UNL     1      -3.254  13.399  20.053  0.00  0.00    +0.000 OA
ATOM      3  N   UNL     1      -1.524  12.258  18.995  0.00  0.00    +0.000 N 
ATOM      4  C   UNL     1      -2.514  11.715  18.052  0.00  0.00    +0.000 C 
ATOM      5  C   UNL     1      -2.471  10.197  18.012  0.00  0.00    +0.000 C 
ATOM      6  C   UNL     1      -1.087   9.691  17.626  0.00  0.00    +0.000 C 
ATOM      7  C   UNL     1       0.016  10.314  18.499  0.00  0.00    +0.000 C 
ATOM      8  C   UNL     1      -0.116  11.882  18.619  0.00  0.00    +0.000 C 
ATOM      9  C   UNL     1       1.067  12.364  19.466  0.00  0.00    +0.000 C 
ENDROOT
BRANCH   7  10
ATOM     10  N   UNL     1       1.332   9.982  17.946  0.00  0.00    +0.000 N 
ATOM     11  C   UNL     1       1.990   8.804  18.199  0.00  0.00    +0.000 A 
ATOM     12  C   UNL     1       1.902   8.105  19.390  0.00  0.00    +0.000 A 
ATOM     13  C   UNL     1       2.620   6.923  19.544  0.00  0.00    +0.000 A 
ATOM     14  C   UNL     1       3.433   6.465  18.505  0.00  0.00    +0.000 A 
ATOM     15  C   UNL     1       3.482   7.242  17.361  0.00  0.00    +0.000 A 
ATOM     16  N   UNL     1       2.782   8.387  17.191  0.00  0.00    +0.000 NA
ATOM     17  H   UNL     1       1.480  10.217  16.968  0.00  0.00    +0.000 HD
BRANCH  14  18
ATOM     18  C   UNL     1       4.230   5.205  18.588  0.00  0.00    +0.000 C 
ATOM     19  F   UNL     1       3.776   4.338  19.535  0.00  0.00    +0.000 F 
ATOM     20  F   UNL     1       4.229   4.511  17.416  0.00  0.00    +0.000 F 
ATOM     21  F   UNL     1       5.538   5.431  18.888  0.00  0.00    +0.000 F 
ENDBRANCH  14  18
ENDBRANCH   7  10
BRANCH   1  26
ATOM     22  C   UNL     1       1.086  16.739  23.123  0.00  0.00    +0.000 C 
ATOM     23  C   UNL     1       0.385  15.778  22.211  0.00  0.00    +0.000 A 
ATOM     24  C   UNL     1      -0.019  16.170  20.945  0.00  0.00    +0.000 A 
ATOM     25  C   UNL     1      -0.738  15.266  20.171  0.00  0.00    +0.000 A 
ATOM     26  C   UNL     1      -1.184  14.062  20.721  0.00  0.00    +0.000 A 
ATOM     27  C   UNL     1      -0.613  13.674  21.934  0.00  0.00    +0.000 A 
ATOM     28  N   UNL     1       0.175  14.524  22.672  0.00  0.00    +0.000 NA
BRANCH  27  29
ATOM     29  N   UNL     1      -0.737  12.353  22.448  0.00  0.00    +0.000 N 
ATOM     30  C   UNL     1      -1.872  11.824  23.030  0.00  0.00    +0.000 A 
ATOM     31  C   UNL     1      -1.496  10.574  23.453  0.00  0.00    +0.000 A 
ATOM     32  N   UNL     1      -0.220  10.324  23.042  0.00  0.00    +0.000 NA
ATOM     33  N   UNL     1       0.230  11.405  22.416  0.00  0.00    +0.000 NA
ENDBRANCH  27  29
ENDBRANCH   1  26
TORSDOF 4
ENDMDL
MODEL 4
REMARK VINA RESULT:      -7.5      0.984      1.190
REMARK  Name = 
REMARK  6 active torsions:
REMARK  status: ('A' for Active; 'I' for Inactive)
REMARK    1  A    between atoms: C_1  and  C_2
REMARK    2  A    between atoms: C_5  and  C_6
REMARK    3  A    between atoms: C_12  and  N_13
REMARK    4  A    between atoms: C_17  and  C_18
REMARK    5  A    between atoms: C_24  and  C_25
REMARK    6  A    between atoms: C_26  and  N_27
REMARK                            x       y       z     vdW  Elec       q    Type
REMARK                         _______ _______ _______ _____ _____    ______ ____
ROOT
ATOM      1  C   UNL     1       4.336   4.503  18.227  0.00  0.00    +0.000 C 
ATOM      2  O   UNL     1       4.173   3.400  18.747  0.00  0.00    +0.000 OA
ATOM      3  N   UNL     1       3.696   5.676  18.682  0.00  0.00    +0.000 N 
ATOM      4  C   UNL     1       3.114   5.551  20.027  0.00  0.00    +0.000 C 
ATOM      5  C   UNL     1       1.685   6.064  20.065  0.00  0.00    +0.000 C 
ATOM      6  C   UNL     1       1.606   7.520  19.623  0.00  0.00    +0.000 C 
ATOM      7  C   UNL     1       2.305   7.748  18.273  0.00  0.00    +0.000 C 
ATOM      8  C   UNL     1       3.746   7.106  18.217  0.00  0.00    +0.000 C 
ATOM      9  C   UNL     1       4.335   7.454  16.845  0.00  0.00    +0.000 C 
ENDROOT
BRANCH   7  10
ATOM     10  N   UNL     1       2.406   9.185  18.004  0.00  0.00    +0.000 N 
ATOM     11  C   UNL     1       1.475  10.105  18.414  0.00  0.00    +0.000 A 
ATOM     12  C   UNL     1       0.120   9.844  18.522  0.00  0.00    +0.000 A 
ATOM     13  C   UNL     1      -0.740  10.855  18.941  0.00  0.00    +0.000 A 
ATOM     14  C   UNL     1      -0.231  12.123  19.229  0.00  0.00    +0.000 A 
ATOM     15  C   UNL     1       1.131  12.301  19.067  0.00  0.00    +0.000 A 
ATOM     16  N   UNL     1       1.982  11.327  18.672  0.00  0.00    +0.000 NA
ATOM     17  H   UNL     1       3.327   9.600  18.124  0.00  0.00    +0.000 HD
BRANCH  14  18
ATOM     18  C   UNL     1      -1.086  13.259  19.689  0.00  0.00    +0.000 C 
ATOM     19  F   UNL     1      -2.420  12.992  19.629  0.00  0.00    +0.000 F 
ATOM     20  F   UNL     1      -0.833  13.610  20.980  0.00  0.00    +0.000 F 
ATOM     21  F   UNL     1      -0.899  14.386  18.951  0.00  0.00    +0.000 F 
ENDBRANCH  14  18
ENDBRANCH   7  10
BRANCH   1  26
ATOM     22  C   UNL     1       7.338   4.567  13.361  0.00  0.00    +0.000 C 
ATOM     23  C   UNL     1       6.611   4.426  14.665  0.00  0.00    +0.000 A 
ATOM     24  C   UNL     1       5.395   3.766  14.728  0.00  0.00    +0.000 A 
ATOM     25  C   UNL     1       4.722   3.734  15.945  0.00  0.00    +0.000 A 
ATOM     26  C   UNL     1       5.180   4.492  17.026  0.00  0.00    +0.000 A 
ATOM     27  C   UNL     1       6.477   4.999  16.935  0.00  0.00    +0.000 A 
ATOM     28  N   UNL     1       7.193   4.958  15.763  0.00  0.00    +0.000 NA
BRANCH  27  29
ATOM     29  N   UNL     1       7.176   5.515  18.061  0.00  0.00    +0.000 N 
ATOM     30  C   UNL     1       7.848   6.720  18.104  0.00  0.00    +0.000 A 
ATOM     31  C   UNL     1       8.437   6.747  19.342  0.00  0.00    +0.000 A 
ATOM     32  N   UNL     1       8.042   5.652  20.054  0.00  0.00    +0.000 NA
ATOM     33  N   UNL     1       7.261   4.915  19.274  0.00  0.00    +0.000 NA
ENDBRANCH  27  29
ENDBRANCH   1  26
TORSDOF 4
ENDMDL
MODEL 5
REMARK VINA RESULT:      -7.4      4.921      9.417
REMARK  Name = 
REMARK  6 active torsions:
REMARK  status: ('A' for Active; 'I' for Inactive)
REMARK    1  A    between atoms: C_1  and  C_2
REMARK    2  A    between atoms: C_5  and  C_6
REMARK    3  A    between atoms: C_12  and  N_13
REMARK    4  A    between atoms: C_17  and  C_18
REMARK    5  A    between atoms: C_24  and  C_25
REMARK    6  A    between atoms: C_26  and  N_27
REMARK                            x       y       z     vdW  Elec       q    Type
REMARK                         _______ _______ _______ _____ _____    ______ ____
ROOT
ATOM      1  C   UNL     1       0.756  11.037  20.972  0.00  0.00    +0.000 C 
ATOM      2  O   UNL     1       0.421  11.351  22.114  0.00  0.00    +0.000 OA
ATOM      3  N   UNL     1       0.859   9.700  20.535  0.00  0.00    +0.000 N 
ATOM      4  C   UNL     1       0.196   8.732  21.422  0.00  0.00    +0.000 C 
ATOM      5  C   UNL     1       1.101   7.552  21.736  0.00  0.00    +0.000 C 
ATOM      6  C   UNL     1       1.543   6.840  20.464  0.00  0.00    +0.000 C 
ATOM      7  C   UNL     1       2.139   7.816  19.436  0.00  0.00    +0.000 C 
ATOM      8  C   UNL     1       1.236   9.090  19.212  0.00  0.00    +0.000 C 
ATOM      9  C   UNL     1       1.923   9.938  18.136  0.00  0.00    +0.000 C 
ENDROOT
BRANCH   7  10
ATOM     10  N   UNL     1       2.333   7.130  18.156  0.00  0.00    +0.000 N 
ATOM     11  C   UNL     1       3.525   6.579  17.757  0.00  0.00    +0.000 A 
ATOM     12  C   UNL     1       4.767   7.089  18.095  0.00  0.00    +0.000 A 
ATOM     13  C   UNL     1       5.916   6.456  17.629  0.00  0.00    +0.000 A 
ATOM     14  C   UNL     1       5.803   5.328  16.814  0.00  0.00    +0.000 A 
ATOM     15  C   UNL     1       4.523   4.905  16.505  0.00  0.00    +0.000 A 
ATOM     16  N   UNL     1       3.397   5.502  16.959  0.00  0.00    +0.000 NA
ATOM     17  H   UNL     1       1.588   6.499  17.867  0.00  0.00    +0.000 HD
BRANCH  14  18
ATOM     18  C   UNL     1       6.985   4.588  16.278  0.00  0.00    +0.000 C 
ATOM     19  F   UNL     1       7.898   4.260  17.234  0.00  0.00    +0.000 F 
ATOM     20  F   UNL     1       6.637   3.417  15.677  0.00  0.00    +0.000 F 
ATOM     21  F   UNL     1       7.668   5.301  15.341  0.00  0.00    +0.000 F 
ENDBRANCH  14  18
ENDBRANCH   7  10
BRANCH   1  26
ATOM     22  C   UNL     1       2.553  15.285  17.592  0.00  0.00    +0.000 C 
ATOM     23  C   UNL     1       2.032  14.270  18.566  0.00  0.00    +0.000 A 
ATOM     24  C   UNL     1       2.816  13.837  19.622  0.00  0.00    +0.000 A 
ATOM     25  C   UNL     1       2.319  12.835  20.448  0.00  0.00    +0.000 A 
ATOM     26  C   UNL     1       1.136  12.169  20.117  0.00  0.00    +0.000 A 
ATOM     27  C   UNL     1       0.334  12.758  19.139  0.00  0.00    +0.000 A 
ATOM     28  N   UNL     1       0.776  13.810  18.372  0.00  0.00    +0.000 NA
BRANCH  27  29
ATOM     29  N   UNL     1      -1.017  12.369  18.924  0.00  0.00    +0.000 N 
ATOM     30  C   UNL     1      -1.469  11.589  17.878  0.00  0.00    +0.000 A 
ATOM     31  C   UNL     1      -2.833  11.560  18.029  0.00  0.00    +0.000 A 
ATOM     32  N   UNL     1      -3.172  12.204  19.183  0.00  0.00    +0.000 NA
ATOM     33  N   UNL     1      -2.061  12.680  19.731  0.00  0.00    +0.000 NA
ENDBRANCH  27  29
ENDBRANCH   1  26
TORSDOF 4
ENDMDL
MODEL 6
REMARK VINA RESULT:      -7.1      8.095     11.016
REMARK  Name = 
REMARK  6 active torsions:
REMARK  status: ('A' for Active; 'I' for Inactive)
REMARK    1  A    between atoms: C_1  and  C_2
REMARK    2  A    between atoms: C_5  and  C_6
REMARK    3  A    between atoms: C_12  and  N_13
REMARK    4  A    between atoms: C_17  and  C_18
REMARK    5  A    between atoms: C_24  and  C_25
REMARK    6  A    between atoms: C_26  and  N_27
REMARK                            x       y       z     vdW  Elec       q    Type
REMARK                         _______ _______ _______ _____ _____    ______ ____
ROOT
ATOM      1  C   UNL     1      -0.025  13.901  19.624  0.00  0.00    +0.000 C 
ATOM      2  O   UNL     1      -1.112  14.019  19.060  0.00  0.00    +0.000 OA
ATOM      3  N   UNL     1       0.963  14.908  19.618  0.00  0.00    +0.000 N 
ATOM      4  C   UNL     1       0.464  16.228  19.204  0.00  0.00    +0.000 C 
ATOM      5  C   UNL     1       1.365  16.861  18.157  0.00  0.00    +0.000 C 
ATOM      6  C   UNL     1       2.792  17.008  18.669  0.00  0.00    +0.000 C 
ATOM      7  C   UNL     1       3.339  15.685  19.232  0.00  0.00    +0.000 C 
ATOM      8  C   UNL     1       2.336  14.987  20.231  0.00  0.00    +0.000 C 
ATOM      9  C   UNL     1       3.029  13.721  20.744  0.00  0.00    +0.000 C 
ENDROOT
BRANCH   7  10
ATOM     10  N   UNL     1       4.612  15.926  19.916  0.00  0.00    +0.000 N 
ATOM     11  C   UNL     1       5.838  15.798  19.314  0.00  0.00    +0.000 A 
ATOM     12  C   UNL     1       6.123  14.880  18.318  0.00  0.00    +0.000 A 
ATOM     13  C   UNL     1       7.405  14.829  17.781  0.00  0.00    +0.000 A 
ATOM     14  C   UNL     1       8.394  15.689  18.263  0.00  0.00    +0.000 A 
ATOM     15  C   UNL     1       8.028  16.555  19.278  0.00  0.00    +0.000 A 
ATOM     16  N   UNL     1       6.783  16.626  19.803  0.00  0.00    +0.000 NA
ATOM     17  H   UNL     1       4.648  16.742  20.523  0.00  0.00    +0.000 HD
BRANCH  14  18
ATOM     18  C   UNL     1       9.792  15.702  17.737  0.00  0.00    +0.000 C 
ATOM     19  F   UNL     1      10.233  14.475  17.344  0.00  0.00    +0.000 F 
ATOM     20  F   UNL     1       9.932  16.514  16.653  0.00  0.00    +0.000 F 
ATOM     21  F   UNL     1      10.693  16.144  18.655  0.00  0.00    +0.000 F 
ENDBRANCH  14  18
ENDBRANCH   7  10
BRANCH   1  26
ATOM     22  C   UNL     1       1.186   8.753  21.798  0.00  0.00    +0.000 C 
ATOM     23  C   UNL     1       0.737  10.056  21.207  0.00  0.00    +0.000 A 
ATOM     24  C   UNL     1       0.793  10.269  19.840  0.00  0.00    +0.000 A 
ATOM     25  C   UNL     1       0.444  11.523  19.351  0.00  0.00    +0.000 A 
ATOM     26  C   UNL     1       0.207  12.584  20.229  0.00  0.00    +0.000 A 
ATOM     27  C   UNL     1       0.018  12.259  21.573  0.00  0.00    +0.000 A 
ATOM     28  N   UNL     1       0.273  10.999  22.059  0.00  0.00    +0.000 NA
BRANCH  27  29
ATOM     29  N   UNL     1      -0.527  13.178  22.512  0.00  0.00    +0.000 N 
ATOM     30  C   UNL     1      -1.779  13.088  23.086  0.00  0.00    +0.000 A 
ATOM     31  C   UNL     1      -1.900  14.228  23.839  0.00  0.00    +0.000 A 
ATOM     32  N   UNL     1      -0.723  14.918  23.806  0.00  0.00    +0.000 NA
ATOM     33  N   UNL     1       0.114  14.264  23.009  0.00  0.00    +0.000 NA
ENDBRANCH  27  29
ENDBRANCH   1  26
TORSDOF 4
ENDMDL
MODEL 7
REMARK VINA RESULT:      -7.1      5.531      9.733
REMARK  Name = 
REMARK  6 active torsions:
REMARK  status: ('A' for Active; 'I' for Inactive)
REMARK    1  A    between atoms: C_1  and  C_2
REMARK    2  A    between atoms: C_5  and  C_6
REMARK    3  A    between atoms: C_12  and  N_13
REMARK    4  A    between atoms: C_17  and  C_18
REMARK    5  A    between atoms: C_24  and  C_25
REMARK    6  A    between atoms: C_26  and  N_27
REMARK                            x       y       z     vdW  Elec       q    Type
REMARK                         _______ _______ _______ _____ _____    ______ ____
ROOT
ATOM      1  C   UNL     1       0.057  11.724  21.398  0.00  0.00    +0.000 C 
ATOM      2  O   UNL     1      -0.407  12.073  22.484  0.00  0.00    +0.000 OA
ATOM      3  N   UNL     1       0.265  10.374  21.044  0.00  0.00    +0.000 N 
ATOM      4  C   UNL     1      -0.438   9.416  21.910  0.00  0.00    +0.000 C 
ATOM      5  C   UNL     1       0.484   8.301  22.372  0.00  0.00    +0.000 C 
ATOM      6  C   UNL     1       1.085   7.553  21.190  0.00  0.00    +0.000 C 
ATOM      7  C   UNL     1       1.737   8.509  20.177  0.00  0.00    +0.000 C 
ATOM      8  C   UNL     1       0.803   9.723  19.798  0.00  0.00    +0.000 C 
ATOM      9  C   UNL     1       1.557  10.554  18.753  0.00  0.00    +0.000 C 
ENDROOT
BRANCH   7  10
ATOM     10  N   UNL     1       2.092   7.774  18.960  0.00  0.00    +0.000 N 
ATOM     11  C   UNL     1       2.473   6.456  18.948  0.00  0.00    +0.000 A 
ATOM     12  C   UNL     1       3.178   5.841  19.969  0.00  0.00    +0.000 A 
ATOM     13  C   UNL     1       3.522   4.498  19.850  0.00  0.00    +0.000 A 
ATOM     14  C   UNL     1       3.169   3.791  18.699  0.00  0.00    +0.000 A 
ATOM     15  C   UNL     1       2.491   4.492  17.719  0.00  0.00    +0.000 A 
ATOM     16  N   UNL     1       2.138   5.794  17.823  0.00  0.00    +0.000 NA
ATOM     17  H   UNL     1       1.497   7.932  18.151  0.00  0.00    +0.000 HD
BRANCH  14  18
ATOM     18  C   UNL     1       3.496   2.347  18.497  0.00  0.00    +0.000 C 
ATOM     19  F   UNL     1       4.430   1.876  19.369  0.00  0.00    +0.000 F 
ATOM     20  F   UNL     1       2.408   1.543  18.646  0.00  0.00    +0.000 F 
ATOM     21  F   UNL     1       3.985   2.090  17.254  0.00  0.00    +0.000 F 
ENDBRANCH  14  18
ENDBRANCH   7  10
BRANCH   1  26
ATOM     22  C   UNL     1       1.997  15.915  18.028  0.00  0.00    +0.000 C 
ATOM     23  C   UNL     1       1.413  14.914  18.980  0.00  0.00    +0.000 A 
ATOM     24  C   UNL     1       2.029  14.650  20.192  0.00  0.00    +0.000 A 
ATOM     25  C   UNL     1       1.494  13.654  21.002  0.00  0.00    +0.000 A 
ATOM     26  C   UNL     1       0.468  12.832  20.528  0.00  0.00    +0.000 A 
ATOM     27  C   UNL     1      -0.195  13.254  19.375  0.00  0.00    +0.000 A 
ATOM     28  N   UNL     1       0.269  14.296  18.609  0.00  0.00    +0.000 NA
BRANCH  27  29
ATOM     29  N   UNL     1      -1.435  12.695  18.959  0.00  0.00    +0.000 N 
ATOM     30  C   UNL     1      -2.616  12.747  19.673  0.00  0.00    +0.000 A 
ATOM     31  C   UNL     1      -3.502  12.004  18.936  0.00  0.00    +0.000 A 
ATOM     32  N   UNL     1      -2.906  11.615  17.772  0.00  0.00    +0.000 NA
ATOM     33  N   UNL     1      -1.653  12.053  17.786  0.00  0.00    +0.000 NA
ENDBRANCH  27  29
ENDBRANCH   1  26
TORSDOF 4
ENDMDL
MODEL 8
REMARK VINA RESULT:      -7.1      5.545     11.608
REMARK  Name = 
REMARK  6 active torsions:
REMARK  status: ('A' for Active; 'I' for Inactive)
REMARK    1  A    between atoms: C_1  and  C_2
REMARK    2  A    between atoms: C_5  and  C_6
REMARK    3  A    between atoms: C_12  and  N_13
REMARK    4  A    between atoms: C_17  and  C_18
REMARK    5  A    between atoms: C_24  and  C_25
REMARK    6  A    between atoms: C_26  and  N_27
REMARK                            x       y       z     vdW  Elec       q    Type
REMARK                         _______ _______ _______ _____ _____    ______ ____
ROOT
ATOM      1  C   UNL     1      -3.795  12.838  20.465  0.00  0.00    +0.000 C 
ATOM      2  O   UNL     1      -5.025  12.811  20.490  0.00  0.00    +0.000 OA
ATOM      3  N   UNL     1      -3.026  12.204  19.466  0.00  0.00    +0.000 N 
ATOM      4  C   UNL     1      -3.799  11.821  18.274  0.00  0.00    +0.000 C 
ATOM      5  C   UNL     1      -3.520  10.385  17.866  0.00  0.00    +0.000 C 
ATOM      6  C   UNL     1      -2.038  10.166  17.589  0.00  0.00    +0.000 C 
ATOM      7  C   UNL     1      -1.158  10.657  18.750  0.00  0.00    +0.000 C 
ATOM      8  C   UNL     1      -1.542  12.110  19.233  0.00  0.00    +0.000 C 
ATOM      9  C   UNL     1      -0.558  12.482  20.347  0.00  0.00    +0.000 C 
ENDROOT
BRANCH   7  10
ATOM     10  N   UNL     1       0.251  10.641  18.345  0.00  0.00    +0.000 N 
ATOM     11  C   UNL     1       1.068   9.545  18.470  0.00  0.00    +0.000 A 
ATOM     12  C   UNL     1       0.964   8.611  19.486  0.00  0.00    +0.000 A 
ATOM     13  C   UNL     1       1.852   7.540  19.523  0.00  0.00    +0.000 A 
ATOM     14  C   UNL     1       2.845   7.429  18.549  0.00  0.00    +0.000 A 
ATOM     15  C   UNL     1       2.892   8.423  17.588  0.00  0.00    +0.000 A 
ATOM     16  N   UNL     1       2.030   9.463  17.530  0.00  0.00    +0.000 NA
ATOM     17  H   UNL     1       0.468  11.090  17.459  0.00  0.00    +0.000 HD
BRANCH  14  18
ATOM     18  C   UNL     1       3.833   6.308  18.514  0.00  0.00    +0.000 C 
ATOM     19  F   UNL     1       4.165   5.841  19.750  0.00  0.00    +0.000 F 
ATOM     20  F   UNL     1       3.372   5.230  17.821  0.00  0.00    +0.000 F 
ATOM     21  F   UNL     1       5.005   6.661  17.922  0.00  0.00    +0.000 F 
ENDBRANCH  14  18
ENDBRANCH   7  10
BRANCH   1  26
ATOM     22  C   UNL     1      -1.116  15.215  24.923  0.00  0.00    +0.000 C 
ATOM     23  C   UNL     1      -1.937  14.597  23.830  0.00  0.00    +0.000 A 
ATOM     24  C   UNL     1      -2.126  13.226  23.777  0.00  0.00    +0.000 A 
ATOM     25  C   UNL     1      -2.825  12.696  22.698  0.00  0.00    +0.000 A 
ATOM     26  C   UNL     1      -3.177  13.507  21.617  0.00  0.00    +0.000 A 
ATOM     27  C   UNL     1      -3.093  14.887  21.810  0.00  0.00    +0.000 A 
ATOM     28  N   UNL     1      -2.484  15.430  22.916  0.00  0.00    +0.000 NA
BRANCH  27  29
ATOM     29  N   UNL     1      -3.700  15.821  20.925  0.00  0.00    +0.000 N 
ATOM     30  C   UNL     1      -5.056  16.045  20.806  0.00  0.00    +0.000 A 
ATOM     31  C   UNL     1      -5.172  16.948  19.779  0.00  0.00    +0.000 A 
ATOM     32  N   UNL     1      -3.926  17.332  19.375  0.00  0.00    +0.000 NA
ATOM     33  N   UNL     1      -3.035  16.654  20.088  0.00  0.00    +0.000 NA
ENDBRANCH  27  29
ENDBRANCH   1  26
TORSDOF 4
ENDMDL
MODEL 9
REMARK VINA RESULT:      -7.0      5.439     10.290
REMARK  Name = 
REMARK  6 active torsions:
REMARK  status: ('A' for Active; 'I' for Inactive)
REMARK    1  A    between atoms: C_1  and  C_2
REMARK    2  A    between atoms: C_5  and  C_6
REMARK    3  A    between atoms: C_12  and  N_13
REMARK    4  A    between atoms: C_17  and  C_18
REMARK    5  A    between atoms: C_24  and  C_25
REMARK    6  A    between atoms: C_26  and  N_27
REMARK                            x       y       z     vdW  Elec       q    Type
REMARK                         _______ _______ _______ _____ _____    ______ ____
ROOT
ATOM      1  C   UNL     1       0.172  12.426  19.634  0.00  0.00    +0.000 C 
ATOM      2  O   UNL     1       0.158  13.402  18.885  0.00  0.00    +0.000 OA
ATOM      3  N   UNL     1       1.032  11.323  19.453  0.00  0.00    +0.000 N 
ATOM      4  C   UNL     1       2.145  11.583  18.528  0.00  0.00    +0.000 C 
ATOM      5  C   UNL     1       2.288  10.473  17.501  0.00  0.00    +0.000 C 
ATOM      6  C   UNL     1       2.503   9.122  18.171  0.00  0.00    +0.000 C 
ATOM      7  C   UNL     1       1.437   8.835  19.241  0.00  0.00    +0.000 C 
ATOM      8  C   UNL     1       1.225  10.048  20.229  0.00  0.00    +0.000 C 
ATOM      9  C   UNL     1       0.183   9.603  21.261  0.00  0.00    +0.000 C 
ENDROOT
BRANCH   7  10
ATOM     10  N   UNL     1       1.814   7.646  20.010  0.00  0.00    +0.000 N 
ATOM     11  C   UNL     1       2.170   6.450  19.440  0.00  0.00    +0.000 A 
ATOM     12  C   UNL     1       1.647   5.970  18.251  0.00  0.00    +0.000 A 
ATOM     13  C   UNL     1       2.071   4.737  17.766  0.00  0.00    +0.000 A 
ATOM     14  C   UNL     1       3.003   3.991  18.490  0.00  0.00    +0.000 A 
ATOM     15  C   UNL     1       3.450   4.534  19.680  0.00  0.00    +0.000 A 
ATOM     16  N   UNL     1       3.057   5.736  20.161  0.00  0.00    +0.000 NA
ATOM     17  H   UNL     1       2.426   7.803  20.808  0.00  0.00    +0.000 HD
BRANCH  14  18
ATOM     18  C   UNL     1       3.514   2.662  18.035  0.00  0.00    +0.000 C 
ATOM     19  F   UNL     1       4.061   1.920  19.038  0.00  0.00    +0.000 F 
ATOM     20  F   UNL     1       2.536   1.888  17.490  0.00  0.00    +0.000 F 
ATOM     21  F   UNL     1       4.480   2.770  17.084  0.00  0.00    +0.000 F 
ENDBRANCH  14  18
ENDBRANCH   7  10
BRANCH   1  26
ATOM     22  C   UNL     1      -3.681  12.855  23.838  0.00  0.00    +0.000 C 
ATOM     23  C   UNL     1      -2.650  12.610  22.777  0.00  0.00    +0.000 A 
ATOM     24  C   UNL     1      -1.306  12.822  23.035  0.00  0.00    +0.000 A 
ATOM     25  C   UNL     1      -0.399  12.660  21.994  0.00  0.00    +0.000 A 
ATOM     26  C   UNL     1      -0.851  12.454  20.688  0.00  0.00    +0.000 A 
ATOM     27  C   UNL     1      -2.192  12.100  20.534  0.00  0.00    +0.000 A 
ATOM     28  N   UNL     1      -3.086  12.169  21.576  0.00  0.00    +0.000 NA
BRANCH  27  29
ATOM     29  N   UNL     1      -2.706  11.569  19.320  0.00  0.00    +0.000 N 
ATOM     30  C   UNL     1      -3.850  12.000  18.678  0.00  0.00    +0.000 A 
ATOM     31  C   UNL     1      -3.998  11.144  17.616  0.00  0.00    +0.000 A 
ATOM     32  N   UNL     1      -2.925  10.304  17.561  0.00  0.00    +0.000 NA
ATOM     33  N   UNL     1      -2.134  10.579  18.591  0.00  0.00    +0.000 NA
ENDBRANCH  27  29
ENDBRANCH   1  26
TORSDOF 4
ENDMDL
