MODEL 1
REMARK VINA RESULT:      -8.1      0.000      0.000
REMARK  Name = 
REMARK  3 active torsions:
REMARK  status: ('A' for Active; 'I' for Inactive)
REMARK    1  A    between atoms: C_2  and  C_3
REMARK    2  A    between atoms: N_14  and  C_15
REMARK    3  A    between atoms: C_19  and  C_20
REMARK                            x       y       z     vdW  Elec       q    Type
REMARK                         _______ _______ _______ _____ _____    ______ ____
ROOT
ATOM      1  O   UNL     1       5.710   4.149  20.253  0.00  0.00    +0.000 OA
ATOM      2  C   UNL     1       4.921   4.133  19.309  0.00  0.00    +0.000 C 
ATOM      3  N   UNL     1       5.334   4.401  17.996  0.00  0.00    +0.000 N 
ATOM      4  C   UNL     1       4.462   4.381  16.807  0.00  0.00    +0.000 C 
ATOM      5  C   UNL     1       4.894   5.391  15.745  0.00  0.00    +0.000 C 
ATOM      6  N   UNL     1       6.295   5.159  15.393  0.00  0.00    +0.000 N 
ATOM      7  C   UNL     1       7.226   5.262  16.530  0.00  0.00    +0.000 C 
ATOM      8  C   UNL     1       6.777   4.344  17.695  0.00  0.00    +0.000 C 
ENDROOT
BRANCH   2   9
ATOM      9  C   UNL     1       3.500   3.836  19.611  0.00  0.00    +0.000 A 
ATOM     10  C   UNL     1       3.005   2.543  19.448  0.00  0.00    +0.000 A 
ATOM     11  F   UNL     1       3.785   1.548  19.004  0.00  0.00    +0.000 F 
ATOM     12  C   UNL     1       1.675   2.237  19.759  0.00  0.00    +0.000 A 
ATOM     13  C   UNL     1       0.829   3.224  20.263  0.00  0.00    +0.000 A 
ATOM     14  C   UNL     1       1.299   4.528  20.386  0.00  0.00    +0.000 A 
ATOM     15  C   UNL     1       2.606   4.831  20.007  0.00  0.00    +0.000 A 
ATOM     16  F   UNL     1       2.971   6.120  20.049  0.00  0.00    +0.000 F 
ENDBRANCH   2   9
BRANCH   6  17
ATOM     17  C   UNL     1       6.678   4.813  14.116  0.00  0.00    +0.000 A 
ATOM     18  C   UNL     1       7.612   5.570  13.398  0.00  0.00    +0.000 A 
ATOM     19  C   UNL     1       7.958   5.257  12.076  0.00  0.00    +0.000 A 
ATOM     20  C   UNL     1       7.382   4.162  11.443  0.00  0.00    +0.000 A 
ATOM     21  C   UNL     1       6.466   3.366  12.128  0.00  0.00    +0.000 A 
ATOM     22  C   UNL     1       6.128   3.701  13.458  0.00  0.00    +0.000 A 
BRANCH  21  23
ATOM     23  C   UNL     1       5.812   2.175  11.479  0.00  0.00    +0.000 C 
ATOM     24  F   UNL     1       5.688   1.099  12.307  0.00  0.00    +0.000 F 
ATOM     25  F   UNL     1       4.554   2.447  11.032  0.00  0.00    +0.000 F 
ATOM     26  F   UNL     1       6.500   1.725  10.390  0.00  0.00    +0.000 F 
ENDBRANCH  21  23
ENDBRANCH   6  17
TORSDOF 3
ENDMDL
MODEL 2
REMARK VINA RESULT:      -8.0      0.137      1.782
REMARK  Name = 
REMARK  3 active torsions:
REMARK  status: ('A' for Active; 'I' for Inactive)
REMARK    1  A    between atoms: C_2  and  C_3
REMARK    2  A    between atoms: N_14  and  C_15
REMARK    3  A    between atoms: C_19  and  C_20
REMARK                            x       y       z     vdW  Elec       q    Type
REMARK                         _______ _______ _______ _____ _____    ______ ____
ROOT
ATOM      1  O   UNL     1       5.778   4.356  20.249  0.00  0.00    +0.000 OA
ATOM      2  C   UNL     1       4.986   4.261  19.313  0.00  0.00    +0.000 C 
ATOM      3  N   UNL     1       5.376   4.497  17.987  0.00  0.00    +0.000 N 
ATOM      4  C   UNL     1       4.501   4.384  16.807  0.00  0.00    +0.000 C 
ATOM      5  C   UNL     1       4.873   5.371  15.702  0.00  0.00    +0.000 C 
ATOM      6  N   UNL     1       6.282   5.199  15.349  0.00  0.00    +0.000 N 
ATOM      7  C   UNL     1       7.212   5.397  16.473  0.00  0.00    +0.000 C 
ATOM      8  C   UNL     1       6.819   4.503  17.678  0.00  0.00    +0.000 C 
ENDROOT
BRANCH   2   9
ATOM      9  C   UNL     1       3.584   3.902  19.638  0.00  0.00    +0.000 A 
ATOM     10  C   UNL     1       2.680   4.890  20.025  0.00  0.00    +0.000 A 
ATOM     11  F   UNL     1       3.052   6.174  20.128  0.00  0.00    +0.000 F 
ATOM     12  C   UNL     1       1.345   4.575  20.304  0.00  0.00    +0.000 A 
ATOM     13  C   UNL     1       0.893   3.263  20.173  0.00  0.00    +0.000 A 
ATOM     14  C   UNL     1       1.798   2.261  19.833  0.00  0.00    +0.000 A 
ATOM     15  C   UNL     1       3.138   2.580  19.625  0.00  0.00    +0.000 A 
ATOM     16  F   UNL     1       3.981   1.562  19.402  0.00  0.00    +0.000 F 
ENDBRANCH   2   9
BRANCH   6  17
ATOM     17  C   UNL     1       6.675   4.823  14.084  0.00  0.00    +0.000 A 
ATOM     18  C   UNL     1       7.639   5.544  13.368  0.00  0.00    +0.000 A 
ATOM     19  C   UNL     1       7.997   5.200  12.058  0.00  0.00    +0.000 A 
ATOM     20  C   UNL     1       7.403   4.111  11.433  0.00  0.00    +0.000 A 
ATOM     21  C   UNL     1       6.457   3.349  12.116  0.00  0.00    +0.000 A 
ATOM     22  C   UNL     1       6.107   3.715  13.435  0.00  0.00    +0.000 A 
BRANCH  21  23
ATOM     23  C   UNL     1       5.782   2.165  11.476  0.00  0.00    +0.000 C 
ATOM     24  F   UNL     1       4.508   2.417  11.063  0.00  0.00    +0.000 F 
ATOM     25  F   UNL     1       6.448   1.713  10.376  0.00  0.00    +0.000 F 
ATOM     26  F   UNL     1       5.691   1.093  12.317  0.00  0.00    +0.000 F 
ENDBRANCH  21  23
ENDBRANCH   6  17
TORSDOF 3
ENDMDL
MODEL 3
REMARK VINA RESULT:      -7.8      0.711      1.121
REMARK  Name = 
REMARK  3 active torsions:
REMARK  status: ('A' for Active; 'I' for Inactive)
REMARK    1  A    between atoms: C_2  and  C_3
REMARK    2  A    between atoms: N_14  and  C_15
REMARK    3  A    between atoms: C_19  and  C_20
REMARK                            x       y       z     vdW  Elec       q    Type
REMARK                         _______ _______ _______ _____ _____    ______ ____
ROOT
ATOM      1  O   UNL     1       5.969   4.518  20.367  0.00  0.00    +0.000 OA
ATOM      2  C   UNL     1       5.107   4.456  19.492  0.00  0.00    +0.000 C 
ATOM      3  N   UNL     1       5.415   4.648  18.137  0.00  0.00    +0.000 N 
ATOM      4  C   UNL     1       4.451   4.569  17.024  0.00  0.00    +0.000 C 
ATOM      5  C   UNL     1       4.800   5.516  15.876  0.00  0.00    +0.000 C 
ATOM      6  N   UNL     1       6.168   5.255  15.428  0.00  0.00    +0.000 N 
ATOM      7  C   UNL     1       7.186   5.414  16.479  0.00  0.00    +0.000 C 
ATOM      8  C   UNL     1       6.829   4.564  17.726  0.00  0.00    +0.000 C 
ENDROOT
BRANCH   2   9
ATOM      9  C   UNL     1       3.714   4.187  19.922  0.00  0.00    +0.000 A 
ATOM     10  C   UNL     1       3.275   2.875  20.090  0.00  0.00    +0.000 A 
ATOM     11  F   UNL     1       4.085   1.832  19.856  0.00  0.00    +0.000 F 
ATOM     12  C   UNL     1       1.974   2.601  20.526  0.00  0.00    +0.000 A 
ATOM     13  C   UNL     1       1.101   3.647  20.825  0.00  0.00    +0.000 A 
ATOM     14  C   UNL     1       1.514   4.960  20.616  0.00  0.00    +0.000 A 
ATOM     15  C   UNL     1       2.789   5.213  20.115  0.00  0.00    +0.000 A 
ATOM     16  F   UNL     1       3.095   6.488  19.837  0.00  0.00    +0.000 F 
ENDBRANCH   2   9
BRANCH   6  17
ATOM     17  C   UNL     1       6.446   4.837  14.145  0.00  0.00    +0.000 A 
ATOM     18  C   UNL     1       7.634   5.196  13.496  0.00  0.00    +0.000 A 
ATOM     19  C   UNL     1       7.893   4.823  12.170  0.00  0.00    +0.000 A 
ATOM     20  C   UNL     1       6.967   4.066  11.463  0.00  0.00    +0.000 A 
ATOM     21  C   UNL     1       5.783   3.665  12.077  0.00  0.00    +0.000 A 
ATOM     22  C   UNL     1       5.539   4.054  13.413  0.00  0.00    +0.000 A 
BRANCH  21  23
ATOM     23  C   UNL     1       4.749   2.849  11.347  0.00  0.00    +0.000 C 
ATOM     24  F   UNL     1       4.410   3.358  10.129  0.00  0.00    +0.000 F 
ATOM     25  F   UNL     1       5.158   1.571  11.114  0.00  0.00    +0.000 F 
ATOM     26  F   UNL     1       3.578   2.741  12.039  0.00  0.00    +0.000 F 
ENDBRANCH  21  23
ENDBRANCH   6  17
TORSDOF 3
ENDMDL
MODEL 4
REMARK VINA RESULT:      -7.6      5.301      8.604
REMARK  Name = 
REMARK  3 active torsions:
REMARK  status: ('A' for Active; 'I' for Inactive)
REMARK    1  A    between atoms: C_2  and  C_3
REMARK    2  A    between atoms: N_14  and  C_15
REMARK    3  A    between atoms: C_19  and  C_20
REMARK                            x       y       z     vdW  Elec       q    Type
REMARK                         _______ _______ _______ _____ _____    ______ ____
ROOT
ATOM      1  O   UNL     1       4.444   6.004  16.847  0.00  0.00    +0.000 OA
ATOM      2  C   UNL     1       3.608   5.882  17.741  0.00  0.00    +0.000 C 
ATOM      3  N   UNL     1       2.835   6.964  18.184  0.00  0.00    +0.000 N 
ATOM      4  C   UNL     1       1.800   6.901  19.231  0.00  0.00    +0.000 C 
ATOM      5  C   UNL     1       1.691   8.200  20.030  0.00  0.00    +0.000 C 
ATOM      6  N   UNL     1       1.467   9.318  19.113  0.00  0.00    +0.000 N 
ATOM      7  C   UNL     1       2.524   9.488  18.102  0.00  0.00    +0.000 C 
ATOM      8  C   UNL     1       2.767   8.166  17.330  0.00  0.00    +0.000 C 
ENDROOT
BRANCH   2   9
ATOM      9  C   UNL     1       3.456   4.540  18.356  0.00  0.00    +0.000 A 
ATOM     10  C   UNL     1       2.312   3.784  18.110  0.00  0.00    +0.000 A 
ATOM     11  F   UNL     1       1.322   4.247  17.333  0.00  0.00    +0.000 F 
ATOM     12  C   UNL     1       2.165   2.503  18.654  0.00  0.00    +0.000 A 
ATOM     13  C   UNL     1       3.182   1.953  19.435  0.00  0.00    +0.000 A 
ATOM     14  C   UNL     1       4.307   2.718  19.726  0.00  0.00    +0.000 A 
ATOM     15  C   UNL     1       4.407   4.018  19.232  0.00  0.00    +0.000 A 
ATOM     16  F   UNL     1       5.463   4.743  19.628  0.00  0.00    +0.000 F 
ENDBRANCH   2   9
BRANCH   6  17
ATOM     17  C   UNL     1       0.328  10.090  19.172  0.00  0.00    +0.000 A 
ATOM     18  C   UNL     1       0.061  10.927  20.262  0.00  0.00    +0.000 A 
ATOM     19  C   UNL     1      -1.125  11.668  20.353  0.00  0.00    +0.000 A 
ATOM     20  C   UNL     1      -2.073  11.597  19.340  0.00  0.00    +0.000 A 
ATOM     21  C   UNL     1      -1.839  10.796  18.224  0.00  0.00    +0.000 A 
ATOM     22  C   UNL     1      -0.638  10.054  18.153  0.00  0.00    +0.000 A 
BRANCH  21  23
ATOM     23  C   UNL     1      -2.841  10.684  17.106  0.00  0.00    +0.000 C 
ATOM     24  F   UNL     1      -2.341  11.024  15.885  0.00  0.00    +0.000 F 
ATOM     25  F   UNL     1      -3.333   9.421  16.967  0.00  0.00    +0.000 F 
ATOM     26  F   UNL     1      -3.931  11.484  17.293  0.00  0.00    +0.000 F 
ENDBRANCH  21  23
ENDBRANCH   6  17
TORSDOF 3
ENDMDL
MODEL 5
REMARK VINA RESULT:      -7.5      5.493      8.813
REMARK  Name = 
REMARK  3 active torsions:
REMARK  status: ('A' for Active; 'I' for Inactive)
REMARK    1  A    between atoms: C_2  and  C_3
REMARK    2  A    between atoms: N_14  and  C_15
REMARK    3  A    between atoms: C_19  and  C_20
REMARK                            x       y       z     vdW  Elec       q    Type
REMARK                         _______ _______ _______ _____ _____    ______ ____
ROOT
ATOM      1  O   UNL     1       4.248   6.233  17.013  0.00  0.00    +0.000 OA
ATOM      2  C   UNL     1       3.403   6.109  17.899  0.00  0.00    +0.000 C 
ATOM      3  N   UNL     1       2.629   7.192  18.340  0.00  0.00    +0.000 N 
ATOM      4  C   UNL     1       1.583   7.127  19.376  0.00  0.00    +0.000 C 
ATOM      5  C   UNL     1       1.471   8.421  20.181  0.00  0.00    +0.000 C 
ATOM      6  N   UNL     1       1.261   9.546  19.269  0.00  0.00    +0.000 N 
ATOM      7  C   UNL     1       2.329   9.717  18.270  0.00  0.00    +0.000 C 
ATOM      8  C   UNL     1       2.575   8.399  17.492  0.00  0.00    +0.000 C 
ENDROOT
BRANCH   2   9
ATOM      9  C   UNL     1       3.239   4.764  18.503  0.00  0.00    +0.000 A 
ATOM     10  C   UNL     1       4.237   4.239  19.322  0.00  0.00    +0.000 A 
ATOM     11  F   UNL     1       5.366   4.919  19.571  0.00  0.00    +0.000 F 
ATOM     12  C   UNL     1       4.086   2.986  19.927  0.00  0.00    +0.000 A 
ATOM     13  C   UNL     1       2.915   2.253  19.737  0.00  0.00    +0.000 A 
ATOM     14  C   UNL     1       1.933   2.747  18.883  0.00  0.00    +0.000 A 
ATOM     15  C   UNL     1       2.128   3.964  18.234  0.00  0.00    +0.000 A 
ATOM     16  F   UNL     1       1.197   4.340  17.347  0.00  0.00    +0.000 F 
ENDBRANCH   2   9
BRANCH   6  17
ATOM     17  C   UNL     1       0.125  10.322  19.320  0.00  0.00    +0.000 A 
ATOM     18  C   UNL     1      -0.167  11.128  20.428  0.00  0.00    +0.000 A 
ATOM     19  C   UNL     1      -1.351  11.872  20.509  0.00  0.00    +0.000 A 
ATOM     20  C   UNL     1      -2.273  11.836  19.469  0.00  0.00    +0.000 A 
ATOM     21  C   UNL     1      -2.012  11.069  18.336  0.00  0.00    +0.000 A 
ATOM     22  C   UNL     1      -0.814  10.322  18.275  0.00  0.00    +0.000 A 
BRANCH  21  23
ATOM     23  C   UNL     1      -2.985  10.995  17.189  0.00  0.00    +0.000 C 
ATOM     24  F   UNL     1      -3.556   9.768  17.032  0.00  0.00    +0.000 F 
ATOM     25  F   UNL     1      -4.019  11.873  17.321  0.00  0.00    +0.000 F 
ATOM     26  F   UNL     1      -2.406  11.288  15.988  0.00  0.00    +0.000 F 
ENDBRANCH  21  23
ENDBRANCH   6  17
TORSDOF 3
ENDMDL
MODEL 6
REMARK VINA RESULT:      -7.5      3.955      9.077
REMARK  Name = 
REMARK  3 active torsions:
REMARK  status: ('A' for Active; 'I' for Inactive)
REMARK    1  A    between atoms: C_2  and  C_3
REMARK    2  A    between atoms: N_14  and  C_15
REMARK    3  A    between atoms: C_19  and  C_20
REMARK                            x       y       z     vdW  Elec       q    Type
REMARK                         _______ _______ _______ _____ _____    ______ ____
ROOT
ATOM      1  O   UNL     1       5.318   3.509  19.088  0.00  0.00    +0.000 OA
ATOM      2  C   UNL     1       5.017   4.422  18.320  0.00  0.00    +0.000 C 
ATOM      3  N   UNL     1       4.031   5.365  18.644  0.00  0.00    +0.000 N 
ATOM      4  C   UNL     1       3.625   6.500  17.796  0.00  0.00    +0.000 C 
ATOM      5  C   UNL     1       2.147   6.854  17.955  0.00  0.00    +0.000 C 
ATOM      6  N   UNL     1       1.855   7.102  19.368  0.00  0.00    +0.000 N 
ATOM      7  C   UNL     1       2.153   5.963  20.252  0.00  0.00    +0.000 C 
ATOM      8  C   UNL     1       3.611   5.476  20.054  0.00  0.00    +0.000 C 
ENDROOT
BRANCH   2   9
ATOM      9  C   UNL     1       5.727   4.483  17.019  0.00  0.00    +0.000 A 
ATOM     10  C   UNL     1       5.080   4.086  15.850  0.00  0.00    +0.000 A 
ATOM     11  F   UNL     1       3.819   3.630  15.870  0.00  0.00    +0.000 F 
ATOM     12  C   UNL     1       5.722   4.168  14.609  0.00  0.00    +0.000 A 
ATOM     13  C   UNL     1       7.019   4.674  14.524  0.00  0.00    +0.000 A 
ATOM     14  C   UNL     1       7.691   5.028  15.690  0.00  0.00    +0.000 A 
ATOM     15  C   UNL     1       7.062   4.877  16.925  0.00  0.00    +0.000 A 
ATOM     16  F   UNL     1       7.791   5.136  18.018  0.00  0.00    +0.000 F 
ENDBRANCH   2   9
BRANCH   6  17
ATOM     17  C   UNL     1       1.403   8.324  19.814  0.00  0.00    +0.000 A 
ATOM     18  C   UNL     1       1.518   9.481  19.034  0.00  0.00    +0.000 A 
ATOM     19  C   UNL     1       1.114  10.736  19.509  0.00  0.00    +0.000 A 
ATOM     20  C   UNL     1       0.571  10.861  20.782  0.00  0.00    +0.000 A 
ATOM     21  C   UNL     1       0.414   9.732  21.584  0.00  0.00    +0.000 A 
ATOM     22  C   UNL     1       0.831   8.476  21.088  0.00  0.00    +0.000 A 
BRANCH  21  23
ATOM     23  C   UNL     1      -0.163   9.821  22.972  0.00  0.00    +0.000 C 
ATOM     24  F   UNL     1      -1.223   8.989  23.179  0.00  0.00    +0.000 F 
ATOM     25  F   UNL     1       0.746   9.514  23.939  0.00  0.00    +0.000 F 
ATOM     26  F   UNL     1      -0.614  11.073  23.275  0.00  0.00    +0.000 F 
ENDBRANCH  21  23
ENDBRANCH   6  17
TORSDOF 3
ENDMDL
MODEL 7
REMARK VINA RESULT:      -7.5      6.186      9.492
REMARK  Name = 
REMARK  3 active torsions:
REMARK  status: ('A' for Active; 'I' for Inactive)
REMARK    1  A    between atoms: C_2  and  C_3
REMARK    2  A    between atoms: N_14  and  C_15
REMARK    3  A    between atoms: C_19  and  C_20
REMARK                            x       y       z     vdW  Elec       q    Type
REMARK                         _______ _______ _______ _____ _____    ______ ____
ROOT
ATOM      1  O   UNL     1       2.010   5.559  20.836  0.00  0.00    +0.000 OA
ATOM      2  C   UNL     1       2.351   6.071  19.770  0.00  0.00    +0.000 C 
ATOM      3  N   UNL     1       2.020   7.394  19.447  0.00  0.00    +0.000 N 
ATOM      4  C   UNL     1       2.405   8.091  18.207  0.00  0.00    +0.000 C 
ATOM      5  C   UNL     1       1.361   9.113  17.758  0.00  0.00    +0.000 C 
ATOM      6  N   UNL     1       1.098  10.053  18.848  0.00  0.00    +0.000 N 
ATOM      7  C   UNL     1       0.616   9.417  20.086  0.00  0.00    +0.000 C 
ATOM      8  C   UNL     1       1.575   8.286  20.536  0.00  0.00    +0.000 C 
ENDROOT
BRANCH   2   9
ATOM      9  C   UNL     1       3.118   5.228  18.821  0.00  0.00    +0.000 A 
ATOM     10  C   UNL     1       2.448   4.408  17.915  0.00  0.00    +0.000 A 
ATOM     11  F   UNL     1       1.109   4.347  17.886  0.00  0.00    +0.000 F 
ATOM     12  C   UNL     1       3.153   3.630  16.990  0.00  0.00    +0.000 A 
ATOM     13  C   UNL     1       4.546   3.685  16.947  0.00  0.00    +0.000 A 
ATOM     14  C   UNL     1       5.227   4.464  17.879  0.00  0.00    +0.000 A 
ATOM     15  C   UNL     1       4.512   5.179  18.837  0.00  0.00    +0.000 A 
ATOM     16  F   UNL     1       5.221   5.828  19.771  0.00  0.00    +0.000 F 
ENDBRANCH   2   9
BRANCH   6  17
ATOM     17  C   UNL     1       1.348  11.401  18.723  0.00  0.00    +0.000 A 
ATOM     18  C   UNL     1       2.547  11.881  18.182  0.00  0.00    +0.000 A 
ATOM     19  C   UNL     1       2.830  13.251  18.109  0.00  0.00    +0.000 A 
ATOM     20  C   UNL     1       1.905  14.181  18.570  0.00  0.00    +0.000 A 
ATOM     21  C   UNL     1       0.688  13.751  19.093  0.00  0.00    +0.000 A 
ATOM     22  C   UNL     1       0.424  12.364  19.161  0.00  0.00    +0.000 A 
BRANCH  21  23
ATOM     23  C   UNL     1      -0.340  14.723  19.610  0.00  0.00    +0.000 C 
ATOM     24  F   UNL     1      -0.680  15.689  18.711  0.00  0.00    +0.000 F 
ATOM     25  F   UNL     1      -1.507  14.114  19.961  0.00  0.00    +0.000 F 
ATOM     26  F   UNL     1       0.079  15.388  20.725  0.00  0.00    +0.000 F 
ENDBRANCH  21  23
ENDBRANCH   6  17
TORSDOF 3
ENDMDL
MODEL 8
REMARK VINA RESULT:      -7.5      5.207      9.593
REMARK  Name = 
REMARK  3 active torsions:
REMARK  status: ('A' for Active; 'I' for Inactive)
REMARK    1  A    between atoms: C_2  and  C_3
REMARK    2  A    between atoms: N_14  and  C_15
REMARK    3  A    between atoms: C_19  and  C_20
REMARK                            x       y       z     vdW  Elec       q    Type
REMARK                         _______ _______ _______ _____ _____    ______ ____
ROOT
ATOM      1  O   UNL     1       4.214   6.093  16.762  0.00  0.00    +0.000 OA
ATOM      2  C   UNL     1       3.476   5.928  17.732  0.00  0.00    +0.000 C 
ATOM      3  N   UNL     1       2.758   6.989  18.303  0.00  0.00    +0.000 N 
ATOM      4  C   UNL     1       1.837   6.877  19.448  0.00  0.00    +0.000 C 
ATOM      5  C   UNL     1       1.817   8.137  20.313  0.00  0.00    +0.000 C 
ATOM      6  N   UNL     1       1.504   9.296  19.477  0.00  0.00    +0.000 N 
ATOM      7  C   UNL     1       2.450   9.513  18.370  0.00  0.00    +0.000 C 
ATOM      8  C   UNL     1       2.606   8.229  17.517  0.00  0.00    +0.000 C 
ENDROOT
BRANCH   2   9
ATOM      9  C   UNL     1       3.383   4.560  18.296  0.00  0.00    +0.000 A 
ATOM     10  C   UNL     1       2.271   3.765  18.025  0.00  0.00    +0.000 A 
ATOM     11  F   UNL     1       1.260   4.214  17.268  0.00  0.00    +0.000 F 
ATOM     12  C   UNL     1       2.181   2.460  18.521  0.00  0.00    +0.000 A 
ATOM     13  C   UNL     1       3.223   1.926  19.280  0.00  0.00    +0.000 A 
ATOM     14  C   UNL     1       4.316   2.727  19.596  0.00  0.00    +0.000 A 
ATOM     15  C   UNL     1       4.359   4.047  19.152  0.00  0.00    +0.000 A 
ATOM     16  F   UNL     1       5.384   4.800  19.572  0.00  0.00    +0.000 F 
ENDBRANCH   2   9
BRANCH   6  17
ATOM     17  C   UNL     1       0.380  10.064  19.689  0.00  0.00    +0.000 A 
ATOM     18  C   UNL     1      -0.391  10.549  18.626  0.00  0.00    +0.000 A 
ATOM     19  C   UNL     1      -1.499  11.381  18.836  0.00  0.00    +0.000 A 
ATOM     20  C   UNL     1      -1.871  11.739  20.126  0.00  0.00    +0.000 A 
ATOM     21  C   UNL     1      -1.147  11.259  21.216  0.00  0.00    +0.000 A 
ATOM     22  C   UNL     1      -0.031  10.425  20.983  0.00  0.00    +0.000 A 
BRANCH  21  23
ATOM     23  C   UNL     1      -1.510  11.627  22.630  0.00  0.00    +0.000 C 
ATOM     24  F   UNL     1      -0.839  12.715  23.103  0.00  0.00    +0.000 F 
ATOM     25  F   UNL     1      -2.834  11.915  22.774  0.00  0.00    +0.000 F 
ATOM     26  F   UNL     1      -1.253  10.622  23.518  0.00  0.00    +0.000 F 
ENDBRANCH  21  23
ENDBRANCH   6  17
TORSDOF 3
ENDMDL
MODEL 9
REMARK VINA RESULT:      -7.5      6.166      9.531
REMARK  Name = 
REMARK  3 active torsions:
REMARK  status: ('A' for Active; 'I' for Inactive)
REMARK    1  A    between atoms: C_2  and  C_3
REMARK    2  A    between atoms: N_14  and  C_15
REMARK    3  A    between atoms: C_19  and  C_20
REMARK                            x       y       z     vdW  Elec       q    Type
REMARK                         _______ _______ _______ _____ _____    ______ ____
ROOT
ATOM      1  O   UNL     1       2.012   5.524  20.854  0.00  0.00    +0.000 OA
ATOM      2  C   UNL     1       2.336   6.037  19.783  0.00  0.00    +0.000 C 
ATOM      3  N   UNL     1       2.000   7.361  19.467  0.00  0.00    +0.000 N 
ATOM      4  C   UNL     1       2.366   8.059  18.222  0.00  0.00    +0.000 C 
ATOM      5  C   UNL     1       1.317   9.083  17.791  0.00  0.00    +0.000 C 
ATOM      6  N   UNL     1       1.073  10.022  18.887  0.00  0.00    +0.000 N 
ATOM      7  C   UNL     1       0.611   9.386  20.132  0.00  0.00    +0.000 C 
ATOM      8  C   UNL     1       1.576   8.252  20.564  0.00  0.00    +0.000 C 
ENDROOT
BRANCH   2   9
ATOM      9  C   UNL     1       3.085   5.194  18.820  0.00  0.00    +0.000 A 
ATOM     10  C   UNL     1       4.474   5.115  18.892  0.00  0.00    +0.000 A 
ATOM     11  F   UNL     1       5.166   5.802  19.813  0.00  0.00    +0.000 F 
ATOM     12  C   UNL     1       5.196   4.299  18.013  0.00  0.00    +0.000 A 
ATOM     13  C   UNL     1       4.525   3.530  17.062  0.00  0.00    +0.000 A 
ATOM     14  C   UNL     1       3.142   3.638  16.951  0.00  0.00    +0.000 A 
ATOM     15  C   UNL     1       2.445   4.506  17.788  0.00  0.00    +0.000 A 
ATOM     16  F   UNL     1       1.131   4.646  17.567  0.00  0.00    +0.000 F 
ENDBRANCH   2   9
BRANCH   6  17
ATOM     17  C   UNL     1       1.323  11.370  18.759  0.00  0.00    +0.000 A 
ATOM     18  C   UNL     1       2.504  11.848  18.179  0.00  0.00    +0.000 A 
ATOM     19  C   UNL     1       2.789  13.218  18.102  0.00  0.00    +0.000 A 
ATOM     20  C   UNL     1       1.883  14.149  18.598  0.00  0.00    +0.000 A 
ATOM     21  C   UNL     1       0.683  13.720  19.161  0.00  0.00    +0.000 A 
ATOM     22  C   UNL     1       0.417  12.334  19.232  0.00  0.00    +0.000 A 
BRANCH  21  23
ATOM     23  C   UNL     1      -0.323  14.693  19.716  0.00  0.00    +0.000 C 
ATOM     24  F   UNL     1      -0.682  15.671  18.838  0.00  0.00    +0.000 F 
ATOM     25  F   UNL     1      -1.484  14.088  20.094  0.00  0.00    +0.000 F 
ATOM     26  F   UNL     1       0.131  15.343  20.827  0.00  0.00    +0.000 F 
ENDBRANCH  21  23
ENDBRANCH   6  17
TORSDOF 3
ENDMDL
