MODEL 1
REMARK VINA RESULT:      -8.9      0.000      0.000
REMARK  Name = 
REMARK  5 active torsions:
REMARK  status: ('A' for Active; 'I' for Inactive)
REMARK    1  A    between atoms: C_1  and  C_2
REMARK    2  A    between atoms: C_7  and  C_8
REMARK    3  A    between atoms: C_13  and  C_14
REMARK    4  A    between atoms: N_18  and  N_19
REMARK    5  A    between atoms: C_20  and  C_22
REMARK                            x       y       z     vdW  Elec       q    Type
REMARK                         _______ _______ _______ _____ _____    ______ ____
ROOT
ATOM      1  C   UNL     1       6.020   3.892  16.069  0.00  0.00    +0.000 C 
ATOM      2  C   UNL     1       5.174   4.782  16.944  0.00  0.00    +0.000 C 
ATOM      3  C   UNL     1       3.896   4.654  17.422  0.00  0.00    +0.000 C 
ATOM      4  C   UNL     1       3.208   3.374  17.114  0.00  0.00    +0.000 C 
ATOM      5  O   UNL     1       3.645   2.370  16.586  0.00  0.00    +0.000 OA
ATOM      6  O   UNL     1       1.949   3.496  17.531  0.00  0.00    +0.000 OA
ATOM      7  C   UNL     1       1.897   4.569  18.455  0.00  0.00    +0.000 C 
ATOM      8  C   UNL     1       2.861   5.761  18.033  0.00  0.00    +0.000 C 
ATOM      9  C   UNL     1       2.174   6.583  19.311  0.00  0.00    +0.000 C 
ATOM     10  C   UNL     1       3.902   6.957  18.060  0.00  0.00    +0.000 C 
ATOM     11  C   UNL     1       5.289   6.609  18.578  0.00  0.00    +0.000 C 
ATOM     12  C   UNL     1       5.874   6.053  17.327  0.00  0.00    +0.000 C 
ATOM     13  N   UNL     1       6.763   6.635  16.573  0.00  0.00    +0.000 NA
ENDROOT
BRANCH   7  14
ATOM     14  C   UNL     1       1.871   3.999  19.873  0.00  0.00    +0.000 A 
ATOM     15  C   UNL     1       0.960   2.985  20.324  0.00  0.00    +0.000 A 
ATOM     16  C   UNL     1       1.220   2.777  21.655  0.00  0.00    +0.000 A 
ATOM     17  O   UNL     1       2.221   3.593  22.066  0.00  0.00    +0.000 OA
ATOM     18  C   UNL     1       2.620   4.321  20.987  0.00  0.00    +0.000 A 
ENDBRANCH   7  14
BRANCH  13  19
ATOM     19  N   UNL     1       7.183   7.897  16.919  0.00  0.00    +0.000 N 
ATOM     20  C   UNL     1       8.049   8.125  17.978  0.00  0.00    +0.000 C 
ATOM     21  O   UNL     1       8.545   7.267  18.700  0.00  0.00    +0.000 OA
ATOM     22  H   UNL     1       7.066   8.646  16.254  0.00  0.00    +0.000 HD
BRANCH  20  23
ATOM     23  C   UNL     1       8.405   9.567  18.191  0.00  0.00    +0.000 A 
ATOM     24  C   UNL     1       7.871  10.586  17.379  0.00  0.00    +0.000 A 
ATOM     25  C   UNL     1       8.210  11.924  17.608  0.00  0.00    +0.000 A 
ATOM     26  C   UNL     1       9.065  12.257  18.656  0.00  0.00    +0.000 A 
ATOM     27  C   UNL     1       9.582  11.250  19.474  0.00  0.00    +0.000 A 
ATOM     28 CL   UNL     1      10.626  11.675  20.775  0.00  0.00    +0.000 Cl
ATOM     29  C   UNL     1       9.257   9.914  19.250  0.00  0.00    +0.000 A 
ENDBRANCH  20  23
ENDBRANCH  13  19
TORSDOF 3
ENDMDL
MODEL 2
REMARK VINA RESULT:      -8.7      1.108      1.434
REMARK  Name = 
REMARK  5 active torsions:
REMARK  status: ('A' for Active; 'I' for Inactive)
REMARK    1  A    between atoms: C_1  and  C_2
REMARK    2  A    between atoms: C_7  and  C_8
REMARK    3  A    between atoms: C_13  and  C_14
REMARK    4  A    between atoms: N_18  and  N_19
REMARK    5  A    between atoms: C_20  and  C_22
REMARK                            x       y       z     vdW  Elec       q    Type
REMARK                         _______ _______ _______ _____ _____    ______ ____
ROOT
ATOM      1  C   UNL     1       5.266   4.070  15.590  0.00  0.00    +0.000 C 
ATOM      2  C   UNL     1       4.651   4.814  16.748  0.00  0.00    +0.000 C 
ATOM      3  C   UNL     1       3.476   4.640  17.433  0.00  0.00    +0.000 C 
ATOM      4  C   UNL     1       2.665   3.455  17.048  0.00  0.00    +0.000 C 
ATOM      5  O   UNL     1       2.935   2.549  16.284  0.00  0.00    +0.000 OA
ATOM      6  O   UNL     1       1.514   3.538  17.713  0.00  0.00    +0.000 OA
ATOM      7  C   UNL     1       1.698   4.429  18.797  0.00  0.00    +0.000 C 
ATOM      8  C   UNL     1       2.641   5.649  18.409  0.00  0.00    +0.000 C 
ATOM      9  C   UNL     1       2.251   6.250  19.915  0.00  0.00    +0.000 C 
ATOM     10  C   UNL     1       3.741   6.791  18.439  0.00  0.00    +0.000 C 
ATOM     11  C   UNL     1       5.176   6.316  18.616  0.00  0.00    +0.000 C 
ATOM     12  C   UNL     1       5.487   5.975  17.201  0.00  0.00    +0.000 C 
ATOM     13  N   UNL     1       6.257   6.657  16.401  0.00  0.00    +0.000 NA
ENDROOT
BRANCH   7  14
ATOM     14  C   UNL     1       1.896   3.617  20.077  0.00  0.00    +0.000 A 
ATOM     15  C   UNL     1       0.828   3.079  20.871  0.00  0.00    +0.000 A 
ATOM     16  C   UNL     1       1.405   2.459  21.951  0.00  0.00    +0.000 A 
ATOM     17  O   UNL     1       2.753   2.578  21.889  0.00  0.00    +0.000 OA
ATOM     18  C   UNL     1       3.048   3.267  20.753  0.00  0.00    +0.000 A 
ENDBRANCH   7  14
BRANCH  13  19
ATOM     19  N   UNL     1       6.810   7.824  16.869  0.00  0.00    +0.000 N 
ATOM     20  C   UNL     1       7.811   7.836  17.830  0.00  0.00    +0.000 C 
ATOM     21  O   UNL     1       8.322   6.850  18.350  0.00  0.00    +0.000 OA
ATOM     22  H   UNL     1       6.673   8.671  16.341  0.00  0.00    +0.000 HD
BRANCH  20  23
ATOM     23  C   UNL     1       8.299   9.205  18.202  0.00  0.00    +0.000 A 
ATOM     24  C   UNL     1       9.263   9.397  19.210  0.00  0.00    +0.000 A 
ATOM     25  C   UNL     1       9.708  10.684  19.528  0.00  0.00    +0.000 A 
ATOM     26  C   UNL     1       9.213  11.785  18.832  0.00  0.00    +0.000 A 
ATOM     27  C   UNL     1       8.271  11.596  17.819  0.00  0.00    +0.000 A 
ATOM     28 CL   UNL     1       7.678  12.962  16.957  0.00  0.00    +0.000 Cl
ATOM     29  C   UNL     1       7.815  10.319  17.500  0.00  0.00    +0.000 A 
ENDBRANCH  20  23
ENDBRANCH  13  19
TORSDOF 3
ENDMDL
MODEL 3
REMARK VINA RESULT:      -8.6      6.540      9.060
REMARK  Name = 
REMARK  5 active torsions:
REMARK  status: ('A' for Active; 'I' for Inactive)
REMARK    1  A    between atoms: C_1  and  C_2
REMARK    2  A    between atoms: C_7  and  C_8
REMARK    3  A    between atoms: C_13  and  C_14
REMARK    4  A    between atoms: N_18  and  N_19
REMARK    5  A    between atoms: C_20  and  C_22
REMARK                            x       y       z     vdW  Elec       q    Type
REMARK                         _______ _______ _______ _____ _____    ______ ____
ROOT
ATOM      1  C   UNL     1       1.631  12.104  18.528  0.00  0.00    +0.000 C 
ATOM      2  C   UNL     1       0.964  11.362  19.659  0.00  0.00    +0.000 C 
ATOM      3  C   UNL     1       0.374  11.793  20.819  0.00  0.00    +0.000 C 
ATOM      4  C   UNL     1       0.278  13.265  20.996  0.00  0.00    +0.000 C 
ATOM      5  O   UNL     1       0.550  14.156  20.216  0.00  0.00    +0.000 OA
ATOM      6  O   UNL     1      -0.185  13.481  22.226  0.00  0.00    +0.000 OA
ATOM      7  C   UNL     1      -0.790  12.285  22.682  0.00  0.00    +0.000 C 
ATOM      8  C   UNL     1       0.005  10.996  22.197  0.00  0.00    +0.000 C 
ATOM      9  C   UNL     1      -1.055  10.148  23.165  0.00  0.00    +0.000 C 
ATOM     10  C   UNL     1       0.376   9.553  21.653  0.00  0.00    +0.000 C 
ATOM     11  C   UNL     1      -0.110   9.236  20.247  0.00  0.00    +0.000 C 
ATOM     12  C   UNL     1       0.987   9.874  19.469  0.00  0.00    +0.000 C 
ATOM     13  N   UNL     1       1.933   9.249  18.827  0.00  0.00    +0.000 NA
ENDROOT
BRANCH   7  14
ATOM     14  C   UNL     1      -2.306  12.413  22.540  0.00  0.00    +0.000 A 
ATOM     15  C   UNL     1      -2.989  12.642  21.298  0.00  0.00    +0.000 A 
ATOM     16  C   UNL     1      -4.327  12.741  21.589  0.00  0.00    +0.000 A 
ATOM     17  O   UNL     1      -4.524  12.597  22.922  0.00  0.00    +0.000 OA
ATOM     18  C   UNL     1      -3.306  12.388  23.492  0.00  0.00    +0.000 A 
ENDBRANCH   7  14
BRANCH  13  19
ATOM     19  N   UNL     1       1.969   7.878  18.895  0.00  0.00    +0.000 N 
ATOM     20  C   UNL     1       2.885   7.124  18.175  0.00  0.00    +0.000 C 
ATOM     21  O   UNL     1       3.754   7.566  17.432  0.00  0.00    +0.000 OA
ATOM     22  H   UNL     1       1.498   7.417  19.658  0.00  0.00    +0.000 HD
BRANCH  20  23
ATOM     23  C   UNL     1       2.779   5.643  18.393  0.00  0.00    +0.000 A 
ATOM     24  C   UNL     1       3.350   4.723  17.493  0.00  0.00    +0.000 A 
ATOM     25  C   UNL     1       3.247   3.347  17.728  0.00  0.00    +0.000 A 
ATOM     26  C   UNL     1       2.593   2.882  18.866  0.00  0.00    +0.000 A 
ATOM     27  C   UNL     1       2.042   3.793  19.769  0.00  0.00    +0.000 A 
ATOM     28 CL   UNL     1       1.248   3.205  21.179  0.00  0.00    +0.000 Cl
ATOM     29  C   UNL     1       2.132   5.164  19.541  0.00  0.00    +0.000 A 
ENDBRANCH  20  23
ENDBRANCH  13  19
TORSDOF 3
ENDMDL
MODEL 4
REMARK VINA RESULT:      -8.5      6.629      9.336
REMARK  Name = 
REMARK  5 active torsions:
REMARK  status: ('A' for Active; 'I' for Inactive)
REMARK    1  A    between atoms: C_1  and  C_2
REMARK    2  A    between atoms: C_7  and  C_8
REMARK    3  A    between atoms: C_13  and  C_14
REMARK    4  A    between atoms: N_18  and  N_19
REMARK    5  A    between atoms: C_20  and  C_22
REMARK                            x       y       z     vdW  Elec       q    Type
REMARK                         _______ _______ _______ _____ _____    ______ ____
ROOT
ATOM      1  C   UNL     1       1.845  11.642  18.412  0.00  0.00    +0.000 C 
ATOM      2  C   UNL     1       1.062  11.170  19.612  0.00  0.00    +0.000 C 
ATOM      3  C   UNL     1       0.448  11.849  20.632  0.00  0.00    +0.000 C 
ATOM      4  C   UNL     1       0.460  13.331  20.532  0.00  0.00    +0.000 C 
ATOM      5  O   UNL     1       0.844  14.041  19.623  0.00  0.00    +0.000 OA
ATOM      6  O   UNL     1      -0.048  13.804  21.669  0.00  0.00    +0.000 OA
ATOM      7  C   UNL     1      -0.771  12.758  22.293  0.00  0.00    +0.000 C 
ATOM      8  C   UNL     1      -0.057  11.350  22.104  0.00  0.00    +0.000 C 
ATOM      9  C   UNL     1      -1.232  10.771  23.137  0.00  0.00    +0.000 C 
ATOM     10  C   UNL     1       0.225   9.809  21.856  0.00  0.00    +0.000 C 
ATOM     11  C   UNL     1      -0.210   9.270  20.502  0.00  0.00    +0.000 C 
ATOM     12  C   UNL     1       0.975   9.675  19.697  0.00  0.00    +0.000 C 
ATOM     13  N   UNL     1       1.901   8.878  19.244  0.00  0.00    +0.000 NA
ENDROOT
BRANCH   7  14
ATOM     14  C   UNL     1      -2.262  12.962  22.029  0.00  0.00    +0.000 A 
ATOM     15  C   UNL     1      -2.930  12.593  20.812  0.00  0.00    +0.000 A 
ATOM     16  C   UNL     1      -4.241  12.975  20.943  0.00  0.00    +0.000 A 
ATOM     17  O   UNL     1      -4.436  13.561  22.149  0.00  0.00    +0.000 OA
ATOM     18  C   UNL     1      -3.244  13.542  22.807  0.00  0.00    +0.000 A 
ENDBRANCH   7  14
BRANCH  13  19
ATOM     19  N   UNL     1       1.823   7.544  19.562  0.00  0.00    +0.000 N 
ATOM     20  C   UNL     1       2.563   6.579  18.893  0.00  0.00    +0.000 C 
ATOM     21  O   UNL     1       3.359   6.784  17.984  0.00  0.00    +0.000 OA
ATOM     22  H   UNL     1       1.420   7.279  20.447  0.00  0.00    +0.000 HD
BRANCH  20  23
ATOM     23  C   UNL     1       2.355   5.179  19.393  0.00  0.00    +0.000 A 
ATOM     24  C   UNL     1       1.552   4.909  20.518  0.00  0.00    +0.000 A 
ATOM     25  C   UNL     1       1.366   3.593  20.955  0.00  0.00    +0.000 A 
ATOM     26  C   UNL     1       1.960   2.539  20.265  0.00  0.00    +0.000 A 
ATOM     27  C   UNL     1       2.741   2.803  19.138  0.00  0.00    +0.000 A 
ATOM     28 CL   UNL     1       3.457   1.490  18.285  0.00  0.00    +0.000 Cl
ATOM     29  C   UNL     1       2.940   4.110  18.699  0.00  0.00    +0.000 A 
ENDBRANCH  20  23
ENDBRANCH  13  19
TORSDOF 3
ENDMDL
MODEL 5
REMARK VINA RESULT:      -8.4      6.179      9.057
REMARK  Name = 
REMARK  5 active torsions:
REMARK  status: ('A' for Active; 'I' for Inactive)
REMARK    1  A    between atoms: C_1  and  C_2
REMARK    2  A    between atoms: C_7  and  C_8
REMARK    3  A    between atoms: C_13  and  C_14
REMARK    4  A    between atoms: N_18  and  N_19
REMARK    5  A    between atoms: C_20  and  C_22
REMARK                            x       y       z     vdW  Elec       q    Type
REMARK                         _______ _______ _______ _____ _____    ______ ____
ROOT
ATOM      1  C   UNL     1       0.254   9.391  23.375  0.00  0.00    +0.000 C 
ATOM      2  C   UNL     1       0.151   9.880  21.953  0.00  0.00    +0.000 C 
ATOM      3  C   UNL     1      -0.594  10.876  21.375  0.00  0.00    +0.000 C 
ATOM      4  C   UNL     1      -1.402  11.709  22.302  0.00  0.00    +0.000 C 
ATOM      5  O   UNL     1      -1.425  11.712  23.518  0.00  0.00    +0.000 OA
ATOM      6  O   UNL     1      -2.153  12.513  21.551  0.00  0.00    +0.000 OA
ATOM      7  C   UNL     1      -1.582  12.561  20.256  0.00  0.00    +0.000 C 
ATOM      8  C   UNL     1      -0.994  11.152  19.815  0.00  0.00    +0.000 C 
ATOM      9  C   UNL     1      -0.733  11.879  18.337  0.00  0.00    +0.000 C 
ATOM     10  C   UNL     1      -0.076  10.009  19.209  0.00  0.00    +0.000 C 
ATOM     11  C   UNL     1       1.323   9.909  19.797  0.00  0.00    +0.000 C 
ATOM     12  C   UNL     1       1.013   9.097  21.006  0.00  0.00    +0.000 C 
ATOM     13  N   UNL     1       1.308   7.840  21.180  0.00  0.00    +0.000 NA
ENDROOT
BRANCH   7  14
ATOM     14  C   UNL     1      -0.789  13.860  20.114  0.00  0.00    +0.000 A 
ATOM     15  C   UNL     1       0.630  13.969  20.296  0.00  0.00    +0.000 A 
ATOM     16  C   UNL     1       0.956  15.292  20.130  0.00  0.00    +0.000 A 
ATOM     17  O   UNL     1      -0.160  16.014  19.864  0.00  0.00    +0.000 OA
ATOM     18  C   UNL     1      -1.209  15.147  19.845  0.00  0.00    +0.000 A 
ENDBRANCH   7  14
BRANCH  13  19
ATOM     19  N   UNL     1       1.922   7.168  20.151  0.00  0.00    +0.000 N 
ATOM     20  C   UNL     1       2.190   5.808  20.212  0.00  0.00    +0.000 C 
ATOM     21  O   UNL     1       1.911   5.060  21.142  0.00  0.00    +0.000 OA
ATOM     22  H   UNL     1       1.958   7.601  19.242  0.00  0.00    +0.000 HD
BRANCH  20  23
ATOM     23  C   UNL     1       2.851   5.250  18.986  0.00  0.00    +0.000 A 
ATOM     24  C   UNL     1       2.568   3.952  18.521  0.00  0.00    +0.000 A 
ATOM     25  C   UNL     1       3.190   3.462  17.367  0.00  0.00    +0.000 A 
ATOM     26  C   UNL     1       4.081   4.267  16.660  0.00  0.00    +0.000 A 
ATOM     27  C   UNL     1       4.349   5.562  17.109  0.00  0.00    +0.000 A 
ATOM     28 CL   UNL     1       5.440   6.552  16.218  0.00  0.00    +0.000 Cl
ATOM     29  C   UNL     1       3.741   6.056  18.260  0.00  0.00    +0.000 A 
ENDBRANCH  20  23
ENDBRANCH  13  19
TORSDOF 3
ENDMDL
MODEL 6
REMARK VINA RESULT:      -8.2      4.477      6.973
REMARK  Name = 
REMARK  5 active torsions:
REMARK  status: ('A' for Active; 'I' for Inactive)
REMARK    1  A    between atoms: C_1  and  C_2
REMARK    2  A    between atoms: C_7  and  C_8
REMARK    3  A    between atoms: C_13  and  C_14
REMARK    4  A    between atoms: N_18  and  N_19
REMARK    5  A    between atoms: C_20  and  C_22
REMARK                            x       y       z     vdW  Elec       q    Type
REMARK                         _______ _______ _______ _____ _____    ______ ____
ROOT
ATOM      1  C   UNL     1       2.843   4.345  20.643  0.00  0.00    +0.000 C 
ATOM      2  C   UNL     1       3.416   5.263  19.594  0.00  0.00    +0.000 C 
ATOM      3  C   UNL     1       4.576   5.215  18.865  0.00  0.00    +0.000 C 
ATOM      4  C   UNL     1       5.416   4.003  19.053  0.00  0.00    +0.000 C 
ATOM      5  O   UNL     1       5.180   2.990  19.681  0.00  0.00    +0.000 OA
ATOM      6  O   UNL     1       6.548   4.206  18.382  0.00  0.00    +0.000 OA
ATOM      7  C   UNL     1       6.323   5.243  17.445  0.00  0.00    +0.000 C 
ATOM      8  C   UNL     1       5.370   6.373  18.030  0.00  0.00    +0.000 C 
ATOM      9  C   UNL     1       5.711   7.197  16.621  0.00  0.00    +0.000 C 
ATOM     10  C   UNL     1       4.250   7.484  18.192  0.00  0.00    +0.000 C 
ATOM     11  C   UNL     1       2.819   7.012  17.980  0.00  0.00    +0.000 C 
ATOM     12  C   UNL     1       2.550   6.461  19.336  0.00  0.00    +0.000 C 
ATOM     13  N   UNL     1       1.788   7.002  20.244  0.00  0.00    +0.000 NA
ENDROOT
BRANCH   7  14
ATOM     14  C   UNL     1       6.106   4.623  16.065  0.00  0.00    +0.000 A 
ATOM     15  C   UNL     1       7.083   4.622  15.013  0.00  0.00    +0.000 A 
ATOM     16  C   UNL     1       6.502   4.017  13.927  0.00  0.00    +0.000 A 
ATOM     17  O   UNL     1       5.232   3.649  14.225  0.00  0.00    +0.000 OA
ATOM     18  C   UNL     1       4.999   4.006  15.518  0.00  0.00    +0.000 A 
ENDBRANCH   7  14
BRANCH  13  19
ATOM     19  N   UNL     1       1.204   8.214  19.965  0.00  0.00    +0.000 N 
ATOM     20  C   UNL     1       1.000   9.179  20.940  0.00  0.00    +0.000 C 
ATOM     21  O   UNL     1       1.317   9.088  22.121  0.00  0.00    +0.000 OA
ATOM     22  H   UNL     1       1.146   8.515  19.005  0.00  0.00    +0.000 HD
BRANCH  20  23
ATOM     23  C   UNL     1       0.364  10.443  20.441  0.00  0.00    +0.000 A 
ATOM     24  C   UNL     1       0.663  11.695  21.010  0.00  0.00    +0.000 A 
ATOM     25  C   UNL     1       0.064  12.859  20.515  0.00  0.00    +0.000 A 
ATOM     26  C   UNL     1      -0.819  12.785  19.441  0.00  0.00    +0.000 A 
ATOM     27  C   UNL     1      -1.104  11.547  18.862  0.00  0.00    +0.000 A 
ATOM     28 CL   UNL     1      -2.186  11.471  17.526  0.00  0.00    +0.000 Cl
ATOM     29  C   UNL     1      -0.519  10.381  19.352  0.00  0.00    +0.000 A 
ENDBRANCH  20  23
ENDBRANCH  13  19
TORSDOF 3
ENDMDL
MODEL 7
REMARK VINA RESULT:      -8.2      6.572      9.309
REMARK  Name = 
REMARK  5 active torsions:
REMARK  status: ('A' for Active; 'I' for Inactive)
REMARK    1  A    between atoms: C_1  and  C_2
REMARK    2  A    between atoms: C_7  and  C_8
REMARK    3  A    between atoms: C_13  and  C_14
REMARK    4  A    between atoms: N_18  and  N_19
REMARK    5  A    between atoms: C_20  and  C_22
REMARK                            x       y       z     vdW  Elec       q    Type
REMARK                         _______ _______ _______ _____ _____    ______ ____
ROOT
ATOM      1  C   UNL     1      -0.071   9.560  23.388  0.00  0.00    +0.000 C 
ATOM      2  C   UNL     1      -0.060  10.069  21.969  0.00  0.00    +0.000 C 
ATOM      3  C   UNL     1      -0.765  11.065  21.345  0.00  0.00    +0.000 C 
ATOM      4  C   UNL     1      -1.660  11.875  22.212  0.00  0.00    +0.000 C 
ATOM      5  O   UNL     1      -1.785  11.859  23.421  0.00  0.00    +0.000 OA
ATOM      6  O   UNL     1      -2.354  12.681  21.412  0.00  0.00    +0.000 OA
ATOM      7  C   UNL     1      -1.677  12.756  20.171  0.00  0.00    +0.000 C 
ATOM      8  C   UNL     1      -1.036  11.360  19.761  0.00  0.00    +0.000 C 
ATOM      9  C   UNL     1      -0.660  12.113  18.321  0.00  0.00    +0.000 C 
ATOM     10  C   UNL     1      -0.055  10.237  19.218  0.00  0.00    +0.000 C 
ATOM     11  C   UNL     1       1.290  10.144  19.922  0.00  0.00    +0.000 C 
ATOM     12  C   UNL     1       0.889   9.311  21.088  0.00  0.00    +0.000 C 
ATOM     13  N   UNL     1       1.184   8.055  21.268  0.00  0.00    +0.000 NA
ENDROOT
BRANCH   7  14
ATOM     14  C   UNL     1      -0.891  14.066  20.115  0.00  0.00    +0.000 A 
ATOM     15  C   UNL     1       0.525  14.173  20.326  0.00  0.00    +0.000 A 
ATOM     16  C   UNL     1       0.843  15.505  20.239  0.00  0.00    +0.000 A 
ATOM     17  O   UNL     1      -0.273  16.234  19.996  0.00  0.00    +0.000 OA
ATOM     18  C   UNL     1      -1.316  15.364  19.911  0.00  0.00    +0.000 A 
ENDBRANCH   7  14
BRANCH  13  19
ATOM     19  N   UNL     1       1.891   7.405  20.286  0.00  0.00    +0.000 N 
ATOM     20  C   UNL     1       1.989   6.022  20.236  0.00  0.00    +0.000 C 
ATOM     21  O   UNL     1       1.466   5.235  21.016  0.00  0.00    +0.000 OA
ATOM     22  H   UNL     1       2.137   7.912  19.450  0.00  0.00    +0.000 HD
BRANCH  20  23
ATOM     23  C   UNL     1       2.790   5.498  19.080  0.00  0.00    +0.000 A 
ATOM     24  C   UNL     1       3.518   6.358  18.236  0.00  0.00    +0.000 A 
ATOM     25  C   UNL     1       4.267   5.840  17.174  0.00  0.00    +0.000 A 
ATOM     26  C   UNL     1       4.311   4.464  16.958  0.00  0.00    +0.000 A 
ATOM     27  C   UNL     1       3.605   3.608  17.804  0.00  0.00    +0.000 A 
ATOM     28 CL   UNL     1       3.679   1.909  17.536  0.00  0.00    +0.000 Cl
ATOM     29  C   UNL     1       2.850   4.114  18.860  0.00  0.00    +0.000 A 
ENDBRANCH  20  23
ENDBRANCH  13  19
TORSDOF 3
ENDMDL
MODEL 8
REMARK VINA RESULT:      -8.2      4.377      7.004
REMARK  Name = 
REMARK  5 active torsions:
REMARK  status: ('A' for Active; 'I' for Inactive)
REMARK    1  A    between atoms: C_1  and  C_2
REMARK    2  A    between atoms: C_7  and  C_8
REMARK    3  A    between atoms: C_13  and  C_14
REMARK    4  A    between atoms: N_18  and  N_19
REMARK    5  A    between atoms: C_20  and  C_22
REMARK                            x       y       z     vdW  Elec       q    Type
REMARK                         _______ _______ _______ _____ _____    ______ ____
ROOT
ATOM      1  C   UNL     1       2.668   3.814  20.858  0.00  0.00    +0.000 C 
ATOM      2  C   UNL     1       3.177   4.849  19.888  0.00  0.00    +0.000 C 
ATOM      3  C   UNL     1       4.336   4.936  19.161  0.00  0.00    +0.000 C 
ATOM      4  C   UNL     1       5.255   3.772  19.255  0.00  0.00    +0.000 C 
ATOM      5  O   UNL     1       5.088   2.698  19.799  0.00  0.00    +0.000 OA
ATOM      6  O   UNL     1       6.371   4.101  18.606  0.00  0.00    +0.000 OA
ATOM      7  C   UNL     1       6.075   5.193  17.754  0.00  0.00    +0.000 C 
ATOM      8  C   UNL     1       5.050   6.207  18.424  0.00  0.00    +0.000 C 
ATOM      9  C   UNL     1       5.333   7.161  17.085  0.00  0.00    +0.000 C 
ATOM     10  C   UNL     1       3.859   7.225  18.670  0.00  0.00    +0.000 C 
ATOM     11  C   UNL     1       2.463   6.677  18.415  0.00  0.00    +0.000 C 
ATOM     12  C   UNL     1       2.233   6.003  19.722  0.00  0.00    +0.000 C 
ATOM     13  N   UNL     1       1.439   6.419  20.668  0.00  0.00    +0.000 NA
ENDROOT
BRANCH   7  14
ATOM     14  C   UNL     1       5.897   4.672  16.328  0.00  0.00    +0.000 A 
ATOM     15  C   UNL     1       6.957   4.563  15.365  0.00  0.00    +0.000 A 
ATOM     16  C   UNL     1       6.395   4.102  14.201  0.00  0.00    +0.000 A 
ATOM     17  O   UNL     1       5.063   3.922  14.369  0.00  0.00    +0.000 OA
ATOM     18  C   UNL     1       4.766   4.256  15.654  0.00  0.00    +0.000 A 
ENDBRANCH   7  14
BRANCH  13  19
ATOM     19  N   UNL     1       0.775   7.607  20.485  0.00  0.00    +0.000 N 
ATOM     20  C   UNL     1       0.961   8.696  21.325  0.00  0.00    +0.000 C 
ATOM     21  O   UNL     1       1.720   8.742  22.286  0.00  0.00    +0.000 OA
ATOM     22  H   UNL     1       0.337   7.786  19.595  0.00  0.00    +0.000 HD
BRANCH  20  23
ATOM     23  C   UNL     1       0.161   9.910  20.954  0.00  0.00    +0.000 A 
ATOM     24  C   UNL     1      -0.220  10.165  19.623  0.00  0.00    +0.000 A 
ATOM     25  C   UNL     1      -0.977  11.298  19.308  0.00  0.00    +0.000 A 
ATOM     26  C   UNL     1      -1.375  12.173  20.317  0.00  0.00    +0.000 A 
ATOM     27  C   UNL     1      -1.013  11.914  21.640  0.00  0.00    +0.000 A 
ATOM     28 CL   UNL     1      -1.523  12.995  22.879  0.00  0.00    +0.000 Cl
ATOM     29  C   UNL     1      -0.253  10.792  21.963  0.00  0.00    +0.000 A 
ENDBRANCH  20  23
ENDBRANCH  13  19
TORSDOF 3
ENDMDL
MODEL 9
REMARK VINA RESULT:      -8.2      7.343      9.606
REMARK  Name = 
REMARK  5 active torsions:
REMARK  status: ('A' for Active; 'I' for Inactive)
REMARK    1  A    between atoms: C_1  and  C_2
REMARK    2  A    between atoms: C_7  and  C_8
REMARK    3  A    between atoms: C_13  and  C_14
REMARK    4  A    between atoms: N_18  and  N_19
REMARK    5  A    between atoms: C_20  and  C_22
REMARK                            x       y       z     vdW  Elec       q    Type
REMARK                         _______ _______ _______ _____ _____    ______ ____
ROOT
ATOM      1  C   UNL     1       0.294  13.094  18.361  0.00  0.00    +0.000 C 
ATOM      2  C   UNL     1      -0.136  12.384  19.620  0.00  0.00    +0.000 C 
ATOM      3  C   UNL     1      -0.745  12.830  20.764  0.00  0.00    +0.000 C 
ATOM      4  C   UNL     1      -1.151  14.260  20.774  0.00  0.00    +0.000 C 
ATOM      5  O   UNL     1      -1.121  15.078  19.875  0.00  0.00    +0.000 OA
ATOM      6  O   UNL     1      -1.586  14.534  22.002  0.00  0.00    +0.000 OA
ATOM      7  C   UNL     1      -1.892  13.308  22.642  0.00  0.00    +0.000 C 
ATOM      8  C   UNL     1      -0.860  12.163  22.251  0.00  0.00    +0.000 C 
ATOM      9  C   UNL     1      -1.659  11.246  23.393  0.00  0.00    +0.000 C 
ATOM     10  C   UNL     1      -0.212  10.771  21.853  0.00  0.00    +0.000 C 
ATOM     11  C   UNL     1      -0.689  10.176  20.536  0.00  0.00    +0.000 C 
ATOM     12  C   UNL     1       0.202  10.923  19.606  0.00  0.00    +0.000 C 
ATOM     13  N   UNL     1       1.227  10.431  18.969  0.00  0.00    +0.000 NA
ENDROOT
BRANCH   7  14
ATOM     14  C   UNL     1      -3.405  13.095  22.606  0.00  0.00    +0.000 A 
ATOM     15  C   UNL     1      -4.294  13.399  23.690  0.00  0.00    +0.000 A 
ATOM     16  C   UNL     1      -5.554  13.029  23.292  0.00  0.00    +0.000 A 
ATOM     17  O   UNL     1      -5.511  12.511  22.040  0.00  0.00    +0.000 OA
ATOM     18  C   UNL     1      -4.216  12.561  21.624  0.00  0.00    +0.000 A 
ENDBRANCH   7  14
BRANCH  13  19
ATOM     19  N   UNL     1       1.565   9.119  19.195  0.00  0.00    +0.000 N 
ATOM     20  C   UNL     1       2.232   8.353  18.250  0.00  0.00    +0.000 C 
ATOM     21  O   UNL     1       2.606   8.735  17.147  0.00  0.00    +0.000 OA
ATOM     22  H   UNL     1       1.557   8.772  20.142  0.00  0.00    +0.000 HD
BRANCH  20  23
ATOM     23  C   UNL     1       2.528   6.948  18.686  0.00  0.00    +0.000 A 
ATOM     24  C   UNL     1       2.135   6.469  19.950  0.00  0.00    +0.000 A 
ATOM     25  C   UNL     1       2.413   5.150  20.325  0.00  0.00    +0.000 A 
ATOM     26  C   UNL     1       3.065   4.296  19.438  0.00  0.00    +0.000 A 
ATOM     27  C   UNL     1       3.440   4.763  18.177  0.00  0.00    +0.000 A 
ATOM     28 CL   UNL     1       4.231   3.694  17.085  0.00  0.00    +0.000 Cl
ATOM     29  C   UNL     1       3.175   6.077  17.796  0.00  0.00    +0.000 A 
ENDBRANCH  20  23
ENDBRANCH  13  19
TORSDOF 3
ENDMDL
