MODEL 1
REMARK VINA RESULT:      -4.9      0.000      0.000
REMARK  Name = 
REMARK  7 active torsions:
REMARK  status: ('A' for Active; 'I' for Inactive)
REMARK    1  A    between atoms: C_1  and  N_2
REMARK    2  A    between atoms: N_2  and  C_3
REMARK    3  A    between atoms: N_2  and  C_4
REMARK    4  A    between atoms: C_4  and  C_5
REMARK    5  A    between atoms: C_5  and  C_6
REMARK    6  A    between atoms: C_6  and  O_7
REMARK    7  A    between atoms: C_6  and  C_8
REMARK                            x       y       z     vdW  Elec       q    Type
REMARK                         _______ _______ _______ _____ _____    ______ ____
ROOT
ATOM      1  C   UNL     1       4.421   4.120  19.074  0.00  0.00    +0.000 C 
ENDROOT
BRANCH   1   2
ATOM      2  C   UNL     1       3.105   3.857  19.754  0.00  0.00    +0.000 A 
ATOM      3  C   UNL     1       1.901   4.499  19.528  0.00  0.00    +0.000 A 
ATOM      4  C   UNL     1       0.841   3.968  20.315  0.00  0.00    +0.000 A 
ATOM      5  C   UNL     1       1.269   2.946  21.131  0.00  0.00    +0.000 A 
ATOM      6  S   UNL     1       2.941   2.641  20.956  0.00  0.00    +0.000 S 
ENDBRANCH   1   2
BRANCH   1   7
ATOM      7  O   UNL     1       5.295   3.037  19.399  0.00  0.00    +0.000 OA
ATOM      8  H   UNL     1       5.467   2.562  18.567  0.00  0.00    +0.000 HD
ENDBRANCH   1   7
BRANCH   1   9
ATOM      9  C   UNL     1       4.336   4.272  17.553  0.00  0.00    +0.000 C 
BRANCH   9  10
ATOM     10  C   UNL     1       5.193   5.428  17.024  0.00  0.00    +0.000 C 
BRANCH  10  12
ATOM     11  C   UNL     1       7.466   4.644  17.093  0.00  0.00    +0.000 C 
ATOM     12  N   UNL     1       6.345   4.990  16.213  0.00  0.00    +0.000 NA
ATOM     13  C   UNL     1       6.027   3.849  15.353  0.00  0.00    +0.000 C 
ENDBRANCH  10  12
ENDBRANCH   9  10
ENDBRANCH   1   9
TORSDOF 5
ENDMDL
MODEL 2
REMARK VINA RESULT:      -4.9      1.402      1.824
REMARK  Name = 
REMARK  7 active torsions:
REMARK  status: ('A' for Active; 'I' for Inactive)
REMARK    1  A    between atoms: C_1  and  N_2
REMARK    2  A    between atoms: N_2  and  C_3
REMARK    3  A    between atoms: N_2  and  C_4
REMARK    4  A    between atoms: C_4  and  C_5
REMARK    5  A    between atoms: C_5  and  C_6
REMARK    6  A    between atoms: C_6  and  O_7
REMARK    7  A    between atoms: C_6  and  C_8
REMARK                            x       y       z     vdW  Elec       q    Type
REMARK                         _______ _______ _______ _____ _____    ______ ____
ROOT
ATOM      1  C   UNL     1       4.388   4.140  19.099  0.00  0.00    +0.000 C 
ENDROOT
BRANCH   1   2
ATOM      2  C   UNL     1       3.000   3.673  19.443  0.00  0.00    +0.000 A 
ATOM      3  C   UNL     1       2.325   3.861  20.636  0.00  0.00    +0.000 A 
ATOM      4  C   UNL     1       1.005   3.328  20.607  0.00  0.00    +0.000 A 
ATOM      5  C   UNL     1       0.717   2.736  19.399  0.00  0.00    +0.000 A 
ATOM      6  S   UNL     1       2.035   2.812  18.315  0.00  0.00    +0.000 S 
ENDBRANCH   1   2
BRANCH   1   7
ATOM      7  O   UNL     1       5.250   3.002  19.165  0.00  0.00    +0.000 OA
ATOM      8  H   UNL     1       5.727   2.968  18.316  0.00  0.00    +0.000 HD
ENDBRANCH   1   7
BRANCH   1   9
ATOM      9  C   UNL     1       4.519   4.804  17.726  0.00  0.00    +0.000 C 
BRANCH   9  10
ATOM     10  C   UNL     1       5.633   5.857  17.680  0.00  0.00    +0.000 C 
BRANCH  10  12
ATOM     11  C   UNL     1       7.595   4.563  17.169  0.00  0.00    +0.000 C 
ATOM     12  N   UNL     1       6.928   5.373  18.194  0.00  0.00    +0.000 NA
ATOM     13  C   UNL     1       7.811   6.464  18.609  0.00  0.00    +0.000 C 
ENDBRANCH  10  12
ENDBRANCH   9  10
ENDBRANCH   1   9
TORSDOF 5
ENDMDL
MODEL 3
REMARK VINA RESULT:      -4.9      1.098      1.542
REMARK  Name = 
REMARK  7 active torsions:
REMARK  status: ('A' for Active; 'I' for Inactive)
REMARK    1  A    between atoms: C_1  and  N_2
REMARK    2  A    between atoms: N_2  and  C_3
REMARK    3  A    between atoms: N_2  and  C_4
REMARK    4  A    between atoms: C_4  and  C_5
REMARK    5  A    between atoms: C_5  and  C_6
REMARK    6  A    between atoms: C_6  and  O_7
REMARK    7  A    between atoms: C_6  and  C_8
REMARK                            x       y       z     vdW  Elec       q    Type
REMARK                         _______ _______ _______ _____ _____    ______ ____
ROOT
ATOM      1  C   UNL     1       4.596   4.445  19.146  0.00  0.00    +0.000 C 
ENDROOT
BRANCH   1   2
ATOM      2  C   UNL     1       3.231   3.947  19.539  0.00  0.00    +0.000 A 
ATOM      3  C   UNL     1       2.631   2.760  19.158  0.00  0.00    +0.000 A 
ATOM      4  C   UNL     1       1.349   2.581  19.752  0.00  0.00    +0.000 A 
ATOM      5  C   UNL     1       1.003   3.641  20.556  0.00  0.00    +0.000 A 
ATOM      6  S   UNL     1       2.209   4.850  20.583  0.00  0.00    +0.000 S 
ENDBRANCH   1   2
BRANCH   1   7
ATOM      7  O   UNL     1       5.445   3.304  19.014  0.00  0.00    +0.000 OA
ATOM      8  H   UNL     1       5.697   3.254  18.074  0.00  0.00    +0.000 HD
ENDBRANCH   1   7
BRANCH   1   9
ATOM      9  C   UNL     1       4.631   5.263  17.853  0.00  0.00    +0.000 C 
BRANCH   9  10
ATOM     10  C   UNL     1       4.778   4.388  16.603  0.00  0.00    +0.000 C 
BRANCH  10  12
ATOM     11  C   UNL     1       6.202   3.921  14.721  0.00  0.00    +0.000 C 
ATOM     12  N   UNL     1       6.175   4.222  16.156  0.00  0.00    +0.000 NA
ATOM     13  C   UNL     1       6.995   5.404  16.425  0.00  0.00    +0.000 C 
ENDBRANCH  10  12
ENDBRANCH   9  10
ENDBRANCH   1   9
TORSDOF 5
ENDMDL
MODEL 4
REMARK VINA RESULT:      -4.8      1.313      1.734
REMARK  Name = 
REMARK  7 active torsions:
REMARK  status: ('A' for Active; 'I' for Inactive)
REMARK    1  A    between atoms: C_1  and  N_2
REMARK    2  A    between atoms: N_2  and  C_3
REMARK    3  A    between atoms: N_2  and  C_4
REMARK    4  A    between atoms: C_4  and  C_5
REMARK    5  A    between atoms: C_5  and  C_6
REMARK    6  A    between atoms: C_6  and  O_7
REMARK    7  A    between atoms: C_6  and  C_8
REMARK                            x       y       z     vdW  Elec       q    Type
REMARK                         _______ _______ _______ _____ _____    ______ ____
ROOT
ATOM      1  C   UNL     1       4.650   3.397  19.310  0.00  0.00    +0.000 C 
ENDROOT
BRANCH   1   2
ATOM      2  C   UNL     1       3.250   3.447  19.858  0.00  0.00    +0.000 A 
ATOM      3  C   UNL     1       2.761   2.782  20.969  0.00  0.00    +0.000 A 
ATOM      4  C   UNL     1       1.397   3.091  21.234  0.00  0.00    +0.000 A 
ATOM      5  C   UNL     1       0.880   3.969  20.311  0.00  0.00    +0.000 A 
ATOM      6  S   UNL     1       2.029   4.407  19.125  0.00  0.00    +0.000 S 
ENDBRANCH   1   2
BRANCH   1   7
ATOM      7  O   UNL     1       4.601   2.675  18.077  0.00  0.00    +0.000 OA
ATOM      8  H   UNL     1       3.696   2.780  17.732  0.00  0.00    +0.000 HD
ENDBRANCH   1   7
BRANCH   1   9
ATOM      9  C   UNL     1       5.295   4.766  19.076  0.00  0.00    +0.000 C 
BRANCH   9  10
ATOM     10  C   UNL     1       6.389   4.729  18.002  0.00  0.00    +0.000 C 
BRANCH  10  12
ATOM     11  C   UNL     1       5.174   6.076  16.421  0.00  0.00    +0.000 C 
ATOM     12  N   UNL     1       5.868   4.799  16.623  0.00  0.00    +0.000 NA
ATOM     13  C   UNL     1       6.921   4.649  15.616  0.00  0.00    +0.000 C 
ENDBRANCH  10  12
ENDBRANCH   9  10
ENDBRANCH   1   9
TORSDOF 5
ENDMDL
MODEL 5
REMARK VINA RESULT:      -4.8      1.348      1.646
REMARK  Name = 
REMARK  7 active torsions:
REMARK  status: ('A' for Active; 'I' for Inactive)
REMARK    1  A    between atoms: C_1  and  N_2
REMARK    2  A    between atoms: N_2  and  C_3
REMARK    3  A    between atoms: N_2  and  C_4
REMARK    4  A    between atoms: C_4  and  C_5
REMARK    5  A    between atoms: C_5  and  C_6
REMARK    6  A    between atoms: C_6  and  O_7
REMARK    7  A    between atoms: C_6  and  C_8
REMARK                            x       y       z     vdW  Elec       q    Type
REMARK                         _______ _______ _______ _____ _____    ______ ____
ROOT
ATOM      1  C   UNL     1       4.472   3.906  19.686  0.00  0.00    +0.000 C 
ENDROOT
BRANCH   1   2
ATOM      2  C   UNL     1       3.052   3.433  19.537  0.00  0.00    +0.000 A 
ATOM      3  C   UNL     1       1.977   3.739  20.352  0.00  0.00    +0.000 A 
ATOM      4  C   UNL     1       0.760   3.157  19.895  0.00  0.00    +0.000 A 
ATOM      5  C   UNL     1       0.945   2.412  18.754  0.00  0.00    +0.000 A 
ATOM      6  S   UNL     1       2.576   2.405  18.247  0.00  0.00    +0.000 S 
ENDBRANCH   1   2
BRANCH   1   7
ATOM      7  O   UNL     1       5.312   2.945  19.044  0.00  0.00    +0.000 OA
ATOM      8  H   UNL     1       5.829   2.515  19.749  0.00  0.00    +0.000 HD
ENDBRANCH   1   7
BRANCH   1   9
ATOM      9  C   UNL     1       4.748   5.296  19.107  0.00  0.00    +0.000 C 
BRANCH   9  10
ATOM     10  C   UNL     1       5.870   5.290  18.062  0.00  0.00    +0.000 C 
BRANCH  10  12
ATOM     11  C   UNL     1       5.162   6.270  15.982  0.00  0.00    +0.000 C 
ATOM     12  N   UNL     1       5.402   5.009  16.692  0.00  0.00    +0.000 NA
ATOM     13  C   UNL     1       6.349   4.192  15.931  0.00  0.00    +0.000 C 
ENDBRANCH  10  12
ENDBRANCH   9  10
ENDBRANCH   1   9
TORSDOF 5
ENDMDL
MODEL 6
REMARK VINA RESULT:      -4.8      1.521      1.577
REMARK  Name = 
REMARK  7 active torsions:
REMARK  status: ('A' for Active; 'I' for Inactive)
REMARK    1  A    between atoms: C_1  and  N_2
REMARK    2  A    between atoms: N_2  and  C_3
REMARK    3  A    between atoms: N_2  and  C_4
REMARK    4  A    between atoms: C_4  and  C_5
REMARK    5  A    between atoms: C_5  and  C_6
REMARK    6  A    between atoms: C_6  and  O_7
REMARK    7  A    between atoms: C_6  and  C_8
REMARK                            x       y       z     vdW  Elec       q    Type
REMARK                         _______ _______ _______ _____ _____    ______ ____
ROOT
ATOM      1  C   UNL     1       4.792   4.597  19.030  0.00  0.00    +0.000 C 
ENDROOT
BRANCH   1   2
ATOM      2  C   UNL     1       3.477   3.888  18.846  0.00  0.00    +0.000 A 
ATOM      3  C   UNL     1       2.217   4.458  18.797  0.00  0.00    +0.000 A 
ATOM      4  C   UNL     1       1.192   3.499  18.565  0.00  0.00    +0.000 A 
ATOM      5  C   UNL     1       1.696   2.224  18.460  0.00  0.00    +0.000 A 
ATOM      6  S   UNL     1       3.393   2.184  18.652  0.00  0.00    +0.000 S 
ENDBRANCH   1   2
BRANCH   1   7
ATOM      7  O   UNL     1       5.828   3.659  18.732  0.00  0.00    +0.000 OA
ATOM      8  H   UNL     1       5.507   3.121  17.986  0.00  0.00    +0.000 HD
ENDBRANCH   1   7
BRANCH   1   9
ATOM      9  C   UNL     1       4.970   5.849  18.167  0.00  0.00    +0.000 C 
BRANCH   9  10
ATOM     10  C   UNL     1       5.068   5.528  16.671  0.00  0.00    +0.000 C 
BRANCH  10  12
ATOM     11  C   UNL     1       7.229   6.501  17.087  0.00  0.00    +0.000 C 
ATOM     12  N   UNL     1       6.347   5.937  16.060  0.00  0.00    +0.000 NA
ATOM     13  C   UNL     1       7.027   4.830  15.385  0.00  0.00    +0.000 C 
ENDBRANCH  10  12
ENDBRANCH   9  10
ENDBRANCH   1   9
TORSDOF 5
ENDMDL
MODEL 7
REMARK VINA RESULT:      -4.8      0.938      1.332
REMARK  Name = 
REMARK  7 active torsions:
REMARK  status: ('A' for Active; 'I' for Inactive)
REMARK    1  A    between atoms: C_1  and  N_2
REMARK    2  A    between atoms: N_2  and  C_3
REMARK    3  A    between atoms: N_2  and  C_4
REMARK    4  A    between atoms: C_4  and  C_5
REMARK    5  A    between atoms: C_5  and  C_6
REMARK    6  A    between atoms: C_6  and  O_7
REMARK    7  A    between atoms: C_6  and  C_8
REMARK                            x       y       z     vdW  Elec       q    Type
REMARK                         _______ _______ _______ _____ _____    ______ ____
ROOT
ATOM      1  C   UNL     1       4.519   4.992  19.413  0.00  0.00    +0.000 C 
ENDROOT
BRANCH   1   2
ATOM      2  C   UNL     1       3.218   4.321  19.758  0.00  0.00    +0.000 A 
ATOM      3  C   UNL     1       2.074   4.918  20.259  0.00  0.00    +0.000 A 
ATOM      4  C   UNL     1       1.005   3.994  20.430  0.00  0.00    +0.000 A 
ATOM      5  C   UNL     1       1.367   2.717  20.070  0.00  0.00    +0.000 A 
ATOM      6  S   UNL     1       2.990   2.633  19.542  0.00  0.00    +0.000 S 
ENDBRANCH   1   2
BRANCH   1   7
ATOM      7  O   UNL     1       5.519   3.973  19.339  0.00  0.00    +0.000 OA
ATOM      8  H   UNL     1       6.326   4.349  19.732  0.00  0.00    +0.000 HD
ENDBRANCH   1   7
BRANCH   1   9
ATOM      9  C   UNL     1       4.502   5.789  18.106  0.00  0.00    +0.000 C 
BRANCH   9  10
ATOM     10  C   UNL     1       4.639   4.896  16.866  0.00  0.00    +0.000 C 
BRANCH  10  12
ATOM     11  C   UNL     1       6.084   3.890  15.228  0.00  0.00    +0.000 C 
ATOM     12  N   UNL     1       6.034   4.544  16.540  0.00  0.00    +0.000 NA
ATOM     13  C   UNL     1       6.923   5.707  16.542  0.00  0.00    +0.000 C 
ENDBRANCH  10  12
ENDBRANCH   9  10
ENDBRANCH   1   9
TORSDOF 5
ENDMDL
MODEL 8
REMARK VINA RESULT:      -4.8      1.361      1.792
REMARK  Name = 
REMARK  7 active torsions:
REMARK  status: ('A' for Active; 'I' for Inactive)
REMARK    1  A    between atoms: C_1  and  N_2
REMARK    2  A    between atoms: N_2  and  C_3
REMARK    3  A    between atoms: N_2  and  C_4
REMARK    4  A    between atoms: C_4  and  C_5
REMARK    5  A    between atoms: C_5  and  C_6
REMARK    6  A    between atoms: C_6  and  O_7
REMARK    7  A    between atoms: C_6  and  C_8
REMARK                            x       y       z     vdW  Elec       q    Type
REMARK                         _______ _______ _______ _____ _____    ______ ____
ROOT
ATOM      1  C   UNL     1       4.115   3.004  18.286  0.00  0.00    +0.000 C 
ENDROOT
BRANCH   1   2
ATOM      2  C   UNL     1       2.990   3.228  19.260  0.00  0.00    +0.000 A 
ATOM      3  C   UNL     1       2.904   2.767  20.561  0.00  0.00    +0.000 A 
ATOM      4  C   UNL     1       1.719   3.204  21.219  0.00  0.00    +0.000 A 
ATOM      5  C   UNL     1       0.928   3.972  20.396  0.00  0.00    +0.000 A 
ATOM      6  S   UNL     1       1.606   4.153  18.838  0.00  0.00    +0.000 S 
ENDBRANCH   1   2
BRANCH   1   7
ATOM      7  O   UNL     1       4.134   1.610  17.969  0.00  0.00    +0.000 OA
ATOM      8  H   UNL     1       4.923   1.239  18.403  0.00  0.00    +0.000 HD
ENDBRANCH   1   7
BRANCH   1   9
ATOM      9  C   UNL     1       4.019   3.822  16.996  0.00  0.00    +0.000 C 
BRANCH   9  10
ATOM     10  C   UNL     1       5.141   4.858  16.867  0.00  0.00    +0.000 C 
BRANCH  10  12
ATOM     11  C   UNL     1       6.911   4.682  15.247  0.00  0.00    +0.000 C 
ATOM     12  N   UNL     1       6.463   4.269  16.581  0.00  0.00    +0.000 NA
ATOM     13  C   UNL     1       7.472   4.642  17.575  0.00  0.00    +0.000 C 
ENDBRANCH  10  12
ENDBRANCH   9  10
ENDBRANCH   1   9
TORSDOF 5
ENDMDL
MODEL 9
REMARK VINA RESULT:      -4.8      2.751      5.326
REMARK  Name = 
REMARK  7 active torsions:
REMARK  status: ('A' for Active; 'I' for Inactive)
REMARK    1  A    between atoms: C_1  and  N_2
REMARK    2  A    between atoms: N_2  and  C_3
REMARK    3  A    between atoms: N_2  and  C_4
REMARK    4  A    between atoms: C_4  and  C_5
REMARK    5  A    between atoms: C_5  and  C_6
REMARK    6  A    between atoms: C_6  and  O_7
REMARK    7  A    between atoms: C_6  and  C_8
REMARK                            x       y       z     vdW  Elec       q    Type
REMARK                         _______ _______ _______ _____ _____    ______ ____
ROOT
ATOM      1  C   UNL     1       4.751   3.882  18.080  0.00  0.00    +0.000 C 
ENDROOT
BRANCH   1   2
ATOM      2  C   UNL     1       5.661   5.068  17.912  0.00  0.00    +0.000 A 
ATOM      3  C   UNL     1       6.982   5.173  18.310  0.00  0.00    +0.000 A 
ATOM      4  C   UNL     1       7.563   6.423  17.953  0.00  0.00    +0.000 A 
ATOM      5  C   UNL     1       6.664   7.241  17.308  0.00  0.00    +0.000 A 
ATOM      6  S   UNL     1       5.129   6.510  17.146  0.00  0.00    +0.000 S 
ENDBRANCH   1   2
BRANCH   1   7
ATOM      7  O   UNL     1       5.179   3.177  19.248  0.00  0.00    +0.000 OA
ATOM      8  H   UNL     1       4.394   2.716  19.595  0.00  0.00    +0.000 HD
ENDBRANCH   1   7
BRANCH   1   9
ATOM      9  C   UNL     1       3.265   4.228  18.206  0.00  0.00    +0.000 C 
BRANCH   9  10
ATOM     10  C   UNL     1       2.743   4.086  19.640  0.00  0.00    +0.000 C 
BRANCH  10  12
ATOM     11  C   UNL     1       1.386   2.831  21.180  0.00  0.00    +0.000 C 
ATOM     12  N   UNL     1       2.144   2.768  19.926  0.00  0.00    +0.000 NA
ATOM     13  C   UNL     1       1.269   2.302  18.848  0.00  0.00    +0.000 C 
ENDBRANCH  10  12
ENDBRANCH   9  10
ENDBRANCH   1   9
TORSDOF 5
ENDMDL
