MODEL 1
REMARK VINA RESULT:      -7.9      0.000      0.000
REMARK  Name = 
REMARK  4 active torsions:
REMARK  status: ('A' for Active; 'I' for Inactive)
REMARK    1  A    between atoms: C_1  and  N_2
REMARK    2  A    between atoms: C_5  and  N_6
REMARK    3  A    between atoms: C_15  and  C_16
REMARK    4  A    between atoms: N_20  and  C_21
REMARK                            x       y       z     vdW  Elec       q    Type
REMARK                         _______ _______ _______ _____ _____    ______ ____
ROOT
ATOM      1  N   UNL     1       1.595   7.027  21.318  0.00  0.00    +0.000 N 
ATOM      2  C   UNL     1       1.924   6.066  20.374  0.00  0.00    +0.000 A 
ATOM      3  N   UNL     1       1.309   4.881  20.514  0.00  0.00    +0.000 NA
ATOM      4  C   UNL     1       1.589   3.925  19.606  0.00  0.00    +0.000 A 
ATOM      5  C   UNL     1       2.468   4.110  18.570  0.00  0.00    +0.000 A 
ATOM      6  C   UNL     1       3.013   5.383  18.505  0.00  0.00    +0.000 A 
ATOM      7  N   UNL     1       2.768   6.366  19.379  0.00  0.00    +0.000 NA
ATOM      8  C   UNL     1       3.974   5.639  17.449  0.00  0.00    +0.000 A 
ATOM      9  C   UNL     1       4.546   4.636  16.692  0.00  0.00    +0.000 A 
ATOM     10  C   UNL     1       5.442   5.283  15.812  0.00  0.00    +0.000 A 
ATOM     11  N   UNL     1       5.385   6.625  15.975  0.00  0.00    +0.000 NA
ATOM     12  N   UNL     1       4.489   6.809  16.977  0.00  0.00    +0.000 N 
ATOM     13  C   UNL     1       4.140   8.153  17.371  0.00  0.00    +0.000 C 
ATOM     14  C   UNL     1       4.205   3.201  16.927  0.00  0.00    +0.000 C 
ATOM     15  C   UNL     1       2.778   3.069  17.522  0.00  0.00    +0.000 C 
ATOM     16  H   UNL     1       0.754   6.697  21.782  0.00  0.00    +0.000 HD
ENDROOT
BRANCH   1  21
ATOM     17  C   UNL     1      -0.198  12.084  19.516  0.00  0.00    +0.000 C 
ATOM     18  N   UNL     1      -0.013  10.710  19.985  0.00  0.00    +0.000 NA
ATOM     19  C   UNL     1       0.769   9.942  19.011  0.00  0.00    +0.000 C 
ATOM     20  C   UNL     1       0.908   8.491  19.451  0.00  0.00    +0.000 C 
ATOM     21  C   UNL     1       1.555   8.405  20.837  0.00  0.00    +0.000 C 
ATOM     22  C   UNL     1       0.768   9.263  21.832  0.00  0.00    +0.000 C 
ATOM     23  C   UNL     1       0.616  10.692  21.312  0.00  0.00    +0.000 C 
ENDBRANCH   1  21
BRANCH  10  24
ATOM     24  C   UNL     1       6.353   4.664  14.840  0.00  0.00    +0.000 C 
ATOM     25  N   UNL     1       7.580   5.260  14.762  0.00  0.00    +0.000 N 
ATOM     26  O   UNL     1       6.065   3.694  14.145  0.00  0.00    +0.000 OA
ATOM     27  H   UNL     1       7.771   6.046  15.373  0.00  0.00    +0.000 HD
ATOM     28  H   UNL     1       8.283   4.892  14.140  0.00  0.00    +0.000 HD
ENDBRANCH  10  24
TORSDOF 2
ENDMDL
MODEL 2
REMARK VINA RESULT:      -7.2      1.145      1.255
REMARK  Name = 
REMARK  4 active torsions:
REMARK  status: ('A' for Active; 'I' for Inactive)
REMARK    1  A    between atoms: C_1  and  N_2
REMARK    2  A    between atoms: C_5  and  N_6
REMARK    3  A    between atoms: C_15  and  C_16
REMARK    4  A    between atoms: N_20  and  C_21
REMARK                            x       y       z     vdW  Elec       q    Type
REMARK                         _______ _______ _______ _____ _____    ______ ____
ROOT
ATOM      1  N   UNL     1       1.114   8.295  21.134  0.00  0.00    +0.000 N 
ATOM      2  C   UNL     1       1.578   7.107  20.591  0.00  0.00    +0.000 A 
ATOM      3  N   UNL     1       1.054   5.987  21.112  0.00  0.00    +0.000 NA
ATOM      4  C   UNL     1       1.468   4.811  20.599  0.00  0.00    +0.000 A 
ATOM      5  C   UNL     1       2.394   4.718  19.591  0.00  0.00    +0.000 A 
ATOM      6  C   UNL     1       2.837   5.939  19.109  0.00  0.00    +0.000 A 
ATOM      7  N   UNL     1       2.457   7.131  19.582  0.00  0.00    +0.000 NA
ATOM      8  C   UNL     1       3.839   5.913  18.061  0.00  0.00    +0.000 A 
ATOM      9  C   UNL     1       4.538   4.773  17.716  0.00  0.00    +0.000 A 
ATOM     10  C   UNL     1       5.433   5.167  16.696  0.00  0.00    +0.000 A 
ATOM     11  N   UNL     1       5.258   6.472  16.384  0.00  0.00    +0.000 NA
ATOM     12  N   UNL     1       4.287   6.896  17.231  0.00  0.00    +0.000 N 
ATOM     13  C   UNL     1       3.806   8.254  17.126  0.00  0.00    +0.000 C 
ATOM     14  C   UNL     1       4.300   3.479  18.420  0.00  0.00    +0.000 C 
ATOM     15  C   UNL     1       2.854   3.417  18.978  0.00  0.00    +0.000 C 
ATOM     16  H   UNL     1       0.274   8.063  21.656  0.00  0.00    +0.000 HD
ENDROOT
BRANCH   1  21
ATOM     17  C   UNL     1      -0.624  13.019  18.546  0.00  0.00    +0.000 C 
ATOM     18  N   UNL     1      -0.398  11.845  19.388  0.00  0.00    +0.000 NA
ATOM     19  C   UNL     1      -0.512  10.619  18.592  0.00  0.00    +0.000 C 
ATOM     20  C   UNL     1      -0.351   9.385  19.470  0.00  0.00    +0.000 C 
ATOM     21  C   UNL     1       0.993   9.416  20.206  0.00  0.00    +0.000 C 
ATOM     22  C   UNL     1       1.129  10.729  20.983  0.00  0.00    +0.000 C 
ATOM     23  C   UNL     1       0.905  11.928  20.061  0.00  0.00    +0.000 C 
ENDBRANCH   1  21
BRANCH  10  24
ATOM     24  C   UNL     1       6.452   4.346  16.027  0.00  0.00    +0.000 C 
ATOM     25  N   UNL     1       7.713   4.494  16.533  0.00  0.00    +0.000 N 
ATOM     26  O   UNL     1       6.220   3.584  15.094  0.00  0.00    +0.000 OA
ATOM     27  H   UNL     1       7.844   5.122  17.317  0.00  0.00    +0.000 HD
ATOM     28  H   UNL     1       8.475   3.954  16.155  0.00  0.00    +0.000 HD
ENDBRANCH  10  24
TORSDOF 2
ENDMDL
MODEL 3
REMARK VINA RESULT:      -7.1      4.015      8.531
REMARK  Name = 
REMARK  4 active torsions:
REMARK  status: ('A' for Active; 'I' for Inactive)
REMARK    1  A    between atoms: C_1  and  N_2
REMARK    2  A    between atoms: C_5  and  N_6
REMARK    3  A    between atoms: C_15  and  C_16
REMARK    4  A    between atoms: N_20  and  C_21
REMARK                            x       y       z     vdW  Elec       q    Type
REMARK                         _______ _______ _______ _____ _____    ______ ____
ROOT
ATOM      1  N   UNL     1       2.836   7.393  18.432  0.00  0.00    +0.000 N 
ATOM      2  C   UNL     1       2.227   8.630  18.580  0.00  0.00    +0.000 A 
ATOM      3  N   UNL     1       2.407   9.490  17.566  0.00  0.00    +0.000 NA
ATOM      4  C   UNL     1       1.815  10.698  17.664  0.00  0.00    +0.000 A 
ATOM      5  C   UNL     1       1.060  11.077  18.745  0.00  0.00    +0.000 A 
ATOM      6  C   UNL     1       0.915  10.094  19.712  0.00  0.00    +0.000 A 
ATOM      7  N   UNL     1       1.479   8.882  19.661  0.00  0.00    +0.000 NA
ATOM      8  C   UNL     1       0.151  10.438  20.895  0.00  0.00    +0.000 A 
ATOM      9  C   UNL     1      -0.205  11.734  21.211  0.00  0.00    +0.000 A 
ATOM     10  C   UNL     1      -0.896  11.653  22.441  0.00  0.00    +0.000 A 
ATOM     11  N   UNL     1      -1.014  10.365  22.838  0.00  0.00    +0.000 NA
ATOM     12  N   UNL     1      -0.366   9.654  21.882  0.00  0.00    +0.000 N 
ATOM     13  C   UNL     1      -0.351   8.212  21.966  0.00  0.00    +0.000 C 
ATOM     14  C   UNL     1       0.190  12.879  20.337  0.00  0.00    +0.000 C 
ATOM     15  C   UNL     1       0.364  12.410  18.869  0.00  0.00    +0.000 C 
ATOM     16  H   UNL     1       3.093   7.316  17.453  0.00  0.00    +0.000 HD
ENDROOT
BRANCH   1  21
ATOM     17  C   UNL     1       1.520   2.261  20.421  0.00  0.00    +0.000 C 
ATOM     18  N   UNL     1       2.119   3.472  19.860  0.00  0.00    +0.000 NA
ATOM     19  C   UNL     1       1.414   3.867  18.636  0.00  0.00    +0.000 C 
ATOM     20  C   UNL     1       2.070   5.085  18.001  0.00  0.00    +0.000 C 
ATOM     21  C   UNL     1       2.112   6.255  18.990  0.00  0.00    +0.000 C 
ATOM     22  C   UNL     1       2.793   5.812  20.289  0.00  0.00    +0.000 C 
ATOM     23  C   UNL     1       2.125   4.557  20.850  0.00  0.00    +0.000 C 
ENDBRANCH   1  21
BRANCH  10  24
ATOM     24  C   UNL     1      -1.430  12.758  23.248  0.00  0.00    +0.000 C 
ATOM     25  N   UNL     1      -2.770  12.673  23.501  0.00  0.00    +0.000 N 
ATOM     26  O   UNL     1      -0.755  13.690  23.674  0.00  0.00    +0.000 OA
ATOM     27  H   UNL     1      -3.276  11.871  23.142  0.00  0.00    +0.000 HD
ATOM     28  H   UNL     1      -3.223  13.372  24.068  0.00  0.00    +0.000 HD
ENDBRANCH  10  24
TORSDOF 2
ENDMDL
MODEL 4
REMARK VINA RESULT:      -7.0      5.123      8.797
REMARK  Name = 
REMARK  4 active torsions:
REMARK  status: ('A' for Active; 'I' for Inactive)
REMARK    1  A    between atoms: C_1  and  N_2
REMARK    2  A    between atoms: C_5  and  N_6
REMARK    3  A    between atoms: C_15  and  C_16
REMARK    4  A    between atoms: N_20  and  C_21
REMARK                            x       y       z     vdW  Elec       q    Type
REMARK                         _______ _______ _______ _____ _____    ______ ____
ROOT
ATOM      1  N   UNL     1      -6.070  13.055  20.280  0.00  0.00    +0.000 N 
ATOM      2  C   UNL     1      -5.222  12.484  19.343  0.00  0.00    +0.000 A 
ATOM      3  N   UNL     1      -5.754  12.280  18.128  0.00  0.00    +0.000 NA
ATOM      4  C   UNL     1      -4.956  11.742  17.184  0.00  0.00    +0.000 A 
ATOM      5  C   UNL     1      -3.651  11.393  17.416  0.00  0.00    +0.000 A 
ATOM      6  C   UNL     1      -3.201  11.683  18.695  0.00  0.00    +0.000 A 
ATOM      7  N   UNL     1      -3.951  12.217  19.666  0.00  0.00    +0.000 NA
ATOM      8  C   UNL     1      -1.837  11.313  19.017  0.00  0.00    +0.000 A 
ATOM      9  C   UNL     1      -1.075  10.480  18.222  0.00  0.00    +0.000 A 
ATOM     10  C   UNL     1       0.162  10.338  18.891  0.00  0.00    +0.000 A 
ATOM     11  N   UNL     1       0.186  11.091  20.015  0.00  0.00    +0.000 NA
ATOM     12  N   UNL     1      -1.041  11.667  20.065  0.00  0.00    +0.000 N 
ATOM     13  C   UNL     1      -1.337  12.599  21.127  0.00  0.00    +0.000 C 
ATOM     14  C   UNL     1      -1.626   9.897  16.963  0.00  0.00    +0.000 C 
ATOM     15  C   UNL     1      -2.727  10.816  16.371  0.00  0.00    +0.000 C 
ATOM     16  H   UNL     1      -6.858  13.430  19.762  0.00  0.00    +0.000 HD
ENDROOT
BRANCH   1  21
ATOM     17  C   UNL     1      -5.207  16.677  24.543  0.00  0.00    +0.000 C 
ATOM     18  N   UNL     1      -5.705  15.756  23.522  0.00  0.00    +0.000 NA
ATOM     19  C   UNL     1      -5.450  16.295  22.183  0.00  0.00    +0.000 C 
ATOM     20  C   UNL     1      -6.026  15.381  21.110  0.00  0.00    +0.000 C 
ATOM     21  C   UNL     1      -5.444  13.969  21.232  0.00  0.00    +0.000 C 
ATOM     22  C   UNL     1      -5.660  13.440  22.653  0.00  0.00    +0.000 C 
ATOM     23  C   UNL     1      -5.108  14.423  23.686  0.00  0.00    +0.000 C 
ENDBRANCH   1  21
BRANCH  10  24
ATOM     24  C   UNL     1       1.304   9.500  18.501  0.00  0.00    +0.000 C 
ATOM     25  N   UNL     1       1.584   8.489  19.377  0.00  0.00    +0.000 N 
ATOM     26  O   UNL     1       1.967   9.668  17.483  0.00  0.00    +0.000 OA
ATOM     27  H   UNL     1       0.991   8.384  20.193  0.00  0.00    +0.000 HD
ATOM     28  H   UNL     1       2.335   7.846  19.184  0.00  0.00    +0.000 HD
ENDBRANCH  10  24
TORSDOF 2
ENDMDL
MODEL 5
REMARK VINA RESULT:      -7.0      9.030     10.435
REMARK  Name = 
REMARK  4 active torsions:
REMARK  status: ('A' for Active; 'I' for Inactive)
REMARK    1  A    between atoms: C_1  and  N_2
REMARK    2  A    between atoms: C_5  and  N_6
REMARK    3  A    between atoms: C_15  and  C_16
REMARK    4  A    between atoms: N_20  and  C_21
REMARK                            x       y       z     vdW  Elec       q    Type
REMARK                         _______ _______ _______ _____ _____    ______ ____
ROOT
ATOM      1  N   UNL     1       8.770  11.491  23.244  0.00  0.00    +0.000 N 
ATOM      2  C   UNL     1       9.036  11.681  21.897  0.00  0.00    +0.000 A 
ATOM      3  N   UNL     1       9.066  10.567  21.149  0.00  0.00    +0.000 NA
ATOM      4  C   UNL     1       9.304  10.712  19.830  0.00  0.00    +0.000 A 
ATOM      5  C   UNL     1       9.523  11.929  19.237  0.00  0.00    +0.000 A 
ATOM      6  C   UNL     1       9.432  13.009  20.101  0.00  0.00    +0.000 A 
ATOM      7  N   UNL     1       9.197  12.919  21.415  0.00  0.00    +0.000 NA
ATOM      8  C   UNL     1       9.682  14.325  19.545  0.00  0.00    +0.000 A 
ATOM      9  C   UNL     1      10.240  14.521  18.298  0.00  0.00    +0.000 A 
ATOM     10  C   UNL     1      10.352  15.922  18.144  0.00  0.00    +0.000 A 
ATOM     11  N   UNL     1       9.835  16.562  19.218  0.00  0.00    +0.000 NA
ATOM     12  N   UNL     1       9.440  15.567  20.050  0.00  0.00    +0.000 N 
ATOM     13  C   UNL     1       8.777  15.906  21.288  0.00  0.00    +0.000 C 
ATOM     14  C   UNL     1      10.633  13.367  17.437  0.00  0.00    +0.000 C 
ATOM     15  C   UNL     1       9.764  12.123  17.759  0.00  0.00    +0.000 C 
ATOM     16  H   UNL     1       8.405  10.548  23.334  0.00  0.00    +0.000 HD
ENDROOT
BRANCH   1  21
ATOM     17  C   UNL     1       5.297  14.276  26.739  0.00  0.00    +0.000 C 
ATOM     18  N   UNL     1       6.117  13.326  25.988  0.00  0.00    +0.000 NA
ATOM     19  C   UNL     1       5.688  13.280  24.587  0.00  0.00    +0.000 C 
ATOM     20  C   UNL     1       6.486  12.242  23.809  0.00  0.00    +0.000 C 
ATOM     21  C   UNL     1       7.987  12.538  23.894  0.00  0.00    +0.000 C 
ATOM     22  C   UNL     1       8.412  12.648  25.361  0.00  0.00    +0.000 C 
ATOM     23  C   UNL     1       7.543  13.664  26.102  0.00  0.00    +0.000 C 
ENDBRANCH   1  21
BRANCH  10  24
ATOM     24  C   UNL     1      10.946  16.659  17.021  0.00  0.00    +0.000 C 
ATOM     25  N   UNL     1      10.615  16.168  15.789  0.00  0.00    +0.000 N 
ATOM     26  O   UNL     1      11.678  17.636  17.146  0.00  0.00    +0.000 OA
ATOM     27  H   UNL     1       9.990  15.371  15.743  0.00  0.00    +0.000 HD
ATOM     28  H   UNL     1      10.954  16.622  14.956  0.00  0.00    +0.000 HD
ENDBRANCH  10  24
TORSDOF 2
ENDMDL
MODEL 6
REMARK VINA RESULT:      -6.7      7.970     10.429
REMARK  Name = 
REMARK  4 active torsions:
REMARK  status: ('A' for Active; 'I' for Inactive)
REMARK    1  A    between atoms: C_1  and  N_2
REMARK    2  A    between atoms: C_5  and  N_6
REMARK    3  A    between atoms: C_15  and  C_16
REMARK    4  A    between atoms: N_20  and  C_21
REMARK                            x       y       z     vdW  Elec       q    Type
REMARK                         _______ _______ _______ _____ _____    ______ ____
ROOT
ATOM      1  N   UNL     1      -4.977  13.888  24.219  0.00  0.00    +0.000 N 
ATOM      2  C   UNL     1      -5.297  13.380  22.969  0.00  0.00    +0.000 A 
ATOM      3  N   UNL     1      -6.602  13.154  22.751  0.00  0.00    +0.000 NA
ATOM      4  C   UNL     1      -6.956  12.677  21.541  0.00  0.00    +0.000 A 
ATOM      5  C   UNL     1      -6.050  12.409  20.548  0.00  0.00    +0.000 A 
ATOM      6  C   UNL     1      -4.737  12.715  20.874  0.00  0.00    +0.000 A 
ATOM      7  N   UNL     1      -4.335  13.191  22.057  0.00  0.00    +0.000 NA
ATOM      8  C   UNL     1      -3.723  12.428  19.878  0.00  0.00    +0.000 A 
ATOM      9  C   UNL     1      -3.963  11.653  18.761  0.00  0.00    +0.000 A 
ATOM     10  C   UNL     1      -2.731  11.582  18.072  0.00  0.00    +0.000 A 
ATOM     11  N   UNL     1      -1.790  12.325  18.700  0.00  0.00    +0.000 NA
ATOM     12  N   UNL     1      -2.422  12.822  19.792  0.00  0.00    +0.000 N 
ATOM     13  C   UNL     1      -1.710  13.724  20.667  0.00  0.00    +0.000 C 
ATOM     14  C   UNL     1      -5.305  11.047  18.514  0.00  0.00    +0.000 C 
ATOM     15  C   UNL     1      -6.419  11.901  19.175  0.00  0.00    +0.000 C 
ATOM     16  H   UNL     1      -5.847  14.217  24.626  0.00  0.00    +0.000 HD
ENDROOT
BRANCH   1  21
ATOM     17  C   UNL     1      -1.322  17.887  25.857  0.00  0.00    +0.000 C 
ATOM     18  N   UNL     1      -2.399  16.912  25.681  0.00  0.00    +0.000 NA
ATOM     19  C   UNL     1      -3.193  17.241  24.493  0.00  0.00    +0.000 C 
ATOM     20  C   UNL     1      -4.361  16.277  24.338  0.00  0.00    +0.000 C 
ATOM     21  C   UNL     1      -3.862  14.831  24.258  0.00  0.00    +0.000 C 
ATOM     22  C   UNL     1      -2.981  14.518  25.471  0.00  0.00    +0.000 C 
ATOM     23  C   UNL     1      -1.860  15.548  25.605  0.00  0.00    +0.000 C 
ENDBRANCH   1  21
BRANCH  10  24
ATOM     24  C   UNL     1      -2.424  10.822  16.853  0.00  0.00    +0.000 C 
ATOM     25  N   UNL     1      -2.916  11.378  15.706  0.00  0.00    +0.000 N 
ATOM     26  O   UNL     1      -1.782   9.777  16.835  0.00  0.00    +0.000 OA
ATOM     27  H   UNL     1      -3.423  12.254  15.776  0.00  0.00    +0.000 HD
ATOM     28  H   UNL     1      -2.737  10.943  14.815  0.00  0.00    +0.000 HD
ENDBRANCH  10  24
TORSDOF 2
ENDMDL
MODEL 7
REMARK VINA RESULT:      -6.7      2.466      4.046
REMARK  Name = 
REMARK  4 active torsions:
REMARK  status: ('A' for Active; 'I' for Inactive)
REMARK    1  A    between atoms: C_1  and  N_2
REMARK    2  A    between atoms: C_5  and  N_6
REMARK    3  A    between atoms: C_15  and  C_16
REMARK    4  A    between atoms: N_20  and  C_21
REMARK                            x       y       z     vdW  Elec       q    Type
REMARK                         _______ _______ _______ _____ _____    ______ ____
ROOT
ATOM      1  N   UNL     1       1.198   9.087  17.948  0.00  0.00    +0.000 N 
ATOM      2  C   UNL     1       2.280   8.222  17.875  0.00  0.00    +0.000 A 
ATOM      3  N   UNL     1       3.302   8.635  17.110  0.00  0.00    +0.000 NA
ATOM      4  C   UNL     1       4.380   7.829  17.027  0.00  0.00    +0.000 A 
ATOM      5  C   UNL     1       4.466   6.624  17.674  0.00  0.00    +0.000 A 
ATOM      6  C   UNL     1       3.367   6.320  18.463  0.00  0.00    +0.000 A 
ATOM      7  N   UNL     1       2.276   7.084  18.580  0.00  0.00    +0.000 NA
ATOM      8  C   UNL     1       3.380   5.045  19.154  0.00  0.00    +0.000 A 
ATOM      9  C   UNL     1       4.285   4.042  18.867  0.00  0.00    +0.000 A 
ATOM     10  C   UNL     1       3.947   2.966  19.717  0.00  0.00    +0.000 A 
ATOM     11  N   UNL     1       2.920   3.305  20.532  0.00  0.00    +0.000 NA
ATOM     12  N   UNL     1       2.598   4.570  20.163  0.00  0.00    +0.000 N 
ATOM     13  C   UNL     1       1.561   5.270  20.885  0.00  0.00    +0.000 C 
ATOM     14  C   UNL     1       5.318   4.215  17.803  0.00  0.00    +0.000 C 
ATOM     15  C   UNL     1       5.671   5.715  17.622  0.00  0.00    +0.000 C 
ATOM     16  H   UNL     1       1.522   9.981  17.592  0.00  0.00    +0.000 HD
ENDROOT
BRANCH   1  21
ATOM     17  C   UNL     1      -0.726  10.728  23.012  0.00  0.00    +0.000 C 
ATOM     18  N   UNL     1      -0.079  10.548  21.712  0.00  0.00    +0.000 NA
ATOM     19  C   UNL     1       0.758   9.345  21.722  0.00  0.00    +0.000 C 
ATOM     20  C   UNL     1       1.494   9.184  20.399  0.00  0.00    +0.000 C 
ATOM     21  C   UNL     1       0.502   9.130  19.232  0.00  0.00    +0.000 C 
ATOM     22  C   UNL     1      -0.409  10.360  19.268  0.00  0.00    +0.000 C 
ATOM     23  C   UNL     1      -1.078  10.498  20.636  0.00  0.00    +0.000 C 
ENDBRANCH   1  21
BRANCH  10  24
ATOM     24  C   UNL     1       4.558   1.631  19.765  0.00  0.00    +0.000 C 
ATOM     25  N   UNL     1       4.246   0.832  18.701  0.00  0.00    +0.000 N 
ATOM     26  O   UNL     1       5.290   1.239  20.668  0.00  0.00    +0.000 OA
ATOM     27  H   UNL     1       3.652   1.213  17.973  0.00  0.00    +0.000 HD
ATOM     28  H   UNL     1       4.637  -0.094  18.632  0.00  0.00    +0.000 HD
ENDBRANCH  10  24
TORSDOF 2
ENDMDL
MODEL 8
REMARK VINA RESULT:      -6.7      4.794      8.538
REMARK  Name = 
REMARK  4 active torsions:
REMARK  status: ('A' for Active; 'I' for Inactive)
REMARK    1  A    between atoms: C_1  and  N_2
REMARK    2  A    between atoms: C_5  and  N_6
REMARK    3  A    between atoms: C_15  and  C_16
REMARK    4  A    between atoms: N_20  and  C_21
REMARK                            x       y       z     vdW  Elec       q    Type
REMARK                         _______ _______ _______ _____ _____    ______ ____
ROOT
ATOM      1  N   UNL     1      -5.025  13.525  21.579  0.00  0.00    +0.000 N 
ATOM      2  C   UNL     1      -4.438  12.861  20.513  0.00  0.00    +0.000 A 
ATOM      3  N   UNL     1      -5.233  12.645  19.455  0.00  0.00    +0.000 NA
ATOM      4  C   UNL     1      -4.694  12.017  18.390  0.00  0.00    +0.000 A 
ATOM      5  C   UNL     1      -3.391  11.590  18.354  0.00  0.00    +0.000 A 
ATOM      6  C   UNL     1      -2.657  11.901  19.488  0.00  0.00    +0.000 A 
ATOM      7  N   UNL     1      -3.144  12.522  20.567  0.00  0.00    +0.000 NA
ATOM      8  C   UNL     1      -1.279  11.452  19.527  0.00  0.00    +0.000 A 
ATOM      9  C   UNL     1      -0.758  10.539  18.632  0.00  0.00    +0.000 A 
ATOM     10  C   UNL     1       0.585  10.340  19.025  0.00  0.00    +0.000 A 
ATOM     11  N   UNL     1       0.898  11.134  20.075  0.00  0.00    +0.000 NA
ATOM     12  N   UNL     1      -0.254  11.793  20.357  0.00  0.00    +0.000 N 
ATOM     13  C   UNL     1      -0.257  12.785  21.407  0.00  0.00    +0.000 C 
ATOM     14  C   UNL     1      -1.604   9.944  17.555  0.00  0.00    +0.000 C 
ATOM     15  C   UNL     1      -2.753  10.911  17.166  0.00  0.00    +0.000 C 
ATOM     16  H   UNL     1      -5.886  13.932  21.224  0.00  0.00    +0.000 HD
ENDROOT
BRANCH   1  21
ATOM     17  C   UNL     1      -3.087  17.382  25.239  0.00  0.00    +0.000 C 
ATOM     18  N   UNL     1      -3.843  16.445  24.409  0.00  0.00    +0.000 NA
ATOM     19  C   UNL     1      -3.736  16.817  22.995  0.00  0.00    +0.000 C 
ATOM     20  C   UNL     1      -4.577  15.892  22.126  0.00  0.00    +0.000 C 
ATOM     21  C   UNL     1      -4.156  14.432  22.323  0.00  0.00    +0.000 C 
ATOM     22  C   UNL     1      -4.209  14.073  23.811  0.00  0.00    +0.000 C 
ATOM     23  C   UNL     1      -3.390  15.065  24.637  0.00  0.00    +0.000 C 
ENDBRANCH   1  21
BRANCH  10  24
ATOM     24  C   UNL     1       1.564   9.412  18.443  0.00  0.00    +0.000 C 
ATOM     25  N   UNL     1       1.855   8.335  19.232  0.00  0.00    +0.000 N 
ATOM     26  O   UNL     1       2.091   9.564  17.345  0.00  0.00    +0.000 OA
ATOM     27  H   UNL     1       1.376   8.249  20.122  0.00  0.00    +0.000 HD
ATOM     28  H   UNL     1       2.498   7.630  18.909  0.00  0.00    +0.000 HD
ENDBRANCH  10  24
TORSDOF 2
ENDMDL
MODEL 9
REMARK VINA RESULT:      -6.4      7.174     11.353
REMARK  Name = 
REMARK  4 active torsions:
REMARK  status: ('A' for Active; 'I' for Inactive)
REMARK    1  A    between atoms: C_1  and  N_2
REMARK    2  A    between atoms: C_5  and  N_6
REMARK    3  A    between atoms: C_15  and  C_16
REMARK    4  A    between atoms: N_20  and  C_21
REMARK                            x       y       z     vdW  Elec       q    Type
REMARK                         _______ _______ _______ _____ _____    ______ ____
ROOT
ATOM      1  N   UNL     1      -2.066  11.943  17.238  0.00  0.00    +0.000 N 
ATOM      2  C   UNL     1      -3.331  11.914  17.804  0.00  0.00    +0.000 A 
ATOM      3  N   UNL     1      -4.331  11.584  16.971  0.00  0.00    +0.000 NA
ATOM      4  C   UNL     1      -5.575  11.528  17.487  0.00  0.00    +0.000 A 
ATOM      5  C   UNL     1      -5.854  11.801  18.802  0.00  0.00    +0.000 A 
ATOM      6  C   UNL     1      -4.740  12.095  19.573  0.00  0.00    +0.000 A 
ATOM      7  N   UNL     1      -3.487  12.161  19.110  0.00  0.00    +0.000 NA
ATOM      8  C   UNL     1      -4.966  12.422  20.967  0.00  0.00    +0.000 A 
ATOM      9  C   UNL     1      -6.217  12.699  21.482  0.00  0.00    +0.000 A 
ATOM     10  C   UNL     1      -6.012  13.002  22.847  0.00  0.00    +0.000 A 
ATOM     11  N   UNL     1      -4.706  12.863  23.175  0.00  0.00    +0.000 NA
ATOM     12  N   UNL     1      -4.099  12.514  22.014  0.00  0.00    +0.000 N 
ATOM     13  C   UNL     1      -2.684  12.224  22.019  0.00  0.00    +0.000 C 
ATOM     14  C   UNL     1      -7.431  12.683  20.612  0.00  0.00    +0.000 C 
ATOM     15  C   UNL     1      -7.232  11.719  19.413  0.00  0.00    +0.000 C 
ATOM     16  H   UNL     1      -2.138  11.458  16.349  0.00  0.00    +0.000 HD
ENDROOT
BRANCH   1  21
ATOM     17  C   UNL     1       1.003  10.474  21.761  0.00  0.00    +0.000 C 
ATOM     18  N   UNL     1       0.002  10.901  20.784  0.00  0.00    +0.000 NA
ATOM     19  C   UNL     1       0.454  12.110  20.089  0.00  0.00    +0.000 C 
ATOM     20  C   UNL     1      -0.609  12.608  19.119  0.00  0.00    +0.000 C 
ATOM     21  C   UNL     1      -0.970  11.517  18.105  0.00  0.00    +0.000 C 
ATOM     22  C   UNL     1      -1.379  10.239  18.842  0.00  0.00    +0.000 C 
ATOM     23  C   UNL     1      -0.298   9.818  19.837  0.00  0.00    +0.000 C 
ENDBRANCH   1  21
BRANCH  10  24
ATOM     24  C   UNL     1      -7.012  13.430  23.834  0.00  0.00    +0.000 C 
ATOM     25  N   UNL     1      -6.863  14.721  24.259  0.00  0.00    +0.000 N 
ATOM     26  O   UNL     1      -7.915  12.715  24.256  0.00  0.00    +0.000 OA
ATOM     27  H   UNL     1      -6.112  15.273  23.862  0.00  0.00    +0.000 HD
ATOM     28  H   UNL     1      -7.516  15.114  24.918  0.00  0.00    +0.000 HD
ENDBRANCH  10  24
TORSDOF 2
ENDMDL
