MODEL 1
REMARK VINA RESULT:      -7.5      0.000      0.000
REMARK  Name = 
REMARK  5 active torsions:
REMARK  status: ('A' for Active; 'I' for Inactive)
REMARK    1  A    between atoms: C_1  and  C_2
REMARK    2  A    between atoms: C_2  and  N_3
REMARK    3  A    between atoms: N_3  and  C_4
REMARK    4  A    between atoms: C_4  and  C_5
REMARK    5  A    between atoms: C_10  and  C_11
REMARK                            x       y       z     vdW  Elec       q    Type
REMARK                         _______ _______ _______ _____ _____    ______ ____
ROOT
ATOM      1  N   UNL     1       3.070   3.635  19.796  0.00  0.00    +0.000 NA
ATOM      2  C   UNL     1       4.555   3.730  19.506  0.00  0.00    +0.000 C 
ATOM      3  N   UNL     1       4.624   4.987  18.832  0.00  0.00    +0.000 N 
ATOM      4  C   UNL     1       3.505   5.752  19.156  0.00  0.00    +0.000 C 
ATOM      5  N   UNL     1       2.659   5.130  19.970  0.00  0.00    +0.000 NA
ATOM      6  C   UNL     1       3.211   7.008  18.431  0.00  0.00    +0.000 C 
ATOM      7  C   UNL     1       3.836   7.146  17.245  0.00  0.00    +0.000 C 
ATOM      8  C   UNL     1       4.801   6.156  16.731  0.00  0.00    +0.000 A 
ATOM      9  C   UNL     1       5.266   6.212  15.413  0.00  0.00    +0.000 A 
ATOM     10  C   UNL     1       6.162   5.250  14.939  0.00  0.00    +0.000 A 
ATOM     11  C   UNL     1       6.634   4.255  15.788  0.00  0.00    +0.000 A 
ATOM     12  C   UNL     1       6.182   4.194  17.103  0.00  0.00    +0.000 A 
ATOM     13  C   UNL     1       5.221   5.103  17.574  0.00  0.00    +0.000 A 
ENDROOT
BRANCH   6  14
ATOM     14  C   UNL     1       2.117   7.973  18.885  0.00  0.00    +0.000 C 
ATOM     15  O   UNL     1       1.927   8.018  20.131  0.00  0.00    +0.000 OA
ATOM     16  O   UNL     1       1.565   8.626  17.957  0.00  0.00    +0.000 OA
ENDBRANCH   6  14
BRANCH   1  18
ATOM     17  C   UNL     1       1.385   2.774  21.515  0.00  0.00    +0.000 C 
ATOM     18  C   UNL     1       2.794   2.715  20.965  0.00  0.00    +0.000 C 
ENDBRANCH   1  18
BRANCH   1  19
ATOM     19  C   UNL     1       2.216   3.192  18.562  0.00  0.00    +0.000 C 
ATOM     20  C   UNL     1       2.809   2.059  17.756  0.00  0.00    +0.000 C 
ENDBRANCH   1  19
TORSDOF 3
ENDMDL
MODEL 2
REMARK VINA RESULT:      -7.4      0.832      1.163
REMARK  Name = 
REMARK  5 active torsions:
REMARK  status: ('A' for Active; 'I' for Inactive)
REMARK    1  A    between atoms: C_1  and  C_2
REMARK    2  A    between atoms: C_2  and  N_3
REMARK    3  A    between atoms: N_3  and  C_4
REMARK    4  A    between atoms: C_4  and  C_5
REMARK    5  A    between atoms: C_10  and  C_11
REMARK                            x       y       z     vdW  Elec       q    Type
REMARK                         _______ _______ _______ _____ _____    ______ ____
ROOT
ATOM      1  N   UNL     1       2.087   4.349  19.814  0.00  0.00    +0.000 NA
ATOM      2  C   UNL     1       3.601   4.259  19.799  0.00  0.00    +0.000 C 
ATOM      3  N   UNL     1       3.940   5.447  19.082  0.00  0.00    +0.000 N 
ATOM      4  C   UNL     1       2.882   6.352  19.152  0.00  0.00    +0.000 C 
ATOM      5  N   UNL     1       1.835   5.888  19.828  0.00  0.00    +0.000 NA
ATOM      6  C   UNL     1       2.875   7.574  18.319  0.00  0.00    +0.000 C 
ATOM      7  C   UNL     1       3.713   7.554  17.263  0.00  0.00    +0.000 C 
ATOM      8  C   UNL     1       4.627   6.428  16.990  0.00  0.00    +0.000 A 
ATOM      9  C   UNL     1       5.321   6.334  15.780  0.00  0.00    +0.000 A 
ATOM     10  C   UNL     1       6.164   5.247  15.533  0.00  0.00    +0.000 A 
ATOM     11  C   UNL     1       6.354   4.273  16.507  0.00  0.00    +0.000 A 
ATOM     12  C   UNL     1       5.671   4.361  17.717  0.00  0.00    +0.000 A 
ATOM     13  C   UNL     1       4.760   5.401  17.952  0.00  0.00    +0.000 A 
ENDROOT
BRANCH   6  14
ATOM     14  C   UNL     1       1.843   8.684  18.510  0.00  0.00    +0.000 C 
ATOM     15  O   UNL     1       1.493   9.277  17.453  0.00  0.00    +0.000 OA
ATOM     16  O   UNL     1       1.451   8.846  19.698  0.00  0.00    +0.000 OA
ENDBRANCH   6  14
BRANCH   1  18
ATOM     17  C   UNL     1       2.467   2.628  21.667  0.00  0.00    +0.000 C 
ATOM     18  C   UNL     1       1.499   3.554  20.959  0.00  0.00    +0.000 C 
ENDBRANCH   1  18
BRANCH   1  19
ATOM     19  C   UNL     1       1.418   3.910  18.469  0.00  0.00    +0.000 C 
ATOM     20  C   UNL     1       2.118   2.776  17.755  0.00  0.00    +0.000 C 
ENDBRANCH   1  19
TORSDOF 3
ENDMDL
MODEL 3
REMARK VINA RESULT:      -7.1      1.639      4.586
REMARK  Name = 
REMARK  5 active torsions:
REMARK  status: ('A' for Active; 'I' for Inactive)
REMARK    1  A    between atoms: C_1  and  C_2
REMARK    2  A    between atoms: C_2  and  N_3
REMARK    3  A    between atoms: N_3  and  C_4
REMARK    4  A    between atoms: C_4  and  C_5
REMARK    5  A    between atoms: C_10  and  C_11
REMARK                            x       y       z     vdW  Elec       q    Type
REMARK                         _______ _______ _______ _____ _____    ______ ____
ROOT
ATOM      1  N   UNL     1       5.832   5.417  17.219  0.00  0.00    +0.000 NA
ATOM      2  C   UNL     1       4.985   4.274  16.692  0.00  0.00    +0.000 C 
ATOM      3  N   UNL     1       3.695   4.638  17.184  0.00  0.00    +0.000 N 
ATOM      4  C   UNL     1       3.669   6.004  17.458  0.00  0.00    +0.000 C 
ATOM      5  N   UNL     1       4.829   6.611  17.227  0.00  0.00    +0.000 NA
ATOM      6  C   UNL     1       2.529   6.610  18.182  0.00  0.00    +0.000 C 
ATOM      7  C   UNL     1       1.756   5.742  18.865  0.00  0.00    +0.000 C 
ATOM      8  C   UNL     1       1.981   4.283  18.841  0.00  0.00    +0.000 A 
ATOM      9  C   UNL     1       1.308   3.431  19.723  0.00  0.00    +0.000 A 
ATOM     10  C   UNL     1       1.552   2.055  19.699  0.00  0.00    +0.000 A 
ATOM     11  C   UNL     1       2.434   1.517  18.767  0.00  0.00    +0.000 A 
ATOM     12  C   UNL     1       3.103   2.357  17.882  0.00  0.00    +0.000 A 
ATOM     13  C   UNL     1       2.932   3.748  17.944  0.00  0.00    +0.000 A 
ENDROOT
BRANCH   6  14
ATOM     14  C   UNL     1       2.365   8.122  18.325  0.00  0.00    +0.000 C 
ATOM     15  O   UNL     1       2.545   8.781  17.265  0.00  0.00    +0.000 OA
ATOM     16  O   UNL     1       2.042   8.515  19.479  0.00  0.00    +0.000 OA
ENDBRANCH   6  14
BRANCH   1  18
ATOM     17  C   UNL     1       7.077   4.925  15.041  0.00  0.00    +0.000 C 
ATOM     18  C   UNL     1       7.092   5.593  16.400  0.00  0.00    +0.000 C 
ENDBRANCH   1  18
BRANCH   1  19
ATOM     19  C   UNL     1       6.202   5.277  18.733  0.00  0.00    +0.000 C 
ATOM     20  C   UNL     1       7.570   5.804  19.102  0.00  0.00    +0.000 C 
ENDBRANCH   1  19
TORSDOF 3
ENDMDL
MODEL 4
REMARK VINA RESULT:      -7.0      1.497      4.704
REMARK  Name = 
REMARK  5 active torsions:
REMARK  status: ('A' for Active; 'I' for Inactive)
REMARK    1  A    between atoms: C_1  and  C_2
REMARK    2  A    between atoms: C_2  and  N_3
REMARK    3  A    between atoms: N_3  and  C_4
REMARK    4  A    between atoms: C_4  and  C_5
REMARK    5  A    between atoms: C_10  and  C_11
REMARK                            x       y       z     vdW  Elec       q    Type
REMARK                         _______ _______ _______ _____ _____    ______ ____
ROOT
ATOM      1  N   UNL     1       5.788   5.444  17.379  0.00  0.00    +0.000 NA
ATOM      2  C   UNL     1       4.979   4.162  17.419  0.00  0.00    +0.000 C 
ATOM      3  N   UNL     1       3.771   4.617  18.030  0.00  0.00    +0.000 N 
ATOM      4  C   UNL     1       3.658   5.997  17.868  0.00  0.00    +0.000 C 
ATOM      5  N   UNL     1       4.687   6.539  17.225  0.00  0.00    +0.000 NA
ATOM      6  C   UNL     1       2.616   6.761  18.588  0.00  0.00    +0.000 C 
ATOM      7  C   UNL     1       2.074   6.132  19.650  0.00  0.00    +0.000 C 
ATOM      8  C   UNL     1       2.437   4.753  20.032  0.00  0.00    +0.000 A 
ATOM      9  C   UNL     1       2.028   4.207  21.254  0.00  0.00    +0.000 A 
ATOM     10  C   UNL     1       2.402   2.908  21.606  0.00  0.00    +0.000 A 
ATOM     11  C   UNL     1       3.147   2.131  20.725  0.00  0.00    +0.000 A 
ATOM     12  C   UNL     1       3.553   2.663  19.505  0.00  0.00    +0.000 A 
ATOM     13  C   UNL     1       3.256   3.993  19.168  0.00  0.00    +0.000 A 
ENDROOT
BRANCH   6  14
ATOM     14  C   UNL     1       2.328   8.230  18.287  0.00  0.00    +0.000 C 
ATOM     15  O   UNL     1       2.581   8.594  17.106  0.00  0.00    +0.000 OA
ATOM     16  O   UNL     1       1.846   8.886  19.251  0.00  0.00    +0.000 OA
ENDBRANCH   6  14
BRANCH   1  18
ATOM     17  C   UNL     1       6.410   4.785  14.989  0.00  0.00    +0.000 C 
ATOM     18  C   UNL     1       6.851   5.393  16.304  0.00  0.00    +0.000 C 
ENDBRANCH   1  18
BRANCH   1  19
ATOM     19  C   UNL     1       6.443   5.816  18.751  0.00  0.00    +0.000 C 
ATOM     20  C   UNL     1       7.827   6.414  18.650  0.00  0.00    +0.000 C 
ENDBRANCH   1  19
TORSDOF 3
ENDMDL
MODEL 5
REMARK VINA RESULT:      -7.0      1.768      4.469
REMARK  Name = 
REMARK  5 active torsions:
REMARK  status: ('A' for Active; 'I' for Inactive)
REMARK    1  A    between atoms: C_1  and  C_2
REMARK    2  A    between atoms: C_2  and  N_3
REMARK    3  A    between atoms: N_3  and  C_4
REMARK    4  A    between atoms: C_4  and  C_5
REMARK    5  A    between atoms: C_10  and  C_11
REMARK                            x       y       z     vdW  Elec       q    Type
REMARK                         _______ _______ _______ _____ _____    ______ ____
ROOT
ATOM      1  N   UNL     1       6.077   6.061  17.693  0.00  0.00    +0.000 NA
ATOM      2  C   UNL     1       5.502   4.895  16.913  0.00  0.00    +0.000 C 
ATOM      3  N   UNL     1       4.108   5.042  17.189  0.00  0.00    +0.000 N 
ATOM      4  C   UNL     1       3.845   6.353  17.581  0.00  0.00    +0.000 C 
ATOM      5  N   UNL     1       4.932   7.117  17.626  0.00  0.00    +0.000 NA
ATOM      6  C   UNL     1       2.525   6.728  18.133  0.00  0.00    +0.000 C 
ATOM      7  C   UNL     1       1.775   5.700  18.576  0.00  0.00    +0.000 C 
ATOM      8  C   UNL     1       2.201   4.292  18.458  0.00  0.00    +0.000 A 
ATOM      9  C   UNL     1       1.512   3.268  19.116  0.00  0.00    +0.000 A 
ATOM     10  C   UNL     1       1.945   1.943  19.009  0.00  0.00    +0.000 A 
ATOM     11  C   UNL     1       3.040   1.628  18.211  0.00  0.00    +0.000 A 
ATOM     12  C   UNL     1       3.728   2.640  17.547  0.00  0.00    +0.000 A 
ATOM     13  C   UNL     1       3.357   3.984  17.707  0.00  0.00    +0.000 A 
ENDROOT
BRANCH   6  14
ATOM     14  C   UNL     1       2.131   8.183  18.384  0.00  0.00    +0.000 C 
ATOM     15  O   UNL     1       2.178   8.932  17.370  0.00  0.00    +0.000 OA
ATOM     16  O   UNL     1       1.779   8.441  19.568  0.00  0.00    +0.000 OA
ENDBRANCH   6  14
BRANCH   1  18
ATOM     17  C   UNL     1       7.794   7.930  17.382  0.00  0.00    +0.000 C 
ATOM     18  C   UNL     1       7.422   6.482  17.142  0.00  0.00    +0.000 C 
ENDBRANCH   1  18
BRANCH   1  19
ATOM     19  C   UNL     1       6.198   5.791  19.230  0.00  0.00    +0.000 C 
ATOM     20  C   UNL     1       7.594   5.466  19.708  0.00  0.00    +0.000 C 
ENDBRANCH   1  19
TORSDOF 3
ENDMDL
MODEL 6
REMARK VINA RESULT:      -6.9      2.660      3.873
REMARK  Name = 
REMARK  5 active torsions:
REMARK  status: ('A' for Active; 'I' for Inactive)
REMARK    1  A    between atoms: C_1  and  C_2
REMARK    2  A    between atoms: C_2  and  N_3
REMARK    3  A    between atoms: N_3  and  C_4
REMARK    4  A    between atoms: C_4  and  C_5
REMARK    5  A    between atoms: C_10  and  C_11
REMARK                            x       y       z     vdW  Elec       q    Type
REMARK                         _______ _______ _______ _____ _____    ______ ____
ROOT
ATOM      1  N   UNL     1       3.463   5.389  18.400  0.00  0.00    +0.000 NA
ATOM      2  C   UNL     1       3.618   4.173  17.508  0.00  0.00    +0.000 C 
ATOM      3  N   UNL     1       5.028   4.175  17.283  0.00  0.00    +0.000 N 
ATOM      4  C   UNL     1       5.660   4.900  18.292  0.00  0.00    +0.000 C 
ATOM      5  N   UNL     1       4.815   5.420  19.176  0.00  0.00    +0.000 NA
ATOM      6  C   UNL     1       7.095   5.248  18.190  0.00  0.00    +0.000 C 
ATOM      7  C   UNL     1       7.618   5.166  16.950  0.00  0.00    +0.000 C 
ATOM      8  C   UNL     1       6.843   4.698  15.785  0.00  0.00    +0.000 A 
ATOM      9  C   UNL     1       7.338   4.830  14.484  0.00  0.00    +0.000 A 
ATOM     10  C   UNL     1       6.578   4.400  13.393  0.00  0.00    +0.000 A 
ATOM     11  C   UNL     1       5.341   3.797  13.595  0.00  0.00    +0.000 A 
ATOM     12  C   UNL     1       4.843   3.656  14.887  0.00  0.00    +0.000 A 
ATOM     13  C   UNL     1       5.556   4.154  15.989  0.00  0.00    +0.000 A 
ENDROOT
BRANCH   6  14
ATOM     14  C   UNL     1       7.869   5.860  19.355  0.00  0.00    +0.000 C 
ATOM     15  O   UNL     1       8.423   6.966  19.107  0.00  0.00    +0.000 OA
ATOM     16  O   UNL     1       7.831   5.195  20.427  0.00  0.00    +0.000 OA
ENDBRANCH   6  14
BRANCH   1  18
ATOM     17  C   UNL     1       1.537   3.943  19.260  0.00  0.00    +0.000 C 
ATOM     18  C   UNL     1       2.203   5.303  19.234  0.00  0.00    +0.000 C 
ENDBRANCH   1  18
BRANCH   1  19
ATOM     19  C   UNL     1       3.489   6.746  17.622  0.00  0.00    +0.000 C 
ATOM     20  C   UNL     1       2.487   7.771  18.102  0.00  0.00    +0.000 C 
ENDBRANCH   1  19
TORSDOF 3
ENDMDL
MODEL 7
REMARK VINA RESULT:      -6.3      1.413      4.544
REMARK  Name = 
REMARK  5 active torsions:
REMARK  status: ('A' for Active; 'I' for Inactive)
REMARK    1  A    between atoms: C_1  and  C_2
REMARK    2  A    between atoms: C_2  and  N_3
REMARK    3  A    between atoms: N_3  and  C_4
REMARK    4  A    between atoms: C_4  and  C_5
REMARK    5  A    between atoms: C_10  and  C_11
REMARK                            x       y       z     vdW  Elec       q    Type
REMARK                         _______ _______ _______ _____ _____    ______ ____
ROOT
ATOM      1  N   UNL     1       4.768   5.925  17.011  0.00  0.00    +0.000 NA
ATOM      2  C   UNL     1       3.927   4.664  17.045  0.00  0.00    +0.000 C 
ATOM      3  N   UNL     1       2.954   5.008  18.032  0.00  0.00    +0.000 N 
ATOM      4  C   UNL     1       2.881   6.395  18.150  0.00  0.00    +0.000 C 
ATOM      5  N   UNL     1       3.731   7.038  17.355  0.00  0.00    +0.000 NA
ATOM      6  C   UNL     1       2.114   7.022  19.249  0.00  0.00    +0.000 C 
ATOM      7  C   UNL     1       1.840   6.214  20.292  0.00  0.00    +0.000 C 
ATOM      8  C   UNL     1       2.213   4.786  20.315  0.00  0.00    +0.000 A 
ATOM      9  C   UNL     1       2.114   4.029  21.486  0.00  0.00    +0.000 A 
ATOM     10  C   UNL     1       2.494   2.684  21.492  0.00  0.00    +0.000 A 
ATOM     11  C   UNL     1       2.930   2.075  20.320  0.00  0.00    +0.000 A 
ATOM     12  C   UNL     1       3.026   2.819  19.147  0.00  0.00    +0.000 A 
ATOM     13  C   UNL     1       2.726   4.190  19.141  0.00  0.00    +0.000 A 
ENDROOT
BRANCH   6  14
ATOM     14  C   UNL     1       1.842   8.525  19.299  0.00  0.00    +0.000 C 
ATOM     15  O   UNL     1       1.505   8.970  20.430  0.00  0.00    +0.000 OA
ATOM     16  O   UNL     1       2.018   9.133  18.207  0.00  0.00    +0.000 OA
ENDBRANCH   6  14
BRANCH   1  18
ATOM     17  C   UNL     1       5.643   4.784  14.897  0.00  0.00    +0.000 C 
ATOM     18  C   UNL     1       5.501   6.063  15.694  0.00  0.00    +0.000 C 
ENDBRANCH   1  18
BRANCH   1  19
ATOM     19  C   UNL     1       5.786   6.034  18.195  0.00  0.00    +0.000 C 
ATOM     20  C   UNL     1       6.410   4.723  18.615  0.00  0.00    +0.000 C 
ENDBRANCH   1  19
TORSDOF 3
ENDMDL
MODEL 8
REMARK VINA RESULT:      -6.3      1.548      4.670
REMARK  Name = 
REMARK  5 active torsions:
REMARK  status: ('A' for Active; 'I' for Inactive)
REMARK    1  A    between atoms: C_1  and  C_2
REMARK    2  A    between atoms: C_2  and  N_3
REMARK    3  A    between atoms: N_3  and  C_4
REMARK    4  A    between atoms: C_4  and  C_5
REMARK    5  A    between atoms: C_10  and  C_11
REMARK                            x       y       z     vdW  Elec       q    Type
REMARK                         _______ _______ _______ _____ _____    ______ ____
ROOT
ATOM      1  N   UNL     1       4.536   6.198  17.493  0.00  0.00    +0.000 NA
ATOM      2  C   UNL     1       3.601   5.048  17.170  0.00  0.00    +0.000 C 
ATOM      3  N   UNL     1       2.581   5.240  18.151  0.00  0.00    +0.000 N 
ATOM      4  C   UNL     1       2.604   6.560  18.596  0.00  0.00    +0.000 C 
ATOM      5  N   UNL     1       3.562   7.290  18.033  0.00  0.00    +0.000 NA
ATOM      6  C   UNL     1       1.801   6.979  19.766  0.00  0.00    +0.000 C 
ATOM      7  C   UNL     1       1.383   5.977  20.564  0.00  0.00    +0.000 C 
ATOM      8  C   UNL     1       1.642   4.555  20.263  0.00  0.00    +0.000 A 
ATOM      9  C   UNL     1       1.393   3.556  21.209  0.00  0.00    +0.000 A 
ATOM     10  C   UNL     1       1.667   2.219  20.912  0.00  0.00    +0.000 A 
ATOM     11  C   UNL     1       2.149   1.865  19.657  0.00  0.00    +0.000 A 
ATOM     12  C   UNL     1       2.395   2.852  18.706  0.00  0.00    +0.000 A 
ATOM     13  C   UNL     1       2.202   4.208  19.014  0.00  0.00    +0.000 A 
ENDROOT
BRANCH   6  14
ATOM     14  C   UNL     1       1.640   8.446  20.160  0.00  0.00    +0.000 C 
ATOM     15  O   UNL     1       1.399   9.234  19.205  0.00  0.00    +0.000 OA
ATOM     16  O   UNL     1       1.739   8.678  21.397  0.00  0.00    +0.000 OA
ENDBRANCH   6  14
BRANCH   1  18
ATOM     17  C   UNL     1       5.470   5.519  15.212  0.00  0.00    +0.000 C 
ATOM     18  C   UNL     1       5.381   6.573  16.295  0.00  0.00    +0.000 C 
ENDBRANCH   1  18
BRANCH   1  19
ATOM     19  C   UNL     1       5.459   5.929  18.727  0.00  0.00    +0.000 C 
ATOM     20  C   UNL     1       5.957   4.507  18.848  0.00  0.00    +0.000 C 
ENDBRANCH   1  19
TORSDOF 3
ENDMDL
MODEL 9
REMARK VINA RESULT:      -6.1      3.381      5.776
REMARK  Name = 
REMARK  5 active torsions:
REMARK  status: ('A' for Active; 'I' for Inactive)
REMARK    1  A    between atoms: C_1  and  C_2
REMARK    2  A    between atoms: C_2  and  N_3
REMARK    3  A    between atoms: N_3  and  C_4
REMARK    4  A    between atoms: C_4  and  C_5
REMARK    5  A    between atoms: C_10  and  C_11
REMARK                            x       y       z     vdW  Elec       q    Type
REMARK                         _______ _______ _______ _____ _____    ______ ____
ROOT
ATOM      1  N   UNL     1       7.119   6.752  17.769  0.00  0.00    +0.000 NA
ATOM      2  C   UNL     1       6.777   5.605  18.700  0.00  0.00    +0.000 C 
ATOM      3  N   UNL     1       6.262   4.646  17.776  0.00  0.00    +0.000 N 
ATOM      4  C   UNL     1       6.729   4.935  16.495  0.00  0.00    +0.000 C 
ATOM      5  N   UNL     1       7.496   6.019  16.445  0.00  0.00    +0.000 NA
ATOM      6  C   UNL     1       6.180   4.234  15.313  0.00  0.00    +0.000 C 
ATOM      7  C   UNL     1       4.994   3.624  15.507  0.00  0.00    +0.000 C 
ATOM      8  C   UNL     1       4.317   3.592  16.818  0.00  0.00    +0.000 A 
ATOM      9  C   UNL     1       2.997   3.147  16.943  0.00  0.00    +0.000 A 
ATOM     10  C   UNL     1       2.368   3.147  18.191  0.00  0.00    +0.000 A 
ATOM     11  C   UNL     1       3.064   3.546  19.326  0.00  0.00    +0.000 A 
ATOM     12  C   UNL     1       4.381   3.985  19.213  0.00  0.00    +0.000 A 
ATOM     13  C   UNL     1       5.003   4.069  17.958  0.00  0.00    +0.000 A 
ENDROOT
BRANCH   6  14
ATOM     14  C   UNL     1       6.799   4.372  13.924  0.00  0.00    +0.000 C 
ATOM     15  O   UNL     1       6.337   3.586  13.052  0.00  0.00    +0.000 OA
ATOM     16  O   UNL     1       7.672   5.276  13.819  0.00  0.00    +0.000 OA
ENDBRANCH   6  14
BRANCH   1  18
ATOM     17  C   UNL     1       8.157   9.086  17.880  0.00  0.00    +0.000 C 
ATOM     18  C   UNL     1       8.175   7.654  18.370  0.00  0.00    +0.000 C 
ENDBRANCH   1  18
BRANCH   1  19
ATOM     19  C   UNL     1       5.879   7.605  17.341  0.00  0.00    +0.000 C 
ATOM     20  C   UNL     1       4.606   7.294  18.095  0.00  0.00    +0.000 C 
ENDBRANCH   1  19
TORSDOF 3
ENDMDL
