MODEL 1
REMARK VINA RESULT:      -9.3      0.000      0.000
REMARK  Name = 
REMARK  4 active torsions:
REMARK  status: ('A' for Active; 'I' for Inactive)
REMARK    1  A    between atoms: C_1  and  C_2
REMARK    2  A    between atoms: C_4  and  C_5
REMARK    3  A    between atoms: C_11  and  C_12
REMARK    4  A    between atoms: C_20  and  C_21
REMARK                            x       y       z     vdW  Elec       q    Type
REMARK                         _______ _______ _______ _____ _____    ______ ____
ROOT
ATOM      1  C   UNL     1       4.477   4.298  19.108  0.00  0.00    +0.000 A 
ATOM      2  N   UNL     1       4.752   3.034  19.506  0.00  0.00    +0.000 NA
ATOM      3  N   UNL     1       3.952   2.426  20.427  0.00  0.00    +0.000 NA
ATOM      4  C   UNL     1       2.906   3.091  20.941  0.00  0.00    +0.000 A 
ATOM      5  N   UNL     1       2.141   2.493  21.923  0.00  0.00    +0.000 N 
ATOM      6  N   UNL     1       2.543   4.311  20.542  0.00  0.00    +0.000 NA
ATOM      7  C   UNL     1       3.325   4.920  19.607  0.00  0.00    +0.000 A 
ATOM      8  H   UNL     1       2.194   1.486  21.863  0.00  0.00    +0.000 HD
ATOM      9  H   UNL     1       1.224   2.915  21.967  0.00  0.00    +0.000 HD
ENDROOT
BRANCH   1  13
ATOM     10  C   UNL     1       6.701   4.495  14.606  0.00  0.00    +0.000 C 
ATOM     11  C   UNL     1       6.514   5.000  16.006  0.00  0.00    +0.000 A 
ATOM     12  C   UNL     1       5.596   4.410  16.866  0.00  0.00    +0.000 A 
ATOM     13  C   UNL     1       5.479   4.872  18.188  0.00  0.00    +0.000 A 
ATOM     14  C   UNL     1       6.358   5.889  18.586  0.00  0.00    +0.000 A 
ATOM     15  C   UNL     1       7.202   6.478  17.653  0.00  0.00    +0.000 A 
ATOM     16  C   UNL     1       8.035   7.668  18.019  0.00  0.00    +0.000 C 
ATOM     17  N   UNL     1       7.291   6.042  16.375  0.00  0.00    +0.000 NA
ENDBRANCH   1  13
BRANCH   7  18
ATOM     18  C   UNL     1       2.815   6.261  19.214  0.00  0.00    +0.000 A 
ATOM     19  C   UNL     1       2.986   6.796  17.920  0.00  0.00    +0.000 A 
ATOM     20  C   UNL     1       2.569   8.093  17.599  0.00  0.00    +0.000 A 
ATOM     21  C   UNL     1       1.907   8.863  18.547  0.00  0.00    +0.000 A 
ATOM     22  C   UNL     1       1.667   8.329  19.805  0.00  0.00    +0.000 A 
ATOM     23  F   UNL     1       1.001   9.057  20.712  0.00  0.00    +0.000 F 
ATOM     24  C   UNL     1       2.115   7.055  20.144  0.00  0.00    +0.000 A 
ENDBRANCH   7  18
TORSDOF 2
ENDMDL
MODEL 2
REMARK VINA RESULT:      -9.2      0.563      1.856
REMARK  Name = 
REMARK  4 active torsions:
REMARK  status: ('A' for Active; 'I' for Inactive)
REMARK    1  A    between atoms: C_1  and  C_2
REMARK    2  A    between atoms: C_4  and  C_5
REMARK    3  A    between atoms: C_11  and  C_12
REMARK    4  A    between atoms: C_20  and  C_21
REMARK                            x       y       z     vdW  Elec       q    Type
REMARK                         _______ _______ _______ _____ _____    ______ ____
ROOT
ATOM      1  C   UNL     1       3.976   4.440  19.022  0.00  0.00    +0.000 A 
ATOM      2  N   UNL     1       4.237   3.159  19.375  0.00  0.00    +0.000 NA
ATOM      3  N   UNL     1       3.528   2.579  20.385  0.00  0.00    +0.000 NA
ATOM      4  C   UNL     1       2.588   3.286  21.028  0.00  0.00    +0.000 A 
ATOM      5  N   UNL     1       1.922   2.713  22.094  0.00  0.00    +0.000 N 
ATOM      6  N   UNL     1       2.237   4.527  20.685  0.00  0.00    +0.000 NA
ATOM      7  C   UNL     1       2.926   5.110  19.663  0.00  0.00    +0.000 A 
ATOM      8  H   UNL     1       1.918   1.705  22.022  0.00  0.00    +0.000 HD
ATOM      9  H   UNL     1       1.039   3.178  22.254  0.00  0.00    +0.000 HD
ENDROOT
BRANCH   1  13
ATOM     10  C   UNL     1       7.687   7.521  17.610  0.00  0.00    +0.000 C 
ATOM     11  C   UNL     1       6.703   6.425  17.323  0.00  0.00    +0.000 A 
ATOM     12  C   UNL     1       5.828   5.970  18.301  0.00  0.00    +0.000 A 
ATOM     13  C   UNL     1       4.884   4.978  17.988  0.00  0.00    +0.000 A 
ATOM     14  C   UNL     1       4.842   4.536  16.660  0.00  0.00    +0.000 A 
ATOM     15  C   UNL     1       5.793   4.985  15.751  0.00  0.00    +0.000 A 
ATOM     16  C   UNL     1       5.862   4.410  14.370  0.00  0.00    +0.000 C 
ATOM     17  N   UNL     1       6.715   5.924  16.067  0.00  0.00    +0.000 NA
ENDBRANCH   1  13
BRANCH   7  18
ATOM     18  C   UNL     1       2.437   6.478  19.345  0.00  0.00    +0.000 A 
ATOM     19  C   UNL     1       2.459   7.014  18.041  0.00  0.00    +0.000 A 
ATOM     20  C   UNL     1       2.069   8.333  17.781  0.00  0.00    +0.000 A 
ATOM     21  C   UNL     1       1.581   9.128  18.811  0.00  0.00    +0.000 A 
ATOM     22  C   UNL     1       1.487   8.596  20.089  0.00  0.00    +0.000 A 
ATOM     23  F   UNL     1       0.988   9.350  21.079  0.00  0.00    +0.000 F 
ATOM     24  C   UNL     1       1.911   7.299  20.362  0.00  0.00    +0.000 A 
ENDBRANCH   7  18
TORSDOF 2
ENDMDL
MODEL 3
REMARK VINA RESULT:      -8.6      1.111      2.305
REMARK  Name = 
REMARK  4 active torsions:
REMARK  status: ('A' for Active; 'I' for Inactive)
REMARK    1  A    between atoms: C_1  and  C_2
REMARK    2  A    between atoms: C_4  and  C_5
REMARK    3  A    between atoms: C_11  and  C_12
REMARK    4  A    between atoms: C_20  and  C_21
REMARK                            x       y       z     vdW  Elec       q    Type
REMARK                         _______ _______ _______ _____ _____    ______ ____
ROOT
ATOM      1  C   UNL     1       3.807   4.304  19.328  0.00  0.00    +0.000 A 
ATOM      2  N   UNL     1       3.994   2.990  19.596  0.00  0.00    +0.000 NA
ATOM      3  N   UNL     1       3.225   2.376  20.539  0.00  0.00    +0.000 NA
ATOM      4  C   UNL     1       2.298   3.082  21.203  0.00  0.00    +0.000 A 
ATOM      5  N   UNL     1       1.570   2.469  22.203  0.00  0.00    +0.000 N 
ATOM      6  N   UNL     1       2.018   4.360  20.939  0.00  0.00    +0.000 NA
ATOM      7  C   UNL     1       2.768   4.978  19.984  0.00  0.00    +0.000 A 
ATOM      8  H   UNL     1       1.521   1.470  22.059  0.00  0.00    +0.000 HD
ATOM      9  H   UNL     1       0.705   2.964  22.369  0.00  0.00    +0.000 HD
ENDROOT
BRANCH   1  13
ATOM     10  C   UNL     1       7.911   7.016  18.302  0.00  0.00    +0.000 C 
ATOM     11  C   UNL     1       6.777   6.131  17.878  0.00  0.00    +0.000 A 
ATOM     12  C   UNL     1       5.854   5.653  18.799  0.00  0.00    +0.000 A 
ATOM     13  C   UNL     1       4.773   4.867  18.364  0.00  0.00    +0.000 A 
ATOM     14  C   UNL     1       4.656   4.656  16.984  0.00  0.00    +0.000 A 
ATOM     15  C   UNL     1       5.654   5.106  16.128  0.00  0.00    +0.000 A 
ATOM     16  C   UNL     1       5.628   4.757  14.672  0.00  0.00    +0.000 C 
ATOM     17  N   UNL     1       6.705   5.842  16.559  0.00  0.00    +0.000 NA
ENDBRANCH   1  13
BRANCH   7  18
ATOM     18  C   UNL     1       2.355   6.387  19.750  0.00  0.00    +0.000 A 
ATOM     19  C   UNL     1       1.783   7.194  20.755  0.00  0.00    +0.000 A 
ATOM     20  C   UNL     1       1.329   8.491  20.488  0.00  0.00    +0.000 A 
ATOM     21  C   UNL     1       1.499   9.039  19.222  0.00  0.00    +0.000 A 
ATOM     22  C   UNL     1       2.122   8.286  18.237  0.00  0.00    +0.000 A 
ATOM     23  F   UNL     1       2.316   8.822  17.024  0.00  0.00    +0.000 F 
ATOM     24  C   UNL     1       2.540   6.981  18.485  0.00  0.00    +0.000 A 
ENDBRANCH   7  18
TORSDOF 2
ENDMDL
MODEL 4
REMARK VINA RESULT:      -8.5      1.115      1.513
REMARK  Name = 
REMARK  4 active torsions:
REMARK  status: ('A' for Active; 'I' for Inactive)
REMARK    1  A    between atoms: C_1  and  C_2
REMARK    2  A    between atoms: C_4  and  C_5
REMARK    3  A    between atoms: C_11  and  C_12
REMARK    4  A    between atoms: C_20  and  C_21
REMARK                            x       y       z     vdW  Elec       q    Type
REMARK                         _______ _______ _______ _____ _____    ______ ____
ROOT
ATOM      1  C   UNL     1       3.875   4.175  19.390  0.00  0.00    +0.000 A 
ATOM      2  N   UNL     1       4.053   2.867  19.687  0.00  0.00    +0.000 NA
ATOM      3  N   UNL     1       3.279   2.279  20.643  0.00  0.00    +0.000 NA
ATOM      4  C   UNL     1       2.355   3.005  21.289  0.00  0.00    +0.000 A 
ATOM      5  N   UNL     1       1.622   2.420  22.302  0.00  0.00    +0.000 N 
ATOM      6  N   UNL     1       2.084   4.278  20.996  0.00  0.00    +0.000 NA
ATOM      7  C   UNL     1       2.839   4.870  20.028  0.00  0.00    +0.000 A 
ATOM      8  H   UNL     1       1.567   1.418  22.180  0.00  0.00    +0.000 HD
ATOM      9  H   UNL     1       0.760   2.924  22.455  0.00  0.00    +0.000 HD
ENDROOT
BRANCH   1  13
ATOM     10  C   UNL     1       5.545   4.672  14.676  0.00  0.00    +0.000 C 
ATOM     11  C   UNL     1       5.619   4.990  16.140  0.00  0.00    +0.000 A 
ATOM     12  C   UNL     1       4.720   4.434  17.043  0.00  0.00    +0.000 A 
ATOM     13  C   UNL     1       4.846   4.710  18.415  0.00  0.00    +0.000 A 
ATOM     14  C   UNL     1       5.932   5.503  18.806  0.00  0.00    +0.000 A 
ATOM     15  C   UNL     1       6.750   6.081  17.843  0.00  0.00    +0.000 A 
ATOM     16  C   UNL     1       7.820   7.055  18.231  0.00  0.00    +0.000 C 
ATOM     17  N   UNL     1       6.607   5.829  16.521  0.00  0.00    +0.000 NA
ENDBRANCH   1  13
BRANCH   7  18
ATOM     18  C   UNL     1       2.436   6.276  19.761  0.00  0.00    +0.000 A 
ATOM     19  C   UNL     1       1.848   7.103  20.741  0.00  0.00    +0.000 A 
ATOM     20  C   UNL     1       1.403   8.396  20.443  0.00  0.00    +0.000 A 
ATOM     21  C   UNL     1       1.598   8.921  19.171  0.00  0.00    +0.000 A 
ATOM     22  C   UNL     1       2.237   8.148  18.212  0.00  0.00    +0.000 A 
ATOM     23  F   UNL     1       2.455   8.662  16.993  0.00  0.00    +0.000 F 
ATOM     24  C   UNL     1       2.646   6.847  18.490  0.00  0.00    +0.000 A 
ENDBRANCH   7  18
TORSDOF 2
ENDMDL
MODEL 5
REMARK VINA RESULT:      -8.5      1.422      2.246
REMARK  Name = 
REMARK  4 active torsions:
REMARK  status: ('A' for Active; 'I' for Inactive)
REMARK    1  A    between atoms: C_1  and  C_2
REMARK    2  A    between atoms: C_4  and  C_5
REMARK    3  A    between atoms: C_11  and  C_12
REMARK    4  A    between atoms: C_20  and  C_21
REMARK                            x       y       z     vdW  Elec       q    Type
REMARK                         _______ _______ _______ _____ _____    ______ ____
ROOT
ATOM      1  C   UNL     1       3.915   3.916  17.659  0.00  0.00    +0.000 A 
ATOM      2  N   UNL     1       3.965   2.577  17.467  0.00  0.00    +0.000 NA
ATOM      3  N   UNL     1       2.985   1.783  17.984  0.00  0.00    +0.000 NA
ATOM      4  C   UNL     1       1.986   2.335  18.688  0.00  0.00    +0.000 A 
ATOM      5  N   UNL     1       1.034   1.517  19.265  0.00  0.00    +0.000 N 
ATOM      6  N   UNL     1       1.843   3.651  18.856  0.00  0.00    +0.000 NA
ATOM      7  C   UNL     1       2.807   4.455  18.326  0.00  0.00    +0.000 A 
ATOM      8  H   UNL     1       0.955   0.641  18.767  0.00  0.00    +0.000 HD
ATOM      9  H   UNL     1       0.185   2.033  19.448  0.00  0.00    +0.000 HD
ENDROOT
BRANCH   1  13
ATOM     10  C   UNL     1       7.851   6.964  18.350  0.00  0.00    +0.000 C 
ATOM     11  C   UNL     1       7.012   6.071  17.484  0.00  0.00    +0.000 A 
ATOM     12  C   UNL     1       5.884   5.435  17.987  0.00  0.00    +0.000 A 
ATOM     13  C   UNL     1       5.090   4.645  17.139  0.00  0.00    +0.000 A 
ATOM     14  C   UNL     1       5.460   4.591  15.789  0.00  0.00    +0.000 A 
ATOM     15  C   UNL     1       6.638   5.197  15.370  0.00  0.00    +0.000 A 
ATOM     16  C   UNL     1       7.132   5.021  13.967  0.00  0.00    +0.000 C 
ATOM     17  N   UNL     1       7.411   5.936  16.199  0.00  0.00    +0.000 NA
ENDBRANCH   1  13
BRANCH   7  18
ATOM     18  C   UNL     1       2.536   5.901  18.545  0.00  0.00    +0.000 A 
ATOM     19  C   UNL     1       2.619   6.860  17.514  0.00  0.00    +0.000 A 
ATOM     20  C   UNL     1       2.438   8.225  17.763  0.00  0.00    +0.000 A 
ATOM     21  C   UNL     1       2.102   8.660  19.040  0.00  0.00    +0.000 A 
ATOM     22  C   UNL     1       1.949   7.724  20.053  0.00  0.00    +0.000 A 
ATOM     23  F   UNL     1       1.594   8.136  21.279  0.00  0.00    +0.000 F 
ATOM     24  C   UNL     1       2.166   6.369  19.821  0.00  0.00    +0.000 A 
ENDBRANCH   7  18
TORSDOF 2
ENDMDL
MODEL 6
REMARK VINA RESULT:      -8.4      1.397      1.419
REMARK  Name = 
REMARK  4 active torsions:
REMARK  status: ('A' for Active; 'I' for Inactive)
REMARK    1  A    between atoms: C_1  and  C_2
REMARK    2  A    between atoms: C_4  and  C_5
REMARK    3  A    between atoms: C_11  and  C_12
REMARK    4  A    between atoms: C_20  and  C_21
REMARK                            x       y       z     vdW  Elec       q    Type
REMARK                         _______ _______ _______ _____ _____    ______ ____
ROOT
ATOM      1  C   UNL     1       3.972   3.818  17.716  0.00  0.00    +0.000 A 
ATOM      2  N   UNL     1       4.005   2.474  17.554  0.00  0.00    +0.000 NA
ATOM      3  N   UNL     1       3.001   1.707  18.066  0.00  0.00    +0.000 NA
ATOM      4  C   UNL     1       1.996   2.289  18.737  0.00  0.00    +0.000 A 
ATOM      5  N   UNL     1       1.019   1.499  19.310  0.00  0.00    +0.000 N 
ATOM      6  N   UNL     1       1.871   3.610  18.873  0.00  0.00    +0.000 NA
ATOM      7  C   UNL     1       2.859   4.388  18.348  0.00  0.00    +0.000 A 
ATOM      8  H   UNL     1       0.937   0.614  18.829  0.00  0.00    +0.000 HD
ATOM      9  H   UNL     1       0.174   2.032  19.463  0.00  0.00    +0.000 HD
ENDROOT
BRANCH   1  13
ATOM     10  C   UNL     1       7.104   4.997  13.967  0.00  0.00    +0.000 C 
ATOM     11  C   UNL     1       6.646   5.123  15.390  0.00  0.00    +0.000 A 
ATOM     12  C   UNL     1       5.543   4.417  15.856  0.00  0.00    +0.000 A 
ATOM     13  C   UNL     1       5.169   4.517  17.207  0.00  0.00    +0.000 A 
ATOM     14  C   UNL     1       5.985   5.297  18.036  0.00  0.00    +0.000 A 
ATOM     15  C   UNL     1       7.030   6.029  17.488  0.00  0.00    +0.000 A 
ATOM     16  C   UNL     1       7.816   6.988  18.329  0.00  0.00    +0.000 C 
ATOM     17  N   UNL     1       7.370   5.946  16.181  0.00  0.00    +0.000 NA
ENDBRANCH   1  13
BRANCH   7  18
ATOM     18  C   UNL     1       2.607   5.842  18.530  0.00  0.00    +0.000 A 
ATOM     19  C   UNL     1       2.749   6.781  17.487  0.00  0.00    +0.000 A 
ATOM     20  C   UNL     1       2.584   8.153  17.705  0.00  0.00    +0.000 A 
ATOM     21  C   UNL     1       2.205   8.617  18.959  0.00  0.00    +0.000 A 
ATOM     22  C   UNL     1       1.993   7.703  19.981  0.00  0.00    +0.000 A 
ATOM     23  F   UNL     1       1.596   8.143  21.184  0.00  0.00    +0.000 F 
ATOM     24  C   UNL     1       2.194   6.340  19.782  0.00  0.00    +0.000 A 
ENDBRANCH   7  18
TORSDOF 2
ENDMDL
MODEL 7
REMARK VINA RESULT:      -8.3      2.574      6.269
REMARK  Name = 
REMARK  4 active torsions:
REMARK  status: ('A' for Active; 'I' for Inactive)
REMARK    1  A    between atoms: C_1  and  C_2
REMARK    2  A    between atoms: C_4  and  C_5
REMARK    3  A    between atoms: C_11  and  C_12
REMARK    4  A    between atoms: C_20  and  C_21
REMARK                            x       y       z     vdW  Elec       q    Type
REMARK                         _______ _______ _______ _____ _____    ______ ____
ROOT
ATOM      1  C   UNL     1       5.313   4.587  15.758  0.00  0.00    +0.000 A 
ATOM      2  N   UNL     1       4.920   3.960  14.624  0.00  0.00    +0.000 NA
ATOM      3  N   UNL     1       5.725   3.984  13.524  0.00  0.00    +0.000 NA
ATOM      4  C   UNL     1       6.895   4.639  13.571  0.00  0.00    +0.000 A 
ATOM      5  N   UNL     1       7.672   4.716  12.433  0.00  0.00    +0.000 N 
ATOM      6  N   UNL     1       7.369   5.219  14.675  0.00  0.00    +0.000 NA
ATOM      7  C   UNL     1       6.581   5.184  15.787  0.00  0.00    +0.000 A 
ATOM      8  H   UNL     1       7.485   3.943  11.810  0.00  0.00    +0.000 HD
ATOM      9  H   UNL     1       8.636   4.906  12.672  0.00  0.00    +0.000 HD
ENDROOT
BRANCH   1  13
ATOM     10  C   UNL     1       2.480   6.977  19.151  0.00  0.00    +0.000 C 
ATOM     11  C   UNL     1       2.906   5.730  18.434  0.00  0.00    +0.000 A 
ATOM     12  C   UNL     1       3.891   5.764  17.455  0.00  0.00    +0.000 A 
ATOM     13  C   UNL     1       4.305   4.572  16.836  0.00  0.00    +0.000 A 
ATOM     14  C   UNL     1       3.724   3.383  17.296  0.00  0.00    +0.000 A 
ATOM     15  C   UNL     1       2.696   3.431  18.229  0.00  0.00    +0.000 A 
ATOM     16  C   UNL     1       1.957   2.187  18.617  0.00  0.00    +0.000 C 
ATOM     17  N   UNL     1       2.287   4.586  18.802  0.00  0.00    +0.000 NA
ENDBRANCH   1  13
BRANCH   7  18
ATOM     18  C   UNL     1       7.216   5.832  16.965  0.00  0.00    +0.000 A 
ATOM     19  C   UNL     1       7.601   5.116  18.117  0.00  0.00    +0.000 A 
ATOM     20  C   UNL     1       8.122   5.761  19.244  0.00  0.00    +0.000 A 
ATOM     21  C   UNL     1       8.335   7.134  19.221  0.00  0.00    +0.000 A 
ATOM     22  C   UNL     1       8.027   7.847  18.071  0.00  0.00    +0.000 A 
ATOM     23  F   UNL     1       8.260   9.166  18.034  0.00  0.00    +0.000 F 
ATOM     24  C   UNL     1       7.471   7.217  16.961  0.00  0.00    +0.000 A 
ENDBRANCH   7  18
TORSDOF 2
ENDMDL
MODEL 8
REMARK VINA RESULT:      -8.3      2.541      6.074
REMARK  Name = 
REMARK  4 active torsions:
REMARK  status: ('A' for Active; 'I' for Inactive)
REMARK    1  A    between atoms: C_1  and  C_2
REMARK    2  A    between atoms: C_4  and  C_5
REMARK    3  A    between atoms: C_11  and  C_12
REMARK    4  A    between atoms: C_20  and  C_21
REMARK                            x       y       z     vdW  Elec       q    Type
REMARK                         _______ _______ _______ _____ _____    ______ ____
ROOT
ATOM      1  C   UNL     1       5.339   4.561  15.769  0.00  0.00    +0.000 A 
ATOM      2  N   UNL     1       4.950   3.926  14.638  0.00  0.00    +0.000 NA
ATOM      3  N   UNL     1       5.748   3.963  13.534  0.00  0.00    +0.000 NA
ATOM      4  C   UNL     1       6.906   4.639  13.572  0.00  0.00    +0.000 A 
ATOM      5  N   UNL     1       7.675   4.728  12.429  0.00  0.00    +0.000 N 
ATOM      6  N   UNL     1       7.377   5.228  14.673  0.00  0.00    +0.000 NA
ATOM      7  C   UNL     1       6.596   5.180  15.789  0.00  0.00    +0.000 A 
ATOM      8  H   UNL     1       7.497   3.950  11.809  0.00  0.00    +0.000 HD
ATOM      9  H   UNL     1       8.636   4.935  12.662  0.00  0.00    +0.000 HD
ENDROOT
BRANCH   1  13
ATOM     10  C   UNL     1       2.365   2.024  18.927  0.00  0.00    +0.000 C 
ATOM     11  C   UNL     1       2.945   3.307  18.407  0.00  0.00    +0.000 A 
ATOM     12  C   UNL     1       3.850   3.310  17.353  0.00  0.00    +0.000 A 
ATOM     13  C   UNL     1       4.337   4.530  16.854  0.00  0.00    +0.000 A 
ATOM     14  C   UNL     1       3.824   5.701  17.426  0.00  0.00    +0.000 A 
ATOM     15  C   UNL     1       2.974   5.621  18.522  0.00  0.00    +0.000 A 
ATOM     16  C   UNL     1       2.538   6.859  19.244  0.00  0.00    +0.000 C 
ATOM     17  N   UNL     1       2.528   4.441  19.012  0.00  0.00    +0.000 NA
ENDBRANCH   1  13
BRANCH   7  18
ATOM     18  C   UNL     1       7.226   5.841  16.963  0.00  0.00    +0.000 A 
ATOM     19  C   UNL     1       7.614   5.136  18.121  0.00  0.00    +0.000 A 
ATOM     20  C   UNL     1       8.131   5.793  19.244  0.00  0.00    +0.000 A 
ATOM     21  C   UNL     1       8.338   7.167  19.210  0.00  0.00    +0.000 A 
ATOM     22  C   UNL     1       8.027   7.869  18.054  0.00  0.00    +0.000 A 
ATOM     23  F   UNL     1       8.253   9.189  18.007  0.00  0.00    +0.000 F 
ATOM     24  C   UNL     1       7.475   7.228  16.949  0.00  0.00    +0.000 A 
ENDBRANCH   7  18
TORSDOF 2
ENDMDL
MODEL 9
REMARK VINA RESULT:      -8.2      2.845      5.539
REMARK  Name = 
REMARK  4 active torsions:
REMARK  status: ('A' for Active; 'I' for Inactive)
REMARK    1  A    between atoms: C_1  and  C_2
REMARK    2  A    between atoms: C_4  and  C_5
REMARK    3  A    between atoms: C_11  and  C_12
REMARK    4  A    between atoms: C_20  and  C_21
REMARK                            x       y       z     vdW  Elec       q    Type
REMARK                         _______ _______ _______ _____ _____    ______ ____
ROOT
ATOM      1  C   UNL     1       3.795   5.950  17.495  0.00  0.00    +0.000 A 
ATOM      2  N   UNL     1       4.628   6.432  16.543  0.00  0.00    +0.000 NA
ATOM      3  N   UNL     1       5.444   5.578  15.863  0.00  0.00    +0.000 NA
ATOM      4  C   UNL     1       5.424   4.269  16.151  0.00  0.00    +0.000 A 
ATOM      5  N   UNL     1       6.302   3.421  15.505  0.00  0.00    +0.000 N 
ATOM      6  N   UNL     1       4.581   3.722  17.029  0.00  0.00    +0.000 NA
ATOM      7  C   UNL     1       3.746   4.565  17.700  0.00  0.00    +0.000 A 
ATOM      8  H   UNL     1       6.578   3.796  14.608  0.00  0.00    +0.000 HD
ATOM      9  H   UNL     1       5.964   2.469  15.535  0.00  0.00    +0.000 HD
ENDROOT
BRANCH   1  13
ATOM     10  C   UNL     1       1.831  10.568  17.768  0.00  0.00    +0.000 C 
ATOM     11  C   UNL     1       2.057   9.196  18.334  0.00  0.00    +0.000 A 
ATOM     12  C   UNL     1       2.808   8.250  17.646  0.00  0.00    +0.000 A 
ATOM     13  C   UNL     1       3.045   6.992  18.225  0.00  0.00    +0.000 A 
ATOM     14  C   UNL     1       2.546   6.781  19.516  0.00  0.00    +0.000 A 
ATOM     15  C   UNL     1       1.747   7.747  20.115  0.00  0.00    +0.000 A 
ATOM     16  C   UNL     1       1.077   7.479  21.428  0.00  0.00    +0.000 C 
ATOM     17  N   UNL     1       1.503   8.948  19.541  0.00  0.00    +0.000 NA
ENDBRANCH   1  13
BRANCH   7  18
ATOM     18  C   UNL     1       2.832   3.851  18.630  0.00  0.00    +0.000 A 
ATOM     19  C   UNL     1       1.492   3.551  18.306  0.00  0.00    +0.000 A 
ATOM     20  C   UNL     1       0.628   2.951  19.229  0.00  0.00    +0.000 A 
ATOM     21  C   UNL     1       1.103   2.571  20.479  0.00  0.00    +0.000 A 
ATOM     22  C   UNL     1       2.437   2.794  20.791  0.00  0.00    +0.000 A 
ATOM     23  F   UNL     1       2.906   2.401  21.983  0.00  0.00    +0.000 F 
ATOM     24  C   UNL     1       3.291   3.427  19.893  0.00  0.00    +0.000 A 
ENDBRANCH   7  18
TORSDOF 2
ENDMDL
