MODEL 1
REMARK VINA RESULT:      -6.7      0.000      0.000
REMARK  Name = 
REMARK  4 active torsions:
REMARK  status: ('A' for Active; 'I' for Inactive)
REMARK    1  A    between atoms: N_1  and  C_2
REMARK    2  A    between atoms: N_5  and  C_6
REMARK    3  A    between atoms: C_6  and  C_7
REMARK    4  A    between atoms: C_15  and  C_16
REMARK                            x       y       z     vdW  Elec       q    Type
REMARK                         _______ _______ _______ _____ _____    ______ ____
ROOT
ATOM      1  C   UNL     1       1.120   9.659  19.212  0.00  0.00    +0.000 A 
ATOM      2  N   UNL     1       1.746   8.455  19.153  0.00  0.00    +0.000 NA
ATOM      3  C   UNL     1       1.766   7.654  20.233  0.00  0.00    +0.000 A 
ATOM      4  N   UNL     1       2.303   6.383  20.180  0.00  0.00    +0.000 N 
ATOM      5  N   UNL     1       1.212   7.939  21.412  0.00  0.00    +0.000 NA
ATOM      6  C   UNL     1       0.610   9.129  21.444  0.00  0.00    +0.000 A 
ATOM      7  S   UNL     1      -0.150   9.698  22.849  0.00  0.00    +0.000 S 
ATOM      8  C   UNL     1      -0.540  11.159  22.026  0.00  0.00    +0.000 A 
ATOM      9  N   UNL     1      -0.203  11.214  20.748  0.00  0.00    +0.000 NA
ATOM     10  C   UNL     1       0.500  10.049  20.419  0.00  0.00    +0.000 A 
ATOM     11  H   UNL     1       2.361   6.055  21.140  0.00  0.00    +0.000 HD
ENDROOT
BRANCH   8  12
ATOM     12  C   UNL     1      -1.160  12.237  22.757  0.00  0.00    +0.000 A 
ATOM     13  C   UNL     1      -2.488  12.431  23.103  0.00  0.00    +0.000 A 
ATOM     14  C   UNL     1      -2.578  13.689  23.756  0.00  0.00    +0.000 A 
ATOM     15  C   UNL     1      -1.303  14.191  23.791  0.00  0.00    +0.000 A 
ATOM     16  O   UNL     1      -0.442  13.324  23.205  0.00  0.00    +0.000 OA
ENDBRANCH   8  12
BRANCH   1  17
ATOM     17  N   UNL     1       1.113  10.442  18.062  0.00  0.00    +0.000 N 
ATOM     18  H   UNL     1       0.916   9.889  17.235  0.00  0.00    +0.000 HD
ATOM     19  H   UNL     1       0.614  11.318  18.161  0.00  0.00    +0.000 HD
ENDBRANCH   1  17
BRANCH   4  20
ATOM     20  C   UNL     1       3.510   6.165  19.411  0.00  0.00    +0.000 C 
BRANCH  20  21
ATOM     21  C   UNL     1       3.648   4.833  18.716  0.00  0.00    +0.000 A 
ATOM     22  C   UNL     1       4.249   4.652  17.427  0.00  0.00    +0.000 A 
ATOM     23  C   UNL     1       4.189   3.347  16.988  0.00  0.00    +0.000 A 
ATOM     24  S   UNL     1       3.443   2.322  18.131  0.00  0.00    +0.000 S 
ATOM     25  C   UNL     1       3.186   3.622  19.210  0.00  0.00    +0.000 A 
ENDBRANCH  20  21
ENDBRANCH   4  20
TORSDOF 4
ENDMDL
MODEL 2
REMARK VINA RESULT:      -6.6      7.313      9.051
REMARK  Name = 
REMARK  4 active torsions:
REMARK  status: ('A' for Active; 'I' for Inactive)
REMARK    1  A    between atoms: N_1  and  C_2
REMARK    2  A    between atoms: N_5  and  C_6
REMARK    3  A    between atoms: C_6  and  C_7
REMARK    4  A    between atoms: C_15  and  C_16
REMARK                            x       y       z     vdW  Elec       q    Type
REMARK                         _______ _______ _______ _____ _____    ______ ____
ROOT
ATOM      1  C   UNL     1       5.661   6.588  16.237  0.00  0.00    +0.000 A 
ATOM      2  N   UNL     1       6.694   7.393  16.594  0.00  0.00    +0.000 NA
ATOM      3  C   UNL     1       7.186   7.339  17.845  0.00  0.00    +0.000 A 
ATOM      4  N   UNL     1       8.300   8.067  18.214  0.00  0.00    +0.000 N 
ATOM      5  N   UNL     1       6.737   6.542  18.815  0.00  0.00    +0.000 NA
ATOM      6  C   UNL     1       5.718   5.767  18.438  0.00  0.00    +0.000 A 
ATOM      7  S   UNL     1       4.984   4.684  19.517  0.00  0.00    +0.000 S 
ATOM      8  C   UNL     1       3.876   4.229  18.281  0.00  0.00    +0.000 A 
ATOM      9  N   UNL     1       4.070   4.782  17.095  0.00  0.00    +0.000 NA
ATOM     10  C   UNL     1       5.117   5.705  17.195  0.00  0.00    +0.000 A 
ATOM     11  H   UNL     1       8.365   7.998  19.227  0.00  0.00    +0.000 HD
ENDROOT
BRANCH   8  12
ATOM     12  C   UNL     1       2.796   3.327  18.598  0.00  0.00    +0.000 A 
ATOM     13  C   UNL     1       1.502   3.278  18.105  0.00  0.00    +0.000 A 
ATOM     14  C   UNL     1       0.820   2.245  18.801  0.00  0.00    +0.000 A 
ATOM     15  C   UNL     1       1.733   1.706  19.670  0.00  0.00    +0.000 A 
ATOM     16  O   UNL     1       2.925   2.338  19.549  0.00  0.00    +0.000 OA
ENDBRANCH   8  12
BRANCH   1  17
ATOM     17  N   UNL     1       5.200   6.670  14.927  0.00  0.00    +0.000 N 
ATOM     18  H   UNL     1       5.963   6.637  14.260  0.00  0.00    +0.000 HD
ATOM     19  H   UNL     1       4.393   6.088  14.735  0.00  0.00    +0.000 HD
ENDBRANCH   1  17
BRANCH   4  20
ATOM     20  C   UNL     1       8.456   9.413  17.706  0.00  0.00    +0.000 C 
BRANCH  20  21
ATOM     21  C   UNL     1       9.277  10.368  18.538  0.00  0.00    +0.000 A 
ATOM     22  C   UNL     1      10.260  11.265  18.004  0.00  0.00    +0.000 A 
ATOM     23  C   UNL     1      10.916  11.981  18.982  0.00  0.00    +0.000 A 
ATOM     24  S   UNL     1      10.336  11.610  20.544  0.00  0.00    +0.000 S 
ATOM     25  C   UNL     1       9.216  10.481  19.918  0.00  0.00    +0.000 A 
ENDBRANCH  20  21
ENDBRANCH   4  20
TORSDOF 4
ENDMDL
MODEL 3
REMARK VINA RESULT:      -6.6      6.721      8.724
REMARK  Name = 
REMARK  4 active torsions:
REMARK  status: ('A' for Active; 'I' for Inactive)
REMARK    1  A    between atoms: N_1  and  C_2
REMARK    2  A    between atoms: N_5  and  C_6
REMARK    3  A    between atoms: C_6  and  C_7
REMARK    4  A    between atoms: C_15  and  C_16
REMARK                            x       y       z     vdW  Elec       q    Type
REMARK                         _______ _______ _______ _____ _____    ______ ____
ROOT
ATOM      1  C   UNL     1       7.160   4.419  17.085  0.00  0.00    +0.000 A 
ATOM      2  N   UNL     1       7.317   4.781  15.785  0.00  0.00    +0.000 NA
ATOM      3  C   UNL     1       6.247   5.136  15.052  0.00  0.00    +0.000 A 
ATOM      4  N   UNL     1       6.380   5.606  13.761  0.00  0.00    +0.000 N 
ATOM      5  N   UNL     1       4.989   5.164  15.492  0.00  0.00    +0.000 NA
ATOM      6  C   UNL     1       4.863   4.799  16.769  0.00  0.00    +0.000 A 
ATOM      7  S   UNL     1       3.348   4.751  17.531  0.00  0.00    +0.000 S 
ATOM      8  C   UNL     1       4.107   4.182  18.967  0.00  0.00    +0.000 A 
ATOM      9  N   UNL     1       5.426   4.099  18.933  0.00  0.00    +0.000 NA
ATOM     10  C   UNL     1       5.863   4.420  17.643  0.00  0.00    +0.000 A 
ATOM     11  H   UNL     1       5.442   5.635  13.367  0.00  0.00    +0.000 HD
ENDROOT
BRANCH   8  12
ATOM     12  C   UNL     1       3.290   3.796  20.092  0.00  0.00    +0.000 A 
ATOM     13  C   UNL     1       2.333   4.519  20.787  0.00  0.00    +0.000 A 
ATOM     14  C   UNL     1       1.876   3.701  21.855  0.00  0.00    +0.000 A 
ATOM     15  C   UNL     1       2.562   2.519  21.749  0.00  0.00    +0.000 A 
ATOM     16  O   UNL     1       3.404   2.559  20.688  0.00  0.00    +0.000 OA
ENDBRANCH   8  12
BRANCH   1  17
ATOM     17  N   UNL     1       8.301   4.077  17.803  0.00  0.00    +0.000 N 
ATOM     18  H   UNL     1       8.478   4.733  18.557  0.00  0.00    +0.000 HD
ATOM     19  H   UNL     1       8.371   3.091  18.023  0.00  0.00    +0.000 HD
ENDBRANCH   1  17
BRANCH   4  20
ATOM     20  C   UNL     1       7.362   4.995  12.891  0.00  0.00    +0.000 C 
BRANCH  20  21
ATOM     21  C   UNL     1       6.950   3.735  12.171  0.00  0.00    +0.000 A 
ATOM     22  C   UNL     1       5.599   3.266  12.070  0.00  0.00    +0.000 A 
ATOM     23  C   UNL     1       5.500   2.056  11.419  0.00  0.00    +0.000 A 
ATOM     24  S   UNL     1       7.022   1.487  10.892  0.00  0.00    +0.000 S 
ATOM     25  C   UNL     1       7.817   2.851  11.547  0.00  0.00    +0.000 A 
ENDBRANCH  20  21
ENDBRANCH   4  20
TORSDOF 4
ENDMDL
MODEL 4
REMARK VINA RESULT:      -6.4      3.159      8.708
REMARK  Name = 
REMARK  4 active torsions:
REMARK  status: ('A' for Active; 'I' for Inactive)
REMARK    1  A    between atoms: N_1  and  C_2
REMARK    2  A    between atoms: N_5  and  C_6
REMARK    3  A    between atoms: C_6  and  C_7
REMARK    4  A    between atoms: C_15  and  C_16
REMARK                            x       y       z     vdW  Elec       q    Type
REMARK                         _______ _______ _______ _____ _____    ______ ____
ROOT
ATOM      1  C   UNL     1       1.945   9.010  18.407  0.00  0.00    +0.000 A 
ATOM      2  N   UNL     1       1.254   9.181  19.563  0.00  0.00    +0.000 NA
ATOM      3  C   UNL     1       1.342   8.263  20.542  0.00  0.00    +0.000 A 
ATOM      4  N   UNL     1       0.736   8.454  21.767  0.00  0.00    +0.000 N 
ATOM      5  N   UNL     1       2.070   7.148  20.486  0.00  0.00    +0.000 NA
ATOM      6  C   UNL     1       2.734   7.002  19.338  0.00  0.00    +0.000 A 
ATOM      7  S   UNL     1       3.713   5.647  19.049  0.00  0.00    +0.000 S 
ATOM      8  C   UNL     1       4.061   6.256  17.477  0.00  0.00    +0.000 A 
ATOM      9  N   UNL     1       3.551   7.441  17.187  0.00  0.00    +0.000 NA
ATOM     10  C   UNL     1       2.748   7.858  18.255  0.00  0.00    +0.000 A 
ATOM     11  H   UNL     1       0.796   7.566  22.259  0.00  0.00    +0.000 HD
ENDROOT
BRANCH   8  12
ATOM     12  C   UNL     1       4.834   5.451  16.563  0.00  0.00    +0.000 A 
ATOM     13  C   UNL     1       5.081   4.087  16.568  0.00  0.00    +0.000 A 
ATOM     14  C   UNL     1       5.963   3.810  15.490  0.00  0.00    +0.000 A 
ATOM     15  C   UNL     1       6.197   5.012  14.873  0.00  0.00    +0.000 A 
ATOM     16  O   UNL     1       5.516   6.001  15.500  0.00  0.00    +0.000 OA
ENDBRANCH   8  12
BRANCH   1  17
ATOM     17  N   UNL     1       1.832   9.996  17.433  0.00  0.00    +0.000 N 
ATOM     18  H   UNL     1       0.879  10.085  17.100  0.00  0.00    +0.000 HD
ATOM     19  H   UNL     1       2.326  10.853  17.653  0.00  0.00    +0.000 HD
ENDBRANCH   1  17
BRANCH   4  20
ATOM     20  C   UNL     1      -0.577   9.062  21.812  0.00  0.00    +0.000 C 
BRANCH  20  21
ATOM     21  C   UNL     1      -0.637  10.544  22.090  0.00  0.00    +0.000 A 
ATOM     22  C   UNL     1      -1.400  11.137  23.150  0.00  0.00    +0.000 A 
ATOM     23  C   UNL     1      -1.338  12.514  23.147  0.00  0.00    +0.000 A 
ATOM     24  S   UNL     1      -0.339  13.106  21.895  0.00  0.00    +0.000 S 
ATOM     25  C   UNL     1       0.002  11.523  21.346  0.00  0.00    +0.000 A 
ENDBRANCH  20  21
ENDBRANCH   4  20
TORSDOF 4
ENDMDL
MODEL 5
REMARK VINA RESULT:      -6.3      2.529      3.183
REMARK  Name = 
REMARK  4 active torsions:
REMARK  status: ('A' for Active; 'I' for Inactive)
REMARK    1  A    between atoms: N_1  and  C_2
REMARK    2  A    between atoms: N_5  and  C_6
REMARK    3  A    between atoms: C_6  and  C_7
REMARK    4  A    between atoms: C_15  and  C_16
REMARK                            x       y       z     vdW  Elec       q    Type
REMARK                         _______ _______ _______ _____ _____    ______ ____
ROOT
ATOM      1  C   UNL     1       0.337   9.369  22.177  0.00  0.00    +0.000 A 
ATOM      2  N   UNL     1       0.868   8.168  21.827  0.00  0.00    +0.000 NA
ATOM      3  C   UNL     1       1.459   8.019  20.628  0.00  0.00    +0.000 A 
ATOM      4  N   UNL     1       2.098   6.846  20.280  0.00  0.00    +0.000 N 
ATOM      5  N   UNL     1       1.577   8.973  19.704  0.00  0.00    +0.000 NA
ATOM      6  C   UNL     1       1.042  10.139  20.072  0.00  0.00    +0.000 A 
ATOM      7  S   UNL     1       1.069  11.487  19.044  0.00  0.00    +0.000 S 
ATOM      8  C   UNL     1       0.200  12.386  20.227  0.00  0.00    +0.000 A 
ATOM      9  N   UNL     1      -0.040  11.763  21.368  0.00  0.00    +0.000 NA
ATOM     10  C   UNL     1       0.415  10.443  21.264  0.00  0.00    +0.000 A 
ATOM     11  H   UNL     1       2.303   6.914  19.286  0.00  0.00    +0.000 HD
ENDROOT
BRANCH   8  12
ATOM     12  C   UNL     1      -0.246  13.721  19.912  0.00  0.00    +0.000 A 
ATOM     13  C   UNL     1       0.114  14.558  18.867  0.00  0.00    +0.000 A 
ATOM     14  C   UNL     1      -0.561  15.792  19.059  0.00  0.00    +0.000 A 
ATOM     15  C   UNL     1      -1.310  15.643  20.198  0.00  0.00    +0.000 A 
ATOM     16  O   UNL     1      -1.138  14.401  20.712  0.00  0.00    +0.000 OA
ENDBRANCH   8  12
BRANCH   1  17
ATOM     17  N   UNL     1      -0.248   9.475  23.434  0.00  0.00    +0.000 N 
ATOM     18  H   UNL     1      -0.960  10.197  23.454  0.00  0.00    +0.000 HD
ATOM     19  H   UNL     1      -0.481   8.586  23.859  0.00  0.00    +0.000 HD
ENDBRANCH   1  17
BRANCH   4  20
ATOM     20  C   UNL     1       1.508   5.584  20.673  0.00  0.00    +0.000 C 
BRANCH  20  21
ATOM     21  C   UNL     1       1.640   4.435  19.704  0.00  0.00    +0.000 A 
ATOM     22  C   UNL     1       0.970   3.175  19.847  0.00  0.00    +0.000 A 
ATOM     23  C   UNL     1       1.313   2.272  18.864  0.00  0.00    +0.000 A 
ATOM     24  S   UNL     1       2.416   2.937  17.742  0.00  0.00    +0.000 S 
ATOM     25  C   UNL     1       2.447   4.429  18.576  0.00  0.00    +0.000 A 
ENDBRANCH  20  21
ENDBRANCH   4  20
TORSDOF 4
ENDMDL
MODEL 6
REMARK VINA RESULT:      -6.2      3.468      9.173
REMARK  Name = 
REMARK  4 active torsions:
REMARK  status: ('A' for Active; 'I' for Inactive)
REMARK    1  A    between atoms: N_1  and  C_2
REMARK    2  A    between atoms: N_5  and  C_6
REMARK    3  A    between atoms: C_6  and  C_7
REMARK    4  A    between atoms: C_15  and  C_16
REMARK                            x       y       z     vdW  Elec       q    Type
REMARK                         _______ _______ _______ _____ _____    ______ ____
ROOT
ATOM      1  C   UNL     1       2.229   6.029  20.431  0.00  0.00    +0.000 A 
ATOM      2  N   UNL     1       1.482   7.082  20.852  0.00  0.00    +0.000 NA
ATOM      3  C   UNL     1       1.421   8.202  20.109  0.00  0.00    +0.000 A 
ATOM      4  N   UNL     1       0.593   9.252  20.454  0.00  0.00    +0.000 N 
ATOM      5  N   UNL     1       2.053   8.392  18.952  0.00  0.00    +0.000 NA
ATOM      6  C   UNL     1       2.784   7.345  18.565  0.00  0.00    +0.000 A 
ATOM      7  S   UNL     1       3.681   7.375  17.126  0.00  0.00    +0.000 S 
ATOM      8  C   UNL     1       4.259   5.790  17.473  0.00  0.00    +0.000 A 
ATOM      9  N   UNL     1       3.763   5.216  18.557  0.00  0.00    +0.000 NA
ATOM     10  C   UNL     1       2.935   6.134  19.213  0.00  0.00    +0.000 A 
ATOM     11  H   UNL     1       0.852  10.031  19.854  0.00  0.00    +0.000 HD
ENDROOT
BRANCH   8  12
ATOM     12  C   UNL     1       5.255   5.199  16.615  0.00  0.00    +0.000 A 
ATOM     13  C   UNL     1       6.552   5.607  16.343  0.00  0.00    +0.000 A 
ATOM     14  C   UNL     1       7.083   4.715  15.373  0.00  0.00    +0.000 A 
ATOM     15  C   UNL     1       6.094   3.802  15.114  0.00  0.00    +0.000 A 
ATOM     16  O   UNL     1       4.997   4.074  15.862  0.00  0.00    +0.000 OA
ENDBRANCH   8  12
BRANCH   1  17
ATOM     17  N   UNL     1       2.246   4.888  21.227  0.00  0.00    +0.000 N 
ATOM     18  H   UNL     1       3.088   4.342  21.079  0.00  0.00    +0.000 HD
ATOM     19  H   UNL     1       1.963   5.049  22.187  0.00  0.00    +0.000 HD
ENDBRANCH   1  17
BRANCH   4  20
ATOM     20  C   UNL     1       0.456   9.607  21.851  0.00  0.00    +0.000 C 
BRANCH  20  21
ATOM     21  C   UNL     1      -0.280  10.886  22.163  0.00  0.00    +0.000 A 
ATOM     22  C   UNL     1      -1.339  10.995  23.124  0.00  0.00    +0.000 A 
ATOM     23  C   UNL     1      -1.891  12.257  23.171  0.00  0.00    +0.000 A 
ATOM     24  S   UNL     1      -1.122  13.331  22.088  0.00  0.00    +0.000 S 
ATOM     25  C   UNL     1      -0.060  12.107  21.544  0.00  0.00    +0.000 A 
ENDBRANCH  20  21
ENDBRANCH   4  20
TORSDOF 4
ENDMDL
MODEL 7
REMARK VINA RESULT:      -6.2      6.704      8.211
REMARK  Name = 
REMARK  4 active torsions:
REMARK  status: ('A' for Active; 'I' for Inactive)
REMARK    1  A    between atoms: N_1  and  C_2
REMARK    2  A    between atoms: N_5  and  C_6
REMARK    3  A    between atoms: C_6  and  C_7
REMARK    4  A    between atoms: C_15  and  C_16
REMARK                            x       y       z     vdW  Elec       q    Type
REMARK                         _______ _______ _______ _____ _____    ______ ____
ROOT
ATOM      1  C   UNL     1       7.816   5.527  19.351  0.00  0.00    +0.000 A 
ATOM      2  N   UNL     1       6.892   4.616  18.949  0.00  0.00    +0.000 NA
ATOM      3  C   UNL     1       6.018   4.931  17.976  0.00  0.00    +0.000 A 
ATOM      4  N   UNL     1       5.133   3.998  17.473  0.00  0.00    +0.000 N 
ATOM      5  N   UNL     1       5.962   6.101  17.341  0.00  0.00    +0.000 NA
ATOM      6  C   UNL     1       6.876   6.978  17.760  0.00  0.00    +0.000 A 
ATOM      7  S   UNL     1       6.977   8.536  17.096  0.00  0.00    +0.000 S 
ATOM      8  C   UNL     1       8.265   8.896  18.180  0.00  0.00    +0.000 A 
ATOM      9  N   UNL     1       8.670   7.902  18.951  0.00  0.00    +0.000 NA
ATOM     10  C   UNL     1       7.838   6.797  18.735  0.00  0.00    +0.000 A 
ATOM     11  H   UNL     1       4.476   4.511  16.890  0.00  0.00    +0.000 HD
ENDROOT
BRANCH   8  12
ATOM     12  C   UNL     1       8.796  10.237  18.223  0.00  0.00    +0.000 A 
ATOM     13  C   UNL     1       9.866  10.748  18.941  0.00  0.00    +0.000 A 
ATOM     14  C   UNL     1       9.923  12.143  18.684  0.00  0.00    +0.000 A 
ATOM     15  C   UNL     1       8.898  12.411  17.813  0.00  0.00    +0.000 A 
ATOM     16  O   UNL     1       8.223  11.273  17.520  0.00  0.00    +0.000 OA
ENDBRANCH   8  12
BRANCH   1  17
ATOM     17  N   UNL     1       8.707   5.147  20.349  0.00  0.00    +0.000 N 
ATOM     18  H   UNL     1       8.407   5.472  21.261  0.00  0.00    +0.000 HD
ATOM     19  H   UNL     1       9.019   4.186  20.281  0.00  0.00    +0.000 HD
ENDBRANCH   1  17
BRANCH   4  20
ATOM     20  C   UNL     1       4.506   3.065  18.384  0.00  0.00    +0.000 C 
BRANCH  20  21
ATOM     21  C   UNL     1       3.274   3.542  19.113  0.00  0.00    +0.000 A 
ATOM     22  C   UNL     1       1.979   2.939  18.994  0.00  0.00    +0.000 A 
ATOM     23  C   UNL     1       1.010   3.606  19.711  0.00  0.00    +0.000 A 
ATOM     24  S   UNL     1       1.651   4.943  20.561  0.00  0.00    +0.000 S 
ATOM     25  C   UNL     1       3.222   4.639  19.960  0.00  0.00    +0.000 A 
ENDBRANCH  20  21
ENDBRANCH   4  20
TORSDOF 4
ENDMDL
MODEL 8
REMARK VINA RESULT:      -6.2      0.861      1.044
REMARK  Name = 
REMARK  4 active torsions:
REMARK  status: ('A' for Active; 'I' for Inactive)
REMARK    1  A    between atoms: N_1  and  C_2
REMARK    2  A    between atoms: N_5  and  C_6
REMARK    3  A    between atoms: C_6  and  C_7
REMARK    4  A    between atoms: C_15  and  C_16
REMARK                            x       y       z     vdW  Elec       q    Type
REMARK                         _______ _______ _______ _____ _____    ______ ____
ROOT
ATOM      1  C   UNL     1       0.914   9.845  19.341  0.00  0.00    +0.000 A 
ATOM      2  N   UNL     1       1.519   8.629  19.326  0.00  0.00    +0.000 NA
ATOM      3  C   UNL     1       1.515   7.862  20.432  0.00  0.00    +0.000 A 
ATOM      4  N   UNL     1       2.030   6.582  20.423  0.00  0.00    +0.000 N 
ATOM      5  N   UNL     1       0.956   8.194  21.596  0.00  0.00    +0.000 NA
ATOM      6  C   UNL     1       0.375   9.395  21.584  0.00  0.00    +0.000 A 
ATOM      7  S   UNL     1      -0.388  10.022  22.963  0.00  0.00    +0.000 S 
ATOM      8  C   UNL     1      -0.744  11.463  22.091  0.00  0.00    +0.000 A 
ATOM      9  N   UNL     1      -0.394  11.470  20.815  0.00  0.00    +0.000 NA
ATOM     10  C   UNL     1       0.290  10.284  20.530  0.00  0.00    +0.000 A 
ATOM     11  H   UNL     1       2.073   6.283  21.395  0.00  0.00    +0.000 HD
ENDROOT
BRANCH   8  12
ATOM     12  C   UNL     1      -1.351  12.574  22.781  0.00  0.00    +0.000 A 
ATOM     13  C   UNL     1      -0.859  13.846  23.027  0.00  0.00    +0.000 A 
ATOM     14  C   UNL     1      -1.825  14.531  23.812  0.00  0.00    +0.000 A 
ATOM     15  C   UNL     1      -2.861  13.652  23.992  0.00  0.00    +0.000 A 
ATOM     16  O   UNL     1      -2.594  12.479  23.369  0.00  0.00    +0.000 OA
ENDBRANCH   8  12
BRANCH   1  17
ATOM     17  N   UNL     1       0.931  10.591  18.168  0.00  0.00    +0.000 N 
ATOM     18  H   UNL     1       1.264  10.042  17.382  0.00  0.00    +0.000 HD
ATOM     19  H   UNL     1       0.100  11.151  18.021  0.00  0.00    +0.000 HD
ENDBRANCH   1  17
BRANCH   4  20
ATOM     20  C   UNL     1       3.240   6.318  19.674  0.00  0.00    +0.000 C 
BRANCH  20  21
ATOM     21  C   UNL     1       3.281   5.044  18.866  0.00  0.00    +0.000 A 
ATOM     22  C   UNL     1       4.429   4.191  18.761  0.00  0.00    +0.000 A 
ATOM     23  C   UNL     1       4.228   3.127  17.909  0.00  0.00    +0.000 A 
ATOM     24  S   UNL     1       2.650   3.122  17.254  0.00  0.00    +0.000 S 
ATOM     25  C   UNL     1       2.238   4.550  18.097  0.00  0.00    +0.000 A 
ENDBRANCH  20  21
ENDBRANCH   4  20
TORSDOF 4
ENDMDL
MODEL 9
REMARK VINA RESULT:      -6.2      1.588      1.909
REMARK  Name = 
REMARK  4 active torsions:
REMARK  status: ('A' for Active; 'I' for Inactive)
REMARK    1  A    between atoms: N_1  and  C_2
REMARK    2  A    between atoms: N_5  and  C_6
REMARK    3  A    between atoms: C_6  and  C_7
REMARK    4  A    between atoms: C_15  and  C_16
REMARK                            x       y       z     vdW  Elec       q    Type
REMARK                         _______ _______ _______ _____ _____    ______ ____
ROOT
ATOM      1  C   UNL     1      -0.307  10.622  18.816  0.00  0.00    +0.000 A 
ATOM      2  N   UNL     1       0.615   9.669  18.519  0.00  0.00    +0.000 NA
ATOM      3  C   UNL     1       1.166   8.938  19.504  0.00  0.00    +0.000 A 
ATOM      4  N   UNL     1       2.028   7.895  19.231  0.00  0.00    +0.000 N 
ATOM      5  N   UNL     1       0.891   9.064  20.802  0.00  0.00    +0.000 NA
ATOM      6  C   UNL     1      -0.012  10.010  21.065  0.00  0.00    +0.000 A 
ATOM      7  S   UNL     1      -0.502  10.348  22.653  0.00  0.00    +0.000 S 
ATOM      8  C   UNL     1      -1.523  11.598  22.055  0.00  0.00    +0.000 A 
ATOM      9  N   UNL     1      -1.574  11.726  20.740  0.00  0.00    +0.000 NA
ATOM     10  C   UNL     1      -0.667  10.829  20.165  0.00  0.00    +0.000 A 
ATOM     11  H   UNL     1       2.439   7.621  20.121  0.00  0.00    +0.000 HD
ENDROOT
BRANCH   8  12
ATOM     12  C   UNL     1      -2.219  12.448  22.989  0.00  0.00    +0.000 A 
ATOM     13  C   UNL     1      -1.871  13.691  23.494  0.00  0.00    +0.000 A 
ATOM     14  C   UNL     1      -2.867  14.061  24.437  0.00  0.00    +0.000 A 
ATOM     15  C   UNL     1      -3.779  13.038  24.448  0.00  0.00    +0.000 A 
ATOM     16  O   UNL     1      -3.408  12.070  23.575  0.00  0.00    +0.000 OA
ENDBRANCH   8  12
BRANCH   1  17
ATOM     17  N   UNL     1      -0.859  11.339  17.760  0.00  0.00    +0.000 N 
ATOM     18  H   UNL     1      -1.302  10.726  17.084  0.00  0.00    +0.000 HD
ATOM     19  H   UNL     1      -1.376  12.162  18.044  0.00  0.00    +0.000 HD
ENDBRANCH   1  17
BRANCH   4  20
ATOM     20  C   UNL     1       2.991   8.043  18.161  0.00  0.00    +0.000 C 
BRANCH  20  21
ATOM     21  C   UNL     1       3.681   6.789  17.682  0.00  0.00    +0.000 A 
ATOM     22  C   UNL     1       4.829   6.776  16.822  0.00  0.00    +0.000 A 
ATOM     23  C   UNL     1       5.225   5.502  16.478  0.00  0.00    +0.000 A 
ATOM     24  S   UNL     1       4.245   4.309  17.208  0.00  0.00    +0.000 S 
ATOM     25  C   UNL     1       3.281   5.495  17.975  0.00  0.00    +0.000 A 
ENDBRANCH  20  21
ENDBRANCH   4  20
TORSDOF 4
ENDMDL
