MODEL 1
REMARK VINA RESULT:      -6.8      0.000      0.000
REMARK  Name = 
REMARK  7 active torsions:
REMARK  status: ('A' for Active; 'I' for Inactive)
REMARK    1  A    between atoms: C_1  and  O_2
REMARK    2  A    between atoms: O_2  and  C_3
REMARK    3  A    between atoms: C_6  and  C_7
REMARK    4  A    between atoms: C_10  and  S_11
REMARK    5  A    between atoms: S_11  and  C_12
REMARK    6  A    between atoms: C_13  and  N_14
REMARK    7  A    between atoms: N_19  and  C_20
REMARK                            x       y       z     vdW  Elec       q    Type
REMARK                         _______ _______ _______ _____ _____    ______ ____
ROOT
ATOM      1  C   UNL     1       2.759   7.083  18.646  0.00  0.00    +0.000 A 
ATOM      2  N   UNL     1       3.459   7.490  17.600  0.00  0.00    +0.000 NA
ATOM      3  N   UNL     1       4.119   6.461  16.961  0.00  0.00    +0.000 NA
ATOM      4  C   UNL     1       3.906   5.304  17.545  0.00  0.00    +0.000 A 
ATOM      5  S   UNL     1       2.921   5.389  18.940  0.00  0.00    +0.000 S 
ENDROOT
BRANCH   1   9
ATOM      6  C   UNL     1       0.226   9.723  20.928  0.00  0.00    +0.000 A 
ATOM      7  C   UNL     1       0.624  10.041  19.631  0.00  0.00    +0.000 A 
ATOM      8  C   UNL     1       1.441   9.169  18.904  0.00  0.00    +0.000 A 
ATOM      9  C   UNL     1       1.899   7.962  19.461  0.00  0.00    +0.000 A 
ATOM     10  C   UNL     1       1.503   7.664  20.774  0.00  0.00    +0.000 A 
ATOM     11  C   UNL     1       0.674   8.534  21.500  0.00  0.00    +0.000 A 
BRANCH   6  13
ATOM     12  C   UNL     1      -0.127  12.013  21.419  0.00  0.00    +0.000 C 
ATOM     13  O   UNL     1      -0.553  10.661  21.545  0.00  0.00    +0.000 OA
ENDBRANCH   6  13
ENDBRANCH   1   9
BRANCH   4  14
ATOM     14  S   UNL     1       4.513   3.815  16.859  0.00  0.00    +0.000 S 
BRANCH  14  15
ATOM     15  C   UNL     1       5.833   4.471  15.939  0.00  0.00    +0.000 A 
ATOM     16  C   UNL     1       7.023   5.076  16.305  0.00  0.00    +0.000 A 
ATOM     17  N   UNL     1       7.811   5.324  15.192  0.00  0.00    +0.000 NA
ATOM     18  C   UNL     1       7.113   4.878  14.175  0.00  0.00    +0.000 A 
ATOM     19  N   UNL     1       5.902   4.370  14.567  0.00  0.00    +0.000 N 
ATOM     20  C   UNL     1       4.918   3.837  13.654  0.00  0.00    +0.000 C 
BRANCH  16  21
ATOM     21  N   UNL     1       7.505   5.434  17.625  0.00  0.00    +0.000 N 
ATOM     22  O   UNL     1       7.836   4.509  18.381  0.00  0.00    +0.000 OA
ATOM     23  O   UNL     1       7.533   6.636  17.917  0.00  0.00    +0.000 OA
ENDBRANCH  16  21
ENDBRANCH  14  15
ENDBRANCH   4  14
TORSDOF 5
ENDMDL
MODEL 2
REMARK VINA RESULT:      -6.8      2.552      3.186
REMARK  Name = 
REMARK  7 active torsions:
REMARK  status: ('A' for Active; 'I' for Inactive)
REMARK    1  A    between atoms: C_1  and  O_2
REMARK    2  A    between atoms: O_2  and  C_3
REMARK    3  A    between atoms: C_6  and  C_7
REMARK    4  A    between atoms: C_10  and  S_11
REMARK    5  A    between atoms: S_11  and  C_12
REMARK    6  A    between atoms: C_13  and  N_14
REMARK    7  A    between atoms: N_19  and  C_20
REMARK                            x       y       z     vdW  Elec       q    Type
REMARK                         _______ _______ _______ _____ _____    ______ ____
ROOT
ATOM      1  C   UNL     1       1.914   8.082  19.600  0.00  0.00    +0.000 A 
ATOM      2  N   UNL     1       2.335   6.883  19.966  0.00  0.00    +0.000 NA
ATOM      3  N   UNL     1       3.178   6.302  19.042  0.00  0.00    +0.000 NA
ATOM      4  C   UNL     1       3.367   7.075  17.997  0.00  0.00    +0.000 A 
ATOM      5  S   UNL     1       2.499   8.548  18.043  0.00  0.00    +0.000 S 
ENDROOT
BRANCH   1   9
ATOM      6  C   UNL     1      -0.525  10.569  22.140  0.00  0.00    +0.000 A 
ATOM      7  C   UNL     1       0.116   9.436  22.635  0.00  0.00    +0.000 A 
ATOM      8  C   UNL     1       0.908   8.644  21.797  0.00  0.00    +0.000 A 
ATOM      9  C   UNL     1       1.066   8.954  20.434  0.00  0.00    +0.000 A 
ATOM     10  C   UNL     1       0.400  10.090  19.948  0.00  0.00    +0.000 A 
ATOM     11  C   UNL     1      -0.386  10.891  20.791  0.00  0.00    +0.000 A 
BRANCH   6  13
ATOM     12  C   UNL     1      -1.247  12.669  22.966  0.00  0.00    +0.000 C 
ATOM     13  O   UNL     1      -1.288  11.249  23.047  0.00  0.00    +0.000 OA
ENDBRANCH   6  13
ENDBRANCH   1   9
BRANCH   4  14
ATOM     14  S   UNL     1       4.501   6.642  16.739  0.00  0.00    +0.000 S 
BRANCH  14  15
ATOM     15  C   UNL     1       5.779   6.026  17.742  0.00  0.00    +0.000 A 
ATOM     16  C   UNL     1       5.959   4.821  18.400  0.00  0.00    +0.000 A 
ATOM     17  N   UNL     1       7.214   4.761  18.982  0.00  0.00    +0.000 NA
ATOM     18  C   UNL     1       7.784   5.905  18.683  0.00  0.00    +0.000 A 
ATOM     19  N   UNL     1       6.954   6.714  17.952  0.00  0.00    +0.000 N 
ATOM     20  C   UNL     1       7.309   8.042  17.508  0.00  0.00    +0.000 C 
BRANCH  16  21
ATOM     21  N   UNL     1       5.052   3.696  18.520  0.00  0.00    +0.000 N 
ATOM     22  O   UNL     1       4.420   3.361  17.508  0.00  0.00    +0.000 OA
ATOM     23  O   UNL     1       4.953   3.158  19.630  0.00  0.00    +0.000 OA
ENDBRANCH  16  21
ENDBRANCH  14  15
ENDBRANCH   4  14
TORSDOF 5
ENDMDL
MODEL 3
REMARK VINA RESULT:      -6.8      2.558      3.454
REMARK  Name = 
REMARK  7 active torsions:
REMARK  status: ('A' for Active; 'I' for Inactive)
REMARK    1  A    between atoms: C_1  and  O_2
REMARK    2  A    between atoms: O_2  and  C_3
REMARK    3  A    between atoms: C_6  and  C_7
REMARK    4  A    between atoms: C_10  and  S_11
REMARK    5  A    between atoms: S_11  and  C_12
REMARK    6  A    between atoms: C_13  and  N_14
REMARK    7  A    between atoms: N_19  and  C_20
REMARK                            x       y       z     vdW  Elec       q    Type
REMARK                         _______ _______ _______ _____ _____    ______ ____
ROOT
ATOM      1  C   UNL     1       1.550   8.355  20.114  0.00  0.00    +0.000 A 
ATOM      2  N   UNL     1       1.901   7.203  20.659  0.00  0.00    +0.000 NA
ATOM      3  N   UNL     1       2.623   6.399  19.801  0.00  0.00    +0.000 NA
ATOM      4  C   UNL     1       2.790   6.963  18.627  0.00  0.00    +0.000 A 
ATOM      5  S   UNL     1       2.048   8.494  18.467  0.00  0.00    +0.000 S 
ENDROOT
BRANCH   1   9
ATOM      6  C   UNL     1      -0.539  11.420  22.314  0.00  0.00    +0.000 A 
ATOM      7  C   UNL     1      -0.483  10.107  22.775  0.00  0.00    +0.000 A 
ATOM      8  C   UNL     1       0.205   9.127  22.051  0.00  0.00    +0.000 A 
ATOM      9  C   UNL     1       0.840   9.430  20.834  0.00  0.00    +0.000 A 
ATOM     10  C   UNL     1       0.760  10.754  20.374  0.00  0.00    +0.000 A 
ATOM     11  C   UNL     1       0.079  11.740  21.107  0.00  0.00    +0.000 A 
BRANCH   6  13
ATOM     12  C   UNL     1      -2.637  11.977  23.262  0.00  0.00    +0.000 C 
ATOM     13  O   UNL     1      -1.257  12.281  23.095  0.00  0.00    +0.000 OA
ENDBRANCH   6  13
ENDBRANCH   1   9
BRANCH   4  14
ATOM     14  S   UNL     1       3.787   6.220  17.397  0.00  0.00    +0.000 S 
BRANCH  14  15
ATOM     15  C   UNL     1       4.083   4.700  18.185  0.00  0.00    +0.000 A 
ATOM     16  C   UNL     1       5.193   4.173  18.823  0.00  0.00    +0.000 A 
ATOM     17  N   UNL     1       4.893   2.951  19.403  0.00  0.00    +0.000 NA
ATOM     18  C   UNL     1       3.629   2.742  19.122  0.00  0.00    +0.000 A 
ATOM     19  N   UNL     1       3.095   3.758  18.372  0.00  0.00    +0.000 N 
ATOM     20  C   UNL     1       1.732   3.777  17.896  0.00  0.00    +0.000 C 
BRANCH  16  21
ATOM     21  N   UNL     1       6.525   4.729  18.956  0.00  0.00    +0.000 N 
ATOM     22  O   UNL     1       6.742   5.466  19.929  0.00  0.00    +0.000 OA
ATOM     23  O   UNL     1       7.352   4.447  18.080  0.00  0.00    +0.000 OA
ENDBRANCH  16  21
ENDBRANCH  14  15
ENDBRANCH   4  14
TORSDOF 5
ENDMDL
MODEL 4
REMARK VINA RESULT:      -6.8      2.508      3.231
REMARK  Name = 
REMARK  7 active torsions:
REMARK  status: ('A' for Active; 'I' for Inactive)
REMARK    1  A    between atoms: C_1  and  O_2
REMARK    2  A    between atoms: O_2  and  C_3
REMARK    3  A    between atoms: C_6  and  C_7
REMARK    4  A    between atoms: C_10  and  S_11
REMARK    5  A    between atoms: S_11  and  C_12
REMARK    6  A    between atoms: C_13  and  N_14
REMARK    7  A    between atoms: N_19  and  C_20
REMARK                            x       y       z     vdW  Elec       q    Type
REMARK                         _______ _______ _______ _____ _____    ______ ____
ROOT
ATOM      1  C   UNL     1       1.404   8.443  20.115  0.00  0.00    +0.000 A 
ATOM      2  N   UNL     1       1.811   7.281  20.598  0.00  0.00    +0.000 NA
ATOM      3  N   UNL     1       2.616   6.585  19.720  0.00  0.00    +0.000 NA
ATOM      4  C   UNL     1       2.788   7.236  18.593  0.00  0.00    +0.000 A 
ATOM      5  S   UNL     1       1.952   8.724  18.502  0.00  0.00    +0.000 S 
ENDROOT
BRANCH   1   9
ATOM      6  C   UNL     1      -0.957  11.368  22.228  0.00  0.00    +0.000 A 
ATOM      7  C   UNL     1      -0.431  11.635  20.966  0.00  0.00    +0.000 A 
ATOM      8  C   UNL     1       0.327  10.672  20.293  0.00  0.00    +0.000 A 
ATOM      9  C   UNL     1       0.598   9.420  20.873  0.00  0.00    +0.000 A 
ATOM     10  C   UNL     1       0.076   9.173  22.152  0.00  0.00    +0.000 A 
ATOM     11  C   UNL     1      -0.695  10.136  22.823  0.00  0.00    +0.000 A 
BRANCH   6  13
ATOM     12  C   UNL     1      -2.818  12.028  23.537  0.00  0.00    +0.000 C 
ATOM     13  O   UNL     1      -1.661  12.394  22.794  0.00  0.00    +0.000 OA
ENDBRANCH   6  13
ENDBRANCH   1   9
BRANCH   4  14
ATOM     14  S   UNL     1       3.876   6.643  17.358  0.00  0.00    +0.000 S 
BRANCH  14  15
ATOM     15  C   UNL     1       4.348   5.155  18.122  0.00  0.00    +0.000 A 
ATOM     16  C   UNL     1       5.472   4.784  18.840  0.00  0.00    +0.000 A 
ATOM     17  N   UNL     1       5.328   3.505  19.352  0.00  0.00    +0.000 NA
ATOM     18  C   UNL     1       4.143   3.110  18.953  0.00  0.00    +0.000 A 
ATOM     19  N   UNL     1       3.516   4.061  18.191  0.00  0.00    +0.000 N 
ATOM     20  C   UNL     1       2.212   3.884  17.595  0.00  0.00    +0.000 C 
BRANCH  16  21
ATOM     21  N   UNL     1       6.681   5.538  19.109  0.00  0.00    +0.000 N 
ATOM     22  O   UNL     1       7.102   6.283  18.211  0.00  0.00    +0.000 OA
ATOM     23  O   UNL     1       7.225   5.373  20.208  0.00  0.00    +0.000 OA
ENDBRANCH  16  21
ENDBRANCH  14  15
ENDBRANCH   4  14
TORSDOF 5
ENDMDL
MODEL 5
REMARK VINA RESULT:      -6.7      1.863      2.227
REMARK  Name = 
REMARK  7 active torsions:
REMARK  status: ('A' for Active; 'I' for Inactive)
REMARK    1  A    between atoms: C_1  and  O_2
REMARK    2  A    between atoms: O_2  and  C_3
REMARK    3  A    between atoms: C_6  and  C_7
REMARK    4  A    between atoms: C_10  and  S_11
REMARK    5  A    between atoms: S_11  and  C_12
REMARK    6  A    between atoms: C_13  and  N_14
REMARK    7  A    between atoms: N_19  and  C_20
REMARK                            x       y       z     vdW  Elec       q    Type
REMARK                         _______ _______ _______ _____ _____    ______ ____
ROOT
ATOM      1  C   UNL     1       2.434   6.960  19.384  0.00  0.00    +0.000 A 
ATOM      2  N   UNL     1       2.144   6.067  20.315  0.00  0.00    +0.000 NA
ATOM      3  N   UNL     1       2.941   4.943  20.250  0.00  0.00    +0.000 NA
ATOM      4  C   UNL     1       3.807   5.013  19.265  0.00  0.00    +0.000 A 
ATOM      5  S   UNL     1       3.688   6.433  18.320  0.00  0.00    +0.000 S 
ENDROOT
BRANCH   1   9
ATOM      6  C   UNL     1       0.526  10.822  19.186  0.00  0.00    +0.000 A 
ATOM      7  C   UNL     1       0.477  10.048  20.342  0.00  0.00    +0.000 A 
ATOM      8  C   UNL     1       1.107   8.800  20.390  0.00  0.00    +0.000 A 
ATOM      9  C   UNL     1       1.788   8.283  19.274  0.00  0.00    +0.000 A 
ATOM     10  C   UNL     1       1.815   9.068  18.111  0.00  0.00    +0.000 A 
ATOM     11  C   UNL     1       1.192  10.325  18.067  0.00  0.00    +0.000 A 
BRANCH   6  13
ATOM     12  C   UNL     1      -1.307  12.124  18.440  0.00  0.00    +0.000 C 
ATOM     13  O   UNL     1      -0.144  12.011  19.252  0.00  0.00    +0.000 OA
ENDBRANCH   6  13
ENDBRANCH   1   9
BRANCH   4  14
ATOM     14  S   UNL     1       5.030   3.784  19.041  0.00  0.00    +0.000 S 
BRANCH  14  15
ATOM     15  C   UNL     1       5.985   4.585  17.830  0.00  0.00    +0.000 A 
ATOM     16  C   UNL     1       7.077   5.433  17.905  0.00  0.00    +0.000 A 
ATOM     17  N   UNL     1       7.566   5.717  16.640  0.00  0.00    +0.000 NA
ATOM     18  C   UNL     1       6.788   5.057  15.817  0.00  0.00    +0.000 A 
ATOM     19  N   UNL     1       5.804   4.371  16.481  0.00  0.00    +0.000 N 
ATOM     20  C   UNL     1       4.788   3.581  15.825  0.00  0.00    +0.000 C 
BRANCH  16  21
ATOM     21  N   UNL     1       7.726   5.995  19.074  0.00  0.00    +0.000 N 
ATOM     22  O   UNL     1       7.586   5.393  20.149  0.00  0.00    +0.000 OA
ATOM     23  O   UNL     1       8.357   7.049  18.926  0.00  0.00    +0.000 OA
ENDBRANCH  16  21
ENDBRANCH  14  15
ENDBRANCH   4  14
TORSDOF 5
ENDMDL
MODEL 6
REMARK VINA RESULT:      -6.6      1.828      1.969
REMARK  Name = 
REMARK  7 active torsions:
REMARK  status: ('A' for Active; 'I' for Inactive)
REMARK    1  A    between atoms: C_1  and  O_2
REMARK    2  A    between atoms: O_2  and  C_3
REMARK    3  A    between atoms: C_6  and  C_7
REMARK    4  A    between atoms: C_10  and  S_11
REMARK    5  A    between atoms: S_11  and  C_12
REMARK    6  A    between atoms: C_13  and  N_14
REMARK    7  A    between atoms: N_19  and  C_20
REMARK                            x       y       z     vdW  Elec       q    Type
REMARK                         _______ _______ _______ _____ _____    ______ ____
ROOT
ATOM      1  C   UNL     1       2.475   6.889  19.427  0.00  0.00    +0.000 A 
ATOM      2  N   UNL     1       2.230   5.933  20.308  0.00  0.00    +0.000 NA
ATOM      3  N   UNL     1       3.081   4.854  20.182  0.00  0.00    +0.000 NA
ATOM      4  C   UNL     1       3.941   5.020  19.204  0.00  0.00    +0.000 A 
ATOM      5  S   UNL     1       3.752   6.482  18.338  0.00  0.00    +0.000 S 
ENDROOT
BRANCH   1   9
ATOM      6  C   UNL     1       0.414  10.669  19.190  0.00  0.00    +0.000 A 
ATOM      7  C   UNL     1       1.058  10.123  18.082  0.00  0.00    +0.000 A 
ATOM      8  C   UNL     1       1.717   8.893  18.176  0.00  0.00    +0.000 A 
ATOM      9  C   UNL     1       1.766   8.182  19.389  0.00  0.00    +0.000 A 
ATOM     10  C   UNL     1       1.126   8.753  20.500  0.00  0.00    +0.000 A 
ATOM     11  C   UNL     1       0.455   9.983  20.402  0.00  0.00    +0.000 A 
BRANCH   6  13
ATOM     12  C   UNL     1       0.698  12.957  18.646  0.00  0.00    +0.000 C 
ATOM     13  O   UNL     1      -0.174  11.884  18.981  0.00  0.00    +0.000 OA
ENDBRANCH   6  13
ENDBRANCH   1   9
BRANCH   4  14
ATOM     14  S   UNL     1       5.222   3.865  18.914  0.00  0.00    +0.000 S 
BRANCH  14  15
ATOM     15  C   UNL     1       6.070   4.726  17.666  0.00  0.00    +0.000 A 
ATOM     16  C   UNL     1       7.144   5.600  17.691  0.00  0.00    +0.000 A 
ATOM     17  N   UNL     1       7.536   5.933  16.404  0.00  0.00    +0.000 NA
ATOM     18  C   UNL     1       6.718   5.276  15.617  0.00  0.00    +0.000 A 
ATOM     19  N   UNL     1       5.801   4.546  16.327  0.00  0.00    +0.000 N 
ATOM     20  C   UNL     1       4.761   3.748  15.718  0.00  0.00    +0.000 C 
BRANCH  16  21
ATOM     21  N   UNL     1       7.858   6.145  18.828  0.00  0.00    +0.000 N 
ATOM     22  O   UNL     1       7.946   5.436  19.841  0.00  0.00    +0.000 OA
ATOM     23  O   UNL     1       8.314   7.291  18.721  0.00  0.00    +0.000 OA
ENDBRANCH  16  21
ENDBRANCH  14  15
ENDBRANCH   4  14
TORSDOF 5
ENDMDL
MODEL 7
REMARK VINA RESULT:      -6.6      2.550      2.989
REMARK  Name = 
REMARK  7 active torsions:
REMARK  status: ('A' for Active; 'I' for Inactive)
REMARK    1  A    between atoms: C_1  and  O_2
REMARK    2  A    between atoms: O_2  and  C_3
REMARK    3  A    between atoms: C_6  and  C_7
REMARK    4  A    between atoms: C_10  and  S_11
REMARK    5  A    between atoms: S_11  and  C_12
REMARK    6  A    between atoms: C_13  and  N_14
REMARK    7  A    between atoms: N_19  and  C_20
REMARK                            x       y       z     vdW  Elec       q    Type
REMARK                         _______ _______ _______ _____ _____    ______ ____
ROOT
ATOM      1  C   UNL     1       1.908   8.028  19.639  0.00  0.00    +0.000 A 
ATOM      2  N   UNL     1       2.350   6.832  19.989  0.00  0.00    +0.000 NA
ATOM      3  N   UNL     1       3.192   6.273  19.051  0.00  0.00    +0.000 NA
ATOM      4  C   UNL     1       3.357   7.058  18.012  0.00  0.00    +0.000 A 
ATOM      5  S   UNL     1       2.469   8.516  18.080  0.00  0.00    +0.000 S 
ENDROOT
BRANCH   1   9
ATOM      6  C   UNL     1      -0.633  10.566  22.024  0.00  0.00    +0.000 A 
ATOM      7  C   UNL     1      -0.539  10.726  20.644  0.00  0.00    +0.000 A 
ATOM      8  C   UNL     1       0.286   9.890  19.886  0.00  0.00    +0.000 A 
ATOM      9  C   UNL     1       1.056   8.880  20.490  0.00  0.00    +0.000 A 
ATOM     10  C   UNL     1       0.963   8.743  21.884  0.00  0.00    +0.000 A 
ATOM     11  C   UNL     1       0.126   9.576  22.644  0.00  0.00    +0.000 A 
BRANCH   6  13
ATOM     12  C   UNL     1      -1.841  12.601  21.909  0.00  0.00    +0.000 C 
ATOM     13  O   UNL     1      -1.453  11.456  22.659  0.00  0.00    +0.000 OA
ENDBRANCH   6  13
ENDBRANCH   1   9
BRANCH   4  14
ATOM     14  S   UNL     1       4.484   6.652  16.737  0.00  0.00    +0.000 S 
BRANCH  14  15
ATOM     15  C   UNL     1       5.767   6.011  17.719  0.00  0.00    +0.000 A 
ATOM     16  C   UNL     1       5.940   4.798  18.362  0.00  0.00    +0.000 A 
ATOM     17  N   UNL     1       7.202   4.718  18.928  0.00  0.00    +0.000 NA
ATOM     18  C   UNL     1       7.781   5.858  18.635  0.00  0.00    +0.000 A 
ATOM     19  N   UNL     1       6.952   6.684  17.921  0.00  0.00    +0.000 N 
ATOM     20  C   UNL     1       7.317   8.013  17.488  0.00  0.00    +0.000 C 
BRANCH  16  21
ATOM     21  N   UNL     1       5.023   3.681  18.481  0.00  0.00    +0.000 N 
ATOM     22  O   UNL     1       4.911   3.151  19.596  0.00  0.00    +0.000 OA
ATOM     23  O   UNL     1       4.429   3.318  17.458  0.00  0.00    +0.000 OA
ENDBRANCH  16  21
ENDBRANCH  14  15
ENDBRANCH   4  14
TORSDOF 5
ENDMDL
MODEL 8
REMARK VINA RESULT:      -6.5      2.595      3.344
REMARK  Name = 
REMARK  7 active torsions:
REMARK  status: ('A' for Active; 'I' for Inactive)
REMARK    1  A    between atoms: C_1  and  O_2
REMARK    2  A    between atoms: O_2  and  C_3
REMARK    3  A    between atoms: C_6  and  C_7
REMARK    4  A    between atoms: C_10  and  S_11
REMARK    5  A    between atoms: S_11  and  C_12
REMARK    6  A    between atoms: C_13  and  N_14
REMARK    7  A    between atoms: N_19  and  C_20
REMARK                            x       y       z     vdW  Elec       q    Type
REMARK                         _______ _______ _______ _____ _____    ______ ____
ROOT
ATOM      1  C   UNL     1       1.681   8.531  19.470  0.00  0.00    +0.000 A 
ATOM      2  N   UNL     1       1.996   9.001  18.275  0.00  0.00    +0.000 NA
ATOM      3  N   UNL     1       2.666   8.082  17.495  0.00  0.00    +0.000 NA
ATOM      4  C   UNL     1       2.847   6.944  18.125  0.00  0.00    +0.000 A 
ATOM      5  S   UNL     1       2.252   6.922  19.728  0.00  0.00    +0.000 S 
ENDROOT
BRANCH   1   9
ATOM      6  C   UNL     1      -0.592  10.617  22.483  0.00  0.00    +0.000 A 
ATOM      7  C   UNL     1      -0.188   9.296  22.664  0.00  0.00    +0.000 A 
ATOM      8  C   UNL     1       0.553   8.638  21.678  0.00  0.00    +0.000 A 
ATOM      9  C   UNL     1       0.896   9.277  20.473  0.00  0.00    +0.000 A 
ATOM     10  C   UNL     1       0.468  10.602  20.300  0.00  0.00    +0.000 A 
ATOM     11  C   UNL     1      -0.267  11.267  21.294  0.00  0.00    +0.000 A 
BRANCH   6  13
ATOM     12  C   UNL     1      -2.321  12.098  23.138  0.00  0.00    +0.000 C 
ATOM     13  O   UNL     1      -1.329  11.146  23.505  0.00  0.00    +0.000 OA
ENDBRANCH   6  13
ENDBRANCH   1   9
BRANCH   4  14
ATOM     14  S   UNL     1       3.549   5.560  17.319  0.00  0.00    +0.000 S 
BRANCH  14  15
ATOM     15  C   UNL     1       4.960   5.367  18.314  0.00  0.00    +0.000 A 
ATOM     16  C   UNL     1       5.288   4.467  19.314  0.00  0.00    +0.000 A 
ATOM     17  N   UNL     1       6.597   4.651  19.731  0.00  0.00    +0.000 NA
ATOM     18  C   UNL     1       7.052   5.640  18.999  0.00  0.00    +0.000 A 
ATOM     19  N   UNL     1       6.099   6.122  18.140  0.00  0.00    +0.000 N 
ATOM     20  C   UNL     1       6.315   7.228  17.236  0.00  0.00    +0.000 C 
BRANCH  16  21
ATOM     21  N   UNL     1       4.479   3.423  19.912  0.00  0.00    +0.000 N 
ATOM     22  O   UNL     1       5.009   2.314  20.076  0.00  0.00    +0.000 OA
ATOM     23  O   UNL     1       3.308   3.701  20.200  0.00  0.00    +0.000 OA
ENDBRANCH  16  21
ENDBRANCH  14  15
ENDBRANCH   4  14
TORSDOF 5
ENDMDL
MODEL 9
REMARK VINA RESULT:      -6.5      3.318      4.288
REMARK  Name = 
REMARK  7 active torsions:
REMARK  status: ('A' for Active; 'I' for Inactive)
REMARK    1  A    between atoms: C_1  and  O_2
REMARK    2  A    between atoms: O_2  and  C_3
REMARK    3  A    between atoms: C_6  and  C_7
REMARK    4  A    between atoms: C_10  and  S_11
REMARK    5  A    between atoms: S_11  and  C_12
REMARK    6  A    between atoms: C_13  and  N_14
REMARK    7  A    between atoms: N_19  and  C_20
REMARK                            x       y       z     vdW  Elec       q    Type
REMARK                         _______ _______ _______ _____ _____    ______ ____
ROOT
ATOM      1  C   UNL     1       1.354   8.421  20.299  0.00  0.00    +0.000 A 
ATOM      2  N   UNL     1       1.627   7.216  20.773  0.00  0.00    +0.000 NA
ATOM      3  N   UNL     1       2.358   6.445  19.895  0.00  0.00    +0.000 NA
ATOM      4  C   UNL     1       2.612   7.084  18.775  0.00  0.00    +0.000 A 
ATOM      5  S   UNL     1       1.944   8.655  18.693  0.00  0.00    +0.000 S 
ENDROOT
BRANCH   1   9
ATOM      6  C   UNL     1      -0.703  11.415  22.621  0.00  0.00    +0.000 A 
ATOM      7  C   UNL     1      -0.608  10.097  23.059  0.00  0.00    +0.000 A 
ATOM      8  C   UNL     1       0.068   9.140  22.295  0.00  0.00    +0.000 A 
ATOM      9  C   UNL     1       0.653   9.472  21.060  0.00  0.00    +0.000 A 
ATOM     10  C   UNL     1       0.535  10.801  20.625  0.00  0.00    +0.000 A 
ATOM     11  C   UNL     1      -0.135  11.764  21.397  0.00  0.00    +0.000 A 
BRANCH   6  13
ATOM     12  C   UNL     1      -1.216  13.647  23.230  0.00  0.00    +0.000 C 
ATOM     13  O   UNL     1      -1.406  12.252  23.441  0.00  0.00    +0.000 OA
ENDBRANCH   6  13
ENDBRANCH   1   9
BRANCH   4  14
ATOM     14  S   UNL     1       3.639   6.387  17.544  0.00  0.00    +0.000 S 
BRANCH  14  15
ATOM     15  C   UNL     1       3.950   4.854  18.302  0.00  0.00    +0.000 A 
ATOM     16  C   UNL     1       3.265   3.650  18.301  0.00  0.00    +0.000 A 
ATOM     17  N   UNL     1       3.988   2.674  18.968  0.00  0.00    +0.000 NA
ATOM     18  C   UNL     1       5.086   3.273  19.364  0.00  0.00    +0.000 A 
ATOM     19  N   UNL     1       5.106   4.595  19.004  0.00  0.00    +0.000 N 
ATOM     20  C   UNL     1       6.180   5.503  19.334  0.00  0.00    +0.000 C 
BRANCH  16  21
ATOM     21  N   UNL     1       1.984   3.322  17.708  0.00  0.00    +0.000 N 
ATOM     22  O   UNL     1       1.214   4.261  17.456  0.00  0.00    +0.000 OA
ATOM     23  O   UNL     1       1.734   2.126  17.512  0.00  0.00    +0.000 OA
ENDBRANCH  16  21
ENDBRANCH  14  15
ENDBRANCH   4  14
TORSDOF 5
ENDMDL
