MODEL 1
REMARK VINA RESULT:      -8.4      0.000      0.000
REMARK  Name = 
REMARK  6 active torsions:
REMARK  status: ('A' for Active; 'I' for Inactive)
REMARK    1  A    between atoms: C_2  and  C_4
REMARK    2  A    between atoms: C_7  and  C_8
REMARK    3  A    between atoms: C_14  and  C_16
REMARK    4  A    between atoms: C_21  and  O_22
REMARK    5  A    between atoms: O_22  and  C_23
REMARK    6  A    between atoms: C_23  and  C_24
REMARK                            x       y       z     vdW  Elec       q    Type
REMARK                         _______ _______ _______ _____ _____    ______ ____
ROOT
ATOM      1  C   UNL     1       3.785   3.733  19.109  0.00  0.00    +0.000 A 
ATOM      2  C   UNL     1       3.084   4.322  20.158  0.00  0.00    +0.000 A 
ATOM      3  N   UNL     1       2.539   5.567  20.127  0.00  0.00    +0.000 NA
ATOM      4  C   UNL     1       2.664   6.275  18.985  0.00  0.00    +0.000 A 
ATOM      5  C   UNL     1       3.311   5.741  17.873  0.00  0.00    +0.000 A 
ATOM      6  C   UNL     1       3.938   4.489  17.941  0.00  0.00    +0.000 A 
ENDROOT
BRANCH   4   7
ATOM      7  C   UNL     1       2.129   7.649  19.001  0.00  0.00    +0.000 A 
ATOM      8  C   UNL     1       2.312   8.520  17.917  0.00  0.00    +0.000 A 
ATOM      9  C   UNL     1       1.805   9.801  17.993  0.00  0.00    +0.000 A 
ATOM     10  N   UNL     1       1.149  10.272  19.062  0.00  0.00    +0.000 NA
ATOM     11  C   UNL     1       0.983   9.462  20.119  0.00  0.00    +0.000 A 
ATOM     12  N   UNL     1       0.330   9.931  21.267  0.00  0.00    +0.000 N 
ATOM     13  C   UNL     1      -0.143  11.215  21.422  0.00  0.00    +0.000 C 
ATOM     14  O   UNL     1      -0.074  12.137  20.618  0.00  0.00    +0.000 OA
ATOM     15  C   UNL     1       1.445   8.150  20.120  0.00  0.00    +0.000 A 
ATOM     16  H   UNL     1       0.206   9.278  22.022  0.00  0.00    +0.000 HD
BRANCH  13  17
ATOM     17  C   UNL     1      -0.825  11.512  22.716  0.00  0.00    +0.000 C 
ATOM     18  C   UNL     1      -1.172  12.942  23.054  0.00  0.00    +0.000 C 
ATOM     19  C   UNL     1      -2.262  11.920  22.909  0.00  0.00    +0.000 C 
ENDBRANCH  13  17
ENDBRANCH   4   7
BRANCH   1  21
ATOM     20  N   UNL     1       4.010   1.385  18.429  0.00  0.00    +0.000 N 
ATOM     21  C   UNL     1       4.282   2.353  19.349  0.00  0.00    +0.000 C 
ATOM     22  O   UNL     1       4.914   2.075  20.362  0.00  0.00    +0.000 OA
ATOM     23  H   UNL     1       4.329   0.445  18.622  0.00  0.00    +0.000 HD
ATOM     24  H   UNL     1       3.479   1.562  17.586  0.00  0.00    +0.000 HD
ENDBRANCH   1  21
BRANCH   6  25
ATOM     25  O   UNL     1       4.702   4.003  16.903  0.00  0.00    +0.000 OA
BRANCH  25  26
ATOM     26  C   UNL     1       5.383   4.997  16.106  0.00  0.00    +0.000 C 
BRANCH  26  27
ATOM     27  C   UNL     1       6.891   5.017  16.326  0.00  0.00    +0.000 C 
ATOM     28  F   UNL     1       7.360   6.254  16.587  0.00  0.00    +0.000 F 
ATOM     29  F   UNL     1       7.228   4.220  17.367  0.00  0.00    +0.000 F 
ATOM     30  F   UNL     1       7.538   4.548  15.235  0.00  0.00    +0.000 F 
ENDBRANCH  26  27
ENDBRANCH  25  26
ENDBRANCH   6  25
TORSDOF 6
ENDMDL
MODEL 2
REMARK VINA RESULT:      -8.3      0.990      1.096
REMARK  Name = 
REMARK  6 active torsions:
REMARK  status: ('A' for Active; 'I' for Inactive)
REMARK    1  A    between atoms: C_2  and  C_4
REMARK    2  A    between atoms: C_7  and  C_8
REMARK    3  A    between atoms: C_14  and  C_16
REMARK    4  A    between atoms: C_21  and  O_22
REMARK    5  A    between atoms: O_22  and  C_23
REMARK    6  A    between atoms: C_23  and  C_24
REMARK                            x       y       z     vdW  Elec       q    Type
REMARK                         _______ _______ _______ _____ _____    ______ ____
ROOT
ATOM      1  C   UNL     1       3.679   3.817  19.095  0.00  0.00    +0.000 A 
ATOM      2  C   UNL     1       2.522   4.277  19.719  0.00  0.00    +0.000 A 
ATOM      3  N   UNL     1       2.040   5.544  19.627  0.00  0.00    +0.000 NA
ATOM      4  C   UNL     1       2.718   6.416  18.852  0.00  0.00    +0.000 A 
ATOM      5  C   UNL     1       3.860   6.025  18.157  0.00  0.00    +0.000 A 
ATOM      6  C   UNL     1       4.394   4.739  18.321  0.00  0.00    +0.000 A 
ENDROOT
BRANCH   4   7
ATOM      7  C   UNL     1       2.216   7.803  18.826  0.00  0.00    +0.000 A 
ATOM      8  C   UNL     1       2.416   8.634  17.715  0.00  0.00    +0.000 A 
ATOM      9  C   UNL     1       1.941   9.929  17.752  0.00  0.00    +0.000 A 
ATOM     10  N   UNL     1       1.302  10.449  18.809  0.00  0.00    +0.000 NA
ATOM     11  C   UNL     1       1.121   9.677  19.891  0.00  0.00    +0.000 A 
ATOM     12  N   UNL     1       0.485  10.199  21.026  0.00  0.00    +0.000 N 
ATOM     13  C   UNL     1       0.044  11.498  21.142  0.00  0.00    +0.000 C 
ATOM     14  O   UNL     1       0.132  12.392  20.309  0.00  0.00    +0.000 OA
ATOM     15  C   UNL     1       1.551   8.355  19.931  0.00  0.00    +0.000 A 
ATOM     16  H   UNL     1       0.348   9.573  21.802  0.00  0.00    +0.000 HD
BRANCH  13  17
ATOM     17  C   UNL     1      -0.624  11.852  22.428  0.00  0.00    +0.000 C 
ATOM     18  C   UNL     1      -2.120  12.063  22.448  0.00  0.00    +0.000 C 
ATOM     19  C   UNL     1      -1.507  10.962  23.265  0.00  0.00    +0.000 C 
ENDBRANCH  13  17
ENDBRANCH   4   7
BRANCH   1  21
ATOM     20  N   UNL     1       5.131   2.077  20.037  0.00  0.00    +0.000 N 
ATOM     21  C   UNL     1       4.016   2.387  19.315  0.00  0.00    +0.000 C 
ATOM     22  O   UNL     1       3.321   1.492  18.848  0.00  0.00    +0.000 OA
ATOM     23  H   UNL     1       5.363   1.100  20.152  0.00  0.00    +0.000 HD
ATOM     24  H   UNL     1       5.744   2.779  20.429  0.00  0.00    +0.000 HD
ENDBRANCH   1  21
BRANCH   6  25
ATOM     25  O   UNL     1       5.597   4.375  17.757  0.00  0.00    +0.000 OA
BRANCH  25  26
ATOM     26  C   UNL     1       5.558   4.054  16.349  0.00  0.00    +0.000 C 
BRANCH  26  27
ATOM     27  C   UNL     1       6.176   5.132  15.467  0.00  0.00    +0.000 C 
ATOM     28  F   UNL     1       5.281   6.070  15.094  0.00  0.00    +0.000 F 
ATOM     29  F   UNL     1       7.182   5.759  16.120  0.00  0.00    +0.000 F 
ATOM     30  F   UNL     1       6.701   4.588  14.346  0.00  0.00    +0.000 F 
ENDBRANCH  26  27
ENDBRANCH  25  26
ENDBRANCH   6  25
TORSDOF 6
ENDMDL
MODEL 3
REMARK VINA RESULT:      -8.3      1.116      1.340
REMARK  Name = 
REMARK  6 active torsions:
REMARK  status: ('A' for Active; 'I' for Inactive)
REMARK    1  A    between atoms: C_2  and  C_4
REMARK    2  A    between atoms: C_7  and  C_8
REMARK    3  A    between atoms: C_14  and  C_16
REMARK    4  A    between atoms: C_21  and  O_22
REMARK    5  A    between atoms: O_22  and  C_23
REMARK    6  A    between atoms: C_23  and  C_24
REMARK                            x       y       z     vdW  Elec       q    Type
REMARK                         _______ _______ _______ _____ _____    ______ ____
ROOT
ATOM      1  C   UNL     1       3.613   3.945  18.980  0.00  0.00    +0.000 A 
ATOM      2  C   UNL     1       2.525   4.370  19.738  0.00  0.00    +0.000 A 
ATOM      3  N   UNL     1       2.015   5.630  19.729  0.00  0.00    +0.000 NA
ATOM      4  C   UNL     1       2.589   6.530  18.904  0.00  0.00    +0.000 A 
ATOM      5  C   UNL     1       3.654   6.175  18.078  0.00  0.00    +0.000 A 
ATOM      6  C   UNL     1       4.223   4.896  18.153  0.00  0.00    +0.000 A 
ENDROOT
BRANCH   4   7
ATOM      7  C   UNL     1       2.065   7.907  18.965  0.00  0.00    +0.000 A 
ATOM      8  C   UNL     1       2.271   8.817  17.918  0.00  0.00    +0.000 A 
ATOM      9  C   UNL     1       1.774  10.099  18.036  0.00  0.00    +0.000 A 
ATOM     10  N   UNL     1       1.107  10.534  19.114  0.00  0.00    +0.000 NA
ATOM     11  C   UNL     1       0.919   9.686  20.136  0.00  0.00    +0.000 A 
ATOM     12  N   UNL     1       0.254  10.117  21.292  0.00  0.00    +0.000 N 
ATOM     13  C   UNL     1      -0.210  11.398  21.490  0.00  0.00    +0.000 C 
ATOM     14  O   UNL     1      -0.122  12.350  20.723  0.00  0.00    +0.000 OA
ATOM     15  C   UNL     1       1.370   8.371  20.093  0.00  0.00    +0.000 A 
ATOM     16  H   UNL     1       0.114   9.436  22.020  0.00  0.00    +0.000 HD
BRANCH  13  17
ATOM     17  C   UNL     1      -0.907  11.651  22.784  0.00  0.00    +0.000 C 
ATOM     18  C   UNL     1      -1.341  13.057  23.125  0.00  0.00    +0.000 C 
ATOM     19  C   UNL     1      -2.367  11.970  22.980  0.00  0.00    +0.000 C 
ENDBRANCH  13  17
ENDBRANCH   4   7
BRANCH   1  21
ATOM     20  N   UNL     1       5.149   2.210  19.789  0.00  0.00    +0.000 N 
ATOM     21  C   UNL     1       3.996   2.517  19.130  0.00  0.00    +0.000 C 
ATOM     22  O   UNL     1       3.303   1.622  18.659  0.00  0.00    +0.000 OA
ATOM     23  H   UNL     1       5.411   1.236  19.855  0.00  0.00    +0.000 HD
ATOM     24  H   UNL     1       5.762   2.914  20.181  0.00  0.00    +0.000 HD
ENDBRANCH   1  21
BRANCH   6  25
ATOM     25  O   UNL     1       5.362   4.566  17.452  0.00  0.00    +0.000 OA
BRANCH  25  26
ATOM     26  C   UNL     1       6.371   5.597  17.373  0.00  0.00    +0.000 C 
BRANCH  26  27
ATOM     27  C   UNL     1       7.426   5.491  18.467  0.00  0.00    +0.000 C 
ATOM     28  F   UNL     1       6.886   5.407  19.701  0.00  0.00    +0.000 F 
ATOM     29  F   UNL     1       8.196   4.394  18.278  0.00  0.00    +0.000 F 
ATOM     30  F   UNL     1       8.246   6.567  18.445  0.00  0.00    +0.000 F 
ENDBRANCH  26  27
ENDBRANCH  25  26
ENDBRANCH   6  25
TORSDOF 6
ENDMDL
MODEL 4
REMARK VINA RESULT:      -8.3      4.486      8.874
REMARK  Name = 
REMARK  6 active torsions:
REMARK  status: ('A' for Active; 'I' for Inactive)
REMARK    1  A    between atoms: C_2  and  C_4
REMARK    2  A    between atoms: C_7  and  C_8
REMARK    3  A    between atoms: C_14  and  C_16
REMARK    4  A    between atoms: C_21  and  O_22
REMARK    5  A    between atoms: O_22  and  C_23
REMARK    6  A    between atoms: C_23  and  C_24
REMARK                            x       y       z     vdW  Elec       q    Type
REMARK                         _______ _______ _______ _____ _____    ______ ____
ROOT
ATOM      1  C   UNL     1       2.559   3.693  20.146  0.00  0.00    +0.000 A 
ATOM      2  C   UNL     1       3.263   2.764  19.384  0.00  0.00    +0.000 A 
ATOM      3  N   UNL     1       4.178   3.076  18.428  0.00  0.00    +0.000 NA
ATOM      4  C   UNL     1       4.444   4.382  18.222  0.00  0.00    +0.000 A 
ATOM      5  C   UNL     1       3.817   5.374  18.973  0.00  0.00    +0.000 A 
ATOM      6  C   UNL     1       2.818   5.046  19.899  0.00  0.00    +0.000 A 
ENDROOT
BRANCH   4   7
ATOM      7  C   UNL     1       5.386   4.697  17.131  0.00  0.00    +0.000 A 
ATOM      8  C   UNL     1       6.334   5.722  17.255  0.00  0.00    +0.000 A 
ATOM      9  C   UNL     1       7.179   5.987  16.196  0.00  0.00    +0.000 A 
ATOM     10  N   UNL     1       7.136   5.318  15.036  0.00  0.00    +0.000 NA
ATOM     11  C   UNL     1       6.221   4.349  14.888  0.00  0.00    +0.000 A 
ATOM     12  N   UNL     1       6.126   3.651  13.676  0.00  0.00    +0.000 N 
ATOM     13  C   UNL     1       6.901   3.911  12.567  0.00  0.00    +0.000 C 
ATOM     14  O   UNL     1       7.770   4.767  12.449  0.00  0.00    +0.000 OA
ATOM     15  C   UNL     1       5.343   4.005  15.911  0.00  0.00    +0.000 A 
ATOM     16  H   UNL     1       5.443   2.915  13.624  0.00  0.00    +0.000 HD
BRANCH  13  17
ATOM     17  C   UNL     1       6.657   3.043  11.379  0.00  0.00    +0.000 C 
ATOM     18  C   UNL     1       7.455   1.770  11.219  0.00  0.00    +0.000 C 
ATOM     19  C   UNL     1       5.961   1.707  11.361  0.00  0.00    +0.000 C 
ENDBRANCH  13  17
ENDBRANCH   4   7
BRANCH   1  21
ATOM     20  N   UNL     1       0.334   2.865  20.771  0.00  0.00    +0.000 N 
ATOM     21  C   UNL     1       1.616   3.134  21.150  0.00  0.00    +0.000 C 
ATOM     22  O   UNL     1       1.969   2.929  22.306  0.00  0.00    +0.000 OA
ATOM     23  H   UNL     1      -0.303   2.515  21.473  0.00  0.00    +0.000 HD
ATOM     24  H   UNL     1      -0.008   3.033  19.834  0.00  0.00    +0.000 HD
ENDBRANCH   1  21
BRANCH   6  25
ATOM     25  O   UNL     1       2.086   6.015  20.550  0.00  0.00    +0.000 OA
BRANCH  25  26
ATOM     26  C   UNL     1       2.258   7.364  20.064  0.00  0.00    +0.000 C 
BRANCH  26  27
ATOM     27  C   UNL     1       1.246   8.347  20.640  0.00  0.00    +0.000 C 
ATOM     28  F   UNL     1       1.789   9.168  21.562  0.00  0.00    +0.000 F 
ATOM     29  F   UNL     1       0.722   9.117  19.659  0.00  0.00    +0.000 F 
ATOM     30  F   UNL     1       0.220   7.686  21.224  0.00  0.00    +0.000 F 
ENDBRANCH  26  27
ENDBRANCH  25  26
ENDBRANCH   6  25
TORSDOF 6
ENDMDL
MODEL 5
REMARK VINA RESULT:      -8.2      0.861      1.053
REMARK  Name = 
REMARK  6 active torsions:
REMARK  status: ('A' for Active; 'I' for Inactive)
REMARK    1  A    between atoms: C_2  and  C_4
REMARK    2  A    between atoms: C_7  and  C_8
REMARK    3  A    between atoms: C_14  and  C_16
REMARK    4  A    between atoms: C_21  and  O_22
REMARK    5  A    between atoms: O_22  and  C_23
REMARK    6  A    between atoms: C_23  and  C_24
REMARK                            x       y       z     vdW  Elec       q    Type
REMARK                         _______ _______ _______ _____ _____    ______ ____
ROOT
ATOM      1  C   UNL     1       3.902   3.785  19.163  0.00  0.00    +0.000 A 
ATOM      2  C   UNL     1       2.628   4.112  19.622  0.00  0.00    +0.000 A 
ATOM      3  N   UNL     1       2.073   5.351  19.556  0.00  0.00    +0.000 NA
ATOM      4  C   UNL     1       2.799   6.331  18.980  0.00  0.00    +0.000 A 
ATOM      5  C   UNL     1       4.064   6.078  18.455  0.00  0.00    +0.000 A 
ATOM      6  C   UNL     1       4.660   4.817  18.598  0.00  0.00    +0.000 A 
ENDROOT
BRANCH   4   7
ATOM      7  C   UNL     1       2.205   7.681  18.986  0.00  0.00    +0.000 A 
ATOM      8  C   UNL     1       2.321   8.538  17.883  0.00  0.00    +0.000 A 
ATOM      9  C   UNL     1       1.761   9.798  17.950  0.00  0.00    +0.000 A 
ATOM     10  N   UNL     1       1.115  10.260  19.029  0.00  0.00    +0.000 NA
ATOM     11  C   UNL     1       1.013   9.464  20.104  0.00  0.00    +0.000 A 
ATOM     12  N   UNL     1       0.372   9.927  21.262  0.00  0.00    +0.000 N 
ATOM     13  C   UNL     1      -0.152  11.192  21.407  0.00  0.00    +0.000 C 
ATOM     14  O   UNL     1      -0.145  12.101  20.585  0.00  0.00    +0.000 OA
ATOM     15  C   UNL     1       1.532   8.173  20.115  0.00  0.00    +0.000 A 
ATOM     16  H   UNL     1       0.297   9.283  22.031  0.00  0.00    +0.000 HD
BRANCH  13  17
ATOM     17  C   UNL     1      -0.810  11.483  22.714  0.00  0.00    +0.000 C 
ATOM     18  C   UNL     1      -1.167  12.911  23.057  0.00  0.00    +0.000 C 
ATOM     19  C   UNL     1      -2.248  11.875  22.936  0.00  0.00    +0.000 C 
ENDBRANCH  13  17
ENDBRANCH   4   7
BRANCH   1  21
ATOM     20  N   UNL     1       3.950   1.468  18.352  0.00  0.00    +0.000 N 
ATOM     21  C   UNL     1       4.306   2.363  19.317  0.00  0.00    +0.000 C 
ATOM     22  O   UNL     1       4.936   1.986  20.299  0.00  0.00    +0.000 OA
ATOM     23  H   UNL     1       4.206   0.500  18.487  0.00  0.00    +0.000 HD
ATOM     24  H   UNL     1       3.417   1.728  17.532  0.00  0.00    +0.000 HD
ENDBRANCH   1  21
BRANCH   6  25
ATOM     25  O   UNL     1       5.962   4.582  18.214  0.00  0.00    +0.000 OA
BRANCH  25  26
ATOM     26  C   UNL     1       6.411   5.303  17.046  0.00  0.00    +0.000 C 
BRANCH  26  27
ATOM     27  C   UNL     1       6.114   4.578  15.739  0.00  0.00    +0.000 C 
ATOM     28  F   UNL     1       5.133   5.172  15.029  0.00  0.00    +0.000 F 
ATOM     29  F   UNL     1       7.219   4.534  14.959  0.00  0.00    +0.000 F 
ATOM     30  F   UNL     1       5.740   3.300  15.977  0.00  0.00    +0.000 F 
ENDBRANCH  26  27
ENDBRANCH  25  26
ENDBRANCH   6  25
TORSDOF 6
ENDMDL
MODEL 6
REMARK VINA RESULT:      -8.2      0.948      1.226
REMARK  Name = 
REMARK  6 active torsions:
REMARK  status: ('A' for Active; 'I' for Inactive)
REMARK    1  A    between atoms: C_2  and  C_4
REMARK    2  A    between atoms: C_7  and  C_8
REMARK    3  A    between atoms: C_14  and  C_16
REMARK    4  A    between atoms: C_21  and  O_22
REMARK    5  A    between atoms: O_22  and  C_23
REMARK    6  A    between atoms: C_23  and  C_24
REMARK                            x       y       z     vdW  Elec       q    Type
REMARK                         _______ _______ _______ _____ _____    ______ ____
ROOT
ATOM      1  C   UNL     1       3.974   3.609  19.677  0.00  0.00    +0.000 A 
ATOM      2  C   UNL     1       2.661   3.947  19.995  0.00  0.00    +0.000 A 
ATOM      3  N   UNL     1       2.102   5.170  19.790  0.00  0.00    +0.000 NA
ATOM      4  C   UNL     1       2.868   6.117  19.211  0.00  0.00    +0.000 A 
ATOM      5  C   UNL     1       4.178   5.848  18.821  0.00  0.00    +0.000 A 
ATOM      6  C   UNL     1       4.771   4.610  19.109  0.00  0.00    +0.000 A 
ENDROOT
BRANCH   4   7
ATOM      7  C   UNL     1       2.263   7.455  19.065  0.00  0.00    +0.000 A 
ATOM      8  C   UNL     1       2.316   8.155  17.852  0.00  0.00    +0.000 A 
ATOM      9  C   UNL     1       1.749   9.411  17.777  0.00  0.00    +0.000 A 
ATOM     10  N   UNL     1       1.153  10.013  18.815  0.00  0.00    +0.000 NA
ATOM     11  C   UNL     1       1.112   9.369  19.992  0.00  0.00    +0.000 A 
ATOM     12  N   UNL     1       0.525   9.983  21.107  0.00  0.00    +0.000 N 
ATOM     13  C   UNL     1      -0.003  11.255  21.107  0.00  0.00    +0.000 C 
ATOM     14  O   UNL     1      -0.045  12.044  20.170  0.00  0.00    +0.000 OA
ATOM     15  C   UNL     1       1.642   8.093  20.150  0.00  0.00    +0.000 A 
ATOM     16  H   UNL     1       0.494   9.449  21.959  0.00  0.00    +0.000 HD
BRANCH  13  17
ATOM     17  C   UNL     1      -0.597  11.718  22.394  0.00  0.00    +0.000 C 
ATOM     18  C   UNL     1      -2.060  12.092  22.437  0.00  0.00    +0.000 C 
ATOM     19  C   UNL     1      -1.551  10.957  23.277  0.00  0.00    +0.000 C 
ENDBRANCH  13  17
ENDBRANCH   4   7
BRANCH   1  21
ATOM     20  N   UNL     1       4.173   1.252  19.021  0.00  0.00    +0.000 N 
ATOM     21  C   UNL     1       4.377   2.209  19.971  0.00  0.00    +0.000 C 
ATOM     22  O   UNL     1       4.870   1.904  21.051  0.00  0.00    +0.000 OA
ATOM     23  H   UNL     1       4.424   0.299  19.248  0.00  0.00    +0.000 HD
ATOM     24  H   UNL     1       3.755   1.451  18.121  0.00  0.00    +0.000 HD
ENDBRANCH   1  21
BRANCH   6  25
ATOM     25  O   UNL     1       6.104   4.369  18.862  0.00  0.00    +0.000 OA
BRANCH  25  26
ATOM     26  C   UNL     1       6.888   5.519  18.473  0.00  0.00    +0.000 C 
BRANCH  26  27
ATOM     27  C   UNL     1       7.165   5.580  16.975  0.00  0.00    +0.000 C 
ATOM     28  F   UNL     1       7.875   4.521  16.536  0.00  0.00    +0.000 F 
ATOM     29  F   UNL     1       6.004   5.616  16.280  0.00  0.00    +0.000 F 
ATOM     30  F   UNL     1       7.854   6.702  16.664  0.00  0.00    +0.000 F 
ENDBRANCH  26  27
ENDBRANCH  25  26
ENDBRANCH   6  25
TORSDOF 6
ENDMDL
MODEL 7
REMARK VINA RESULT:      -8.1      3.147      4.259
REMARK  Name = 
REMARK  6 active torsions:
REMARK  status: ('A' for Active; 'I' for Inactive)
REMARK    1  A    between atoms: C_2  and  C_4
REMARK    2  A    between atoms: C_7  and  C_8
REMARK    3  A    between atoms: C_14  and  C_16
REMARK    4  A    between atoms: C_21  and  O_22
REMARK    5  A    between atoms: O_22  and  C_23
REMARK    6  A    between atoms: C_23  and  C_24
REMARK                            x       y       z     vdW  Elec       q    Type
REMARK                         _______ _______ _______ _____ _____    ______ ____
ROOT
ATOM      1  C   UNL     1       5.315   5.293  16.433  0.00  0.00    +0.000 A 
ATOM      2  C   UNL     1       5.268   6.685  16.400  0.00  0.00    +0.000 A 
ATOM      3  N   UNL     1       4.374   7.449  17.083  0.00  0.00    +0.000 NA
ATOM      4  C   UNL     1       3.483   6.813  17.871  0.00  0.00    +0.000 A 
ATOM      5  C   UNL     1       3.491   5.425  17.995  0.00  0.00    +0.000 A 
ATOM      6  C   UNL     1       4.363   4.642  17.227  0.00  0.00    +0.000 A 
ENDROOT
BRANCH   4   7
ATOM      7  C   UNL     1       2.479   7.658  18.544  0.00  0.00    +0.000 A 
ATOM      8  C   UNL     1       2.336   7.658  19.938  0.00  0.00    +0.000 A 
ATOM      9  C   UNL     1       1.368   8.455  20.514  0.00  0.00    +0.000 A 
ATOM     10  N   UNL     1       0.535   9.230  19.805  0.00  0.00    +0.000 NA
ATOM     11  C   UNL     1       0.640   9.227  18.468  0.00  0.00    +0.000 A 
ATOM     12  N   UNL     1      -0.236  10.000  17.694  0.00  0.00    +0.000 N 
ATOM     13  C   UNL     1      -1.258  10.767  18.208  0.00  0.00    +0.000 C 
ATOM     14  O   UNL     1      -1.571  10.898  19.386  0.00  0.00    +0.000 OA
ATOM     15  C   UNL     1       1.600   8.468  17.807  0.00  0.00    +0.000 A 
ATOM     16  H   UNL     1      -0.100   9.986  16.697  0.00  0.00    +0.000 HD
BRANCH  13  17
ATOM     17  C   UNL     1      -2.068  11.531  17.216  0.00  0.00    +0.000 C 
ATOM     18  C   UNL     1      -2.673  10.801  16.040  0.00  0.00    +0.000 C 
ATOM     19  C   UNL     1      -3.564  11.482  17.038  0.00  0.00    +0.000 C 
ENDBRANCH  13  17
ENDBRANCH   4   7
BRANCH   1  21
ATOM     20  N   UNL     1       6.040   3.966  14.499  0.00  0.00    +0.000 N 
ATOM     21  C   UNL     1       6.386   4.657  15.623  0.00  0.00    +0.000 C 
ATOM     22  O   UNL     1       7.563   4.731  15.958  0.00  0.00    +0.000 OA
ATOM     23  H   UNL     1       6.777   3.513  13.977  0.00  0.00    +0.000 HD
ATOM     24  H   UNL     1       5.082   3.863  14.191  0.00  0.00    +0.000 HD
ENDBRANCH   1  21
BRANCH   6  25
ATOM     25  O   UNL     1       4.294   3.266  17.226  0.00  0.00    +0.000 OA
BRANCH  25  26
ATOM     26  C   UNL     1       3.023   2.702  17.617  0.00  0.00    +0.000 C 
BRANCH  26  27
ATOM     27  C   UNL     1       3.122   1.765  18.815  0.00  0.00    +0.000 C 
ATOM     28  F   UNL     1       3.773   0.620  18.523  0.00  0.00    +0.000 F 
ATOM     29  F   UNL     1       3.780   2.366  19.833  0.00  0.00    +0.000 F 
ATOM     30  F   UNL     1       1.890   1.439  19.269  0.00  0.00    +0.000 F 
ENDBRANCH  26  27
ENDBRANCH  25  26
ENDBRANCH   6  25
TORSDOF 6
ENDMDL
MODEL 8
REMARK VINA RESULT:      -8.1      0.909      1.035
REMARK  Name = 
REMARK  6 active torsions:
REMARK  status: ('A' for Active; 'I' for Inactive)
REMARK    1  A    between atoms: C_2  and  C_4
REMARK    2  A    between atoms: C_7  and  C_8
REMARK    3  A    between atoms: C_14  and  C_16
REMARK    4  A    between atoms: C_21  and  O_22
REMARK    5  A    between atoms: O_22  and  C_23
REMARK    6  A    between atoms: C_23  and  C_24
REMARK                            x       y       z     vdW  Elec       q    Type
REMARK                         _______ _______ _______ _____ _____    ______ ____
ROOT
ATOM      1  C   UNL     1       3.760   3.997  19.327  0.00  0.00    +0.000 A 
ATOM      2  C   UNL     1       2.697   4.411  20.126  0.00  0.00    +0.000 A 
ATOM      3  N   UNL     1       2.118   5.640  20.074  0.00  0.00    +0.000 NA
ATOM      4  C   UNL     1       2.591   6.515  19.163  0.00  0.00    +0.000 A 
ATOM      5  C   UNL     1       3.622   6.165  18.294  0.00  0.00    +0.000 A 
ATOM      6  C   UNL     1       4.265   4.925  18.408  0.00  0.00    +0.000 A 
ENDROOT
BRANCH   4   7
ATOM      7  C   UNL     1       1.995   7.864  19.175  0.00  0.00    +0.000 A 
ATOM      8  C   UNL     1       2.117   8.729  18.079  0.00  0.00    +0.000 A 
ATOM      9  C   UNL     1       1.556   9.988  18.151  0.00  0.00    +0.000 A 
ATOM     10  N   UNL     1       0.902  10.441  19.229  0.00  0.00    +0.000 NA
ATOM     11  C   UNL     1       0.793   9.637  20.298  0.00  0.00    +0.000 A 
ATOM     12  N   UNL     1       0.144  10.091  21.454  0.00  0.00    +0.000 N 
ATOM     13  C   UNL     1      -0.382  11.354  21.605  0.00  0.00    +0.000 C 
ATOM     14  O   UNL     1      -0.371  12.269  20.790  0.00  0.00    +0.000 OA
ATOM     15  C   UNL     1       1.313   8.347  20.302  0.00  0.00    +0.000 A 
ATOM     16  H   UNL     1       0.065   9.441  22.218  0.00  0.00    +0.000 HD
BRANCH  13  17
ATOM     17  C   UNL     1      -1.049  11.635  22.910  0.00  0.00    +0.000 C 
ATOM     18  C   UNL     1      -1.392  13.062  23.269  0.00  0.00    +0.000 C 
ATOM     19  C   UNL     1      -2.484  12.042  23.124  0.00  0.00    +0.000 C 
ENDBRANCH  13  17
ENDBRANCH   4   7
BRANCH   1  21
ATOM     20  N   UNL     1       4.056   1.692  18.538  0.00  0.00    +0.000 N 
ATOM     21  C   UNL     1       4.230   2.603  19.537  0.00  0.00    +0.000 C 
ATOM     22  O   UNL     1       4.754   2.263  20.592  0.00  0.00    +0.000 OA
ATOM     23  H   UNL     1       4.354   0.741  18.708  0.00  0.00    +0.000 HD
ATOM     24  H   UNL     1       3.616   1.921  17.656  0.00  0.00    +0.000 HD
ENDBRANCH   1  21
BRANCH   6  25
ATOM     25  O   UNL     1       5.377   4.612  17.657  0.00  0.00    +0.000 OA
BRANCH  25  26
ATOM     26  C   UNL     1       6.646   5.011  18.218  0.00  0.00    +0.000 C 
BRANCH  26  27
ATOM     27  C   UNL     1       7.200   6.291  17.604  0.00  0.00    +0.000 C 
ATOM     28  F   UNL     1       6.292   7.289  17.581  0.00  0.00    +0.000 F 
ATOM     29  F   UNL     1       8.274   6.727  18.304  0.00  0.00    +0.000 F 
ATOM     30  F   UNL     1       7.610   6.072  16.334  0.00  0.00    +0.000 F 
ENDBRANCH  26  27
ENDBRANCH  25  26
ENDBRANCH   6  25
TORSDOF 6
ENDMDL
MODEL 9
REMARK VINA RESULT:      -8.0      0.828      1.129
REMARK  Name = 
REMARK  6 active torsions:
REMARK  status: ('A' for Active; 'I' for Inactive)
REMARK    1  A    between atoms: C_2  and  C_4
REMARK    2  A    between atoms: C_7  and  C_8
REMARK    3  A    between atoms: C_14  and  C_16
REMARK    4  A    between atoms: C_21  and  O_22
REMARK    5  A    between atoms: O_22  and  C_23
REMARK    6  A    between atoms: C_23  and  C_24
REMARK                            x       y       z     vdW  Elec       q    Type
REMARK                         _______ _______ _______ _____ _____    ______ ____
ROOT
ATOM      1  C   UNL     1       3.475   4.064  19.773  0.00  0.00    +0.000 A 
ATOM      2  C   UNL     1       2.557   4.712  20.595  0.00  0.00    +0.000 A 
ATOM      3  N   UNL     1       2.078   5.968  20.387  0.00  0.00    +0.000 NA
ATOM      4  C   UNL     1       2.504   6.624  19.288  0.00  0.00    +0.000 A 
ATOM      5  C   UNL     1       3.388   6.030  18.390  0.00  0.00    +0.000 A 
ATOM      6  C   UNL     1       3.937   4.767  18.654  0.00  0.00    +0.000 A 
ENDROOT
BRANCH   4   7
ATOM      7  C   UNL     1       2.027   8.010  19.122  0.00  0.00    +0.000 A 
ATOM      8  C   UNL     1       2.304   8.748  17.963  0.00  0.00    +0.000 A 
ATOM      9  C   UNL     1       1.848  10.047  17.869  0.00  0.00    +0.000 A 
ATOM     10  N   UNL     1       1.157  10.657  18.842  0.00  0.00    +0.000 NA
ATOM     11  C   UNL     1       0.901   9.976  19.969  0.00  0.00    +0.000 A 
ATOM     12  N   UNL     1       0.208  10.593  21.020  0.00  0.00    +0.000 N 
ATOM     13  C   UNL     1      -0.218  11.903  21.007  0.00  0.00    +0.000 C 
ATOM     14  O   UNL     1      -0.067  12.727  20.112  0.00  0.00    +0.000 OA
ATOM     15  C   UNL     1       1.307   8.656  20.139  0.00  0.00    +0.000 A 
ATOM     16  H   UNL     1       0.017  10.033  21.833  0.00  0.00    +0.000 HD
BRANCH  13  17
ATOM     17  C   UNL     1      -0.954  12.365  22.219  0.00  0.00    +0.000 C 
ATOM     18  C   UNL     1      -2.464  12.398  22.196  0.00  0.00    +0.000 C 
ATOM     19  C   UNL     1      -1.748  11.514  23.176  0.00  0.00    +0.000 C 
ENDBRANCH  13  17
ENDBRANCH   4   7
BRANCH   1  21
ATOM     20  N   UNL     1       5.027   2.163  19.722  0.00  0.00    +0.000 N 
ATOM     21  C   UNL     1       3.852   2.684  20.176  0.00  0.00    +0.000 C 
ATOM     22  O   UNL     1       3.120   2.010  20.892  0.00  0.00    +0.000 OA
ATOM     23  H   UNL     1       5.254   1.212  19.980  0.00  0.00    +0.000 HD
ATOM     24  H   UNL     1       5.656   2.673  19.116  0.00  0.00    +0.000 HD
ENDBRANCH   1  21
BRANCH   6  25
ATOM     25  O   UNL     1       4.917   4.221  17.856  0.00  0.00    +0.000 OA
BRANCH  25  26
ATOM     26  C   UNL     1       5.516   5.118  16.895  0.00  0.00    +0.000 C 
BRANCH  26  27
ATOM     27  C   UNL     1       7.038   5.035  16.860  0.00  0.00    +0.000 C 
ATOM     28  F   UNL     1       7.535   4.241  17.830  0.00  0.00    +0.000 F 
ATOM     29  F   UNL     1       7.459   4.547  15.670  0.00  0.00    +0.000 F 
ATOM     30  F   UNL     1       7.585   6.264  17.007  0.00  0.00    +0.000 F 
ENDBRANCH  26  27
ENDBRANCH  25  26
ENDBRANCH   6  25
TORSDOF 6
ENDMDL
