MODEL 1
REMARK VINA RESULT:      -5.2      0.000      0.000
REMARK  Name = 
REMARK  1 active torsions:
REMARK  status: ('A' for Active; 'I' for Inactive)
REMARK    1  A    between atoms: C_1  and  C_2
REMARK                            x       y       z     vdW  Elec       q    Type
REMARK                         _______ _______ _______ _____ _____    ______ ____
ROOT
ATOM      1  C   UNL     1       1.448   2.650  21.685  0.00  0.00    +0.000 C 
ATOM      2  C   UNL     1       1.094   3.330  20.404  0.00  0.00    +0.000 C 
ATOM      3  C   UNL     1       1.975   3.667  19.451  0.00  0.00    +0.000 C 
ATOM      4  C   UNL     1       3.477   3.381  19.432  0.00  0.00    +0.000 C 
ATOM      5  C   UNL     1       3.826   3.781  17.974  0.00  0.00    +0.000 C 
ATOM      6  C   UNL     1       3.682   5.284  17.832  0.00  0.00    +0.000 C 
ATOM      7  C   UNL     1       2.368   5.557  17.910  0.00  0.00    +0.000 C 
ATOM      8  C   UNL     1       1.638   4.244  18.082  0.00  0.00    +0.000 C 
ATOM      9  C   UNL     1       2.552   3.353  17.233  0.00  0.00    +0.000 C 
ENDROOT
TORSDOF 0
ENDMDL
MODEL 2
REMARK VINA RESULT:      -5.1      4.312      6.340
REMARK  Name = 
REMARK  1 active torsions:
REMARK  status: ('A' for Active; 'I' for Inactive)
REMARK    1  A    between atoms: C_1  and  C_2
REMARK                            x       y       z     vdW  Elec       q    Type
REMARK                         _______ _______ _______ _____ _____    ______ ____
ROOT
ATOM      1  C   UNL     1       8.680   9.392  18.452  0.00  0.00    +0.000 C 
ATOM      2  C   UNL     1       7.721   8.648  17.582  0.00  0.00    +0.000 C 
ATOM      3  C   UNL     1       7.427   7.345  17.711  0.00  0.00    +0.000 C 
ATOM      4  C   UNL     1       7.939   6.380  18.781  0.00  0.00    +0.000 C 
ATOM      5  C   UNL     1       7.026   5.153  18.519  0.00  0.00    +0.000 C 
ATOM      6  C   UNL     1       7.404   4.540  17.184  0.00  0.00    +0.000 C 
ATOM      7  C   UNL     1       7.015   5.408  16.235  0.00  0.00    +0.000 C 
ATOM      8  C   UNL     1       6.365   6.584  16.929  0.00  0.00    +0.000 C 
ATOM      9  C   UNL     1       5.718   5.837  18.101  0.00  0.00    +0.000 C 
ENDROOT
TORSDOF 0
ENDMDL
MODEL 3
REMARK VINA RESULT:      -5.1      1.206      3.512
REMARK  Name = 
REMARK  1 active torsions:
REMARK  status: ('A' for Active; 'I' for Inactive)
REMARK    1  A    between atoms: C_1  and  C_2
REMARK                            x       y       z     vdW  Elec       q    Type
REMARK                         _______ _______ _______ _____ _____    ______ ____
ROOT
ATOM      1  C   UNL     1       2.590   7.182  18.454  0.00  0.00    +0.000 C 
ATOM      2  C   UNL     1       2.658   5.709  18.227  0.00  0.00    +0.000 C 
ATOM      3  C   UNL     1       2.277   4.781  19.118  0.00  0.00    +0.000 C 
ATOM      4  C   UNL     1       1.647   5.017  20.491  0.00  0.00    +0.000 C 
ATOM      5  C   UNL     1       1.217   3.572  20.861  0.00  0.00    +0.000 C 
ATOM      6  C   UNL     1       2.462   2.741  21.106  0.00  0.00    +0.000 C 
ATOM      7  C   UNL     1       3.061   2.578  19.913  0.00  0.00    +0.000 C 
ATOM      8  C   UNL     1       2.213   3.279  18.876  0.00  0.00    +0.000 C 
ATOM      9  C   UNL     1       0.830   3.014  19.484  0.00  0.00    +0.000 C 
ENDROOT
TORSDOF 0
ENDMDL
MODEL 4
REMARK VINA RESULT:      -5.1      0.762      1.188
REMARK  Name = 
REMARK  1 active torsions:
REMARK  status: ('A' for Active; 'I' for Inactive)
REMARK    1  A    between atoms: C_1  and  C_2
REMARK                            x       y       z     vdW  Elec       q    Type
REMARK                         _______ _______ _______ _____ _____    ______ ____
ROOT
ATOM      1  C   UNL     1       1.685   2.600  21.826  0.00  0.00    +0.000 C 
ATOM      2  C   UNL     1       1.808   3.803  20.950  0.00  0.00    +0.000 C 
ATOM      3  C   UNL     1       2.156   3.771  19.655  0.00  0.00    +0.000 C 
ATOM      4  C   UNL     1       2.430   2.534  18.798  0.00  0.00    +0.000 C 
ATOM      5  C   UNL     1       2.504   3.175  17.386  0.00  0.00    +0.000 C 
ATOM      6  C   UNL     1       3.754   4.031  17.304  0.00  0.00    +0.000 C 
ATOM      7  C   UNL     1       3.551   5.092  18.103  0.00  0.00    +0.000 C 
ATOM      8  C   UNL     1       2.168   4.958  18.701  0.00  0.00    +0.000 C 
ATOM      9  C   UNL     1       1.462   4.295  17.512  0.00  0.00    +0.000 C 
ENDROOT
TORSDOF 0
ENDMDL
MODEL 5
REMARK VINA RESULT:      -5.1      1.231      3.548
REMARK  Name = 
REMARK  1 active torsions:
REMARK  status: ('A' for Active; 'I' for Inactive)
REMARK    1  A    between atoms: C_1  and  C_2
REMARK                            x       y       z     vdW  Elec       q    Type
REMARK                         _______ _______ _______ _____ _____    ______ ____
ROOT
ATOM      1  C   UNL     1       3.945   3.925  16.865  0.00  0.00    +0.000 C 
ATOM      2  C   UNL     1       2.706   3.482  17.569  0.00  0.00    +0.000 C 
ATOM      3  C   UNL     1       2.444   3.703  18.866  0.00  0.00    +0.000 C 
ATOM      4  C   UNL     1       3.296   4.489  19.864  0.00  0.00    +0.000 C 
ATOM      5  C   UNL     1       2.316   4.586  21.063  0.00  0.00    +0.000 C 
ATOM      6  C   UNL     1       2.136   3.203  21.659  0.00  0.00    +0.000 C 
ATOM      7  C   UNL     1       1.441   2.481  20.763  0.00  0.00    +0.000 C 
ATOM      8  C   UNL     1       1.141   3.380  19.585  0.00  0.00    +0.000 C 
ATOM      9  C   UNL     1       0.968   4.705  20.338  0.00  0.00    +0.000 C 
ENDROOT
TORSDOF 0
ENDMDL
MODEL 6
REMARK VINA RESULT:      -5.1      1.223      3.349
REMARK  Name = 
REMARK  1 active torsions:
REMARK  status: ('A' for Active; 'I' for Inactive)
REMARK    1  A    between atoms: C_1  and  C_2
REMARK                            x       y       z     vdW  Elec       q    Type
REMARK                         _______ _______ _______ _____ _____    ______ ____
ROOT
ATOM      1  C   UNL     1       2.524   7.500  18.287  0.00  0.00    +0.000 C 
ATOM      2  C   UNL     1       2.545   6.437  19.334  0.00  0.00    +0.000 C 
ATOM      3  C   UNL     1       2.231   5.150  19.120  0.00  0.00    +0.000 C 
ATOM      4  C   UNL     1       1.858   4.494  17.790  0.00  0.00    +0.000 C 
ATOM      5  C   UNL     1       1.886   2.996  18.192  0.00  0.00    +0.000 C 
ATOM      6  C   UNL     1       0.730   2.722  19.134  0.00  0.00    +0.000 C 
ATOM      7  C   UNL     1       1.015   3.346  20.290  0.00  0.00    +0.000 C 
ATOM      8  C   UNL     1       2.361   4.016  20.128  0.00  0.00    +0.000 C 
ATOM      9  C   UNL     1       3.031   2.982  19.215  0.00  0.00    +0.000 C 
ENDROOT
TORSDOF 0
ENDMDL
MODEL 7
REMARK VINA RESULT:      -5.0      1.184      3.564
REMARK  Name = 
REMARK  1 active torsions:
REMARK  status: ('A' for Active; 'I' for Inactive)
REMARK    1  A    between atoms: C_1  and  C_2
REMARK                            x       y       z     vdW  Elec       q    Type
REMARK                         _______ _______ _______ _____ _____    ______ ____
ROOT
ATOM      1  C   UNL     1       4.560   4.482  16.641  0.00  0.00    +0.000 C 
ATOM      2  C   UNL     1       4.363   3.770  17.938  0.00  0.00    +0.000 C 
ATOM      3  C   UNL     1       3.174   3.580  18.531  0.00  0.00    +0.000 C 
ATOM      4  C   UNL     1       1.797   3.977  17.997  0.00  0.00    +0.000 C 
ATOM      5  C   UNL     1       0.876   3.245  19.009  0.00  0.00    +0.000 C 
ATOM      6  C   UNL     1       1.012   3.913  20.364  0.00  0.00    +0.000 C 
ATOM      7  C   UNL     1       2.243   3.623  20.818  0.00  0.00    +0.000 C 
ATOM      8  C   UNL     1       2.919   2.752  19.783  0.00  0.00    +0.000 C 
ATOM      9  C   UNL     1       1.691   1.976  19.291  0.00  0.00    +0.000 C 
ENDROOT
TORSDOF 0
ENDMDL
MODEL 8
REMARK VINA RESULT:      -5.0      1.179      3.634
REMARK  Name = 
REMARK  1 active torsions:
REMARK  status: ('A' for Active; 'I' for Inactive)
REMARK    1  A    between atoms: C_1  and  C_2
REMARK                            x       y       z     vdW  Elec       q    Type
REMARK                         _______ _______ _______ _____ _____    ______ ____
ROOT
ATOM      1  C   UNL     1       4.238   4.632  17.001  0.00  0.00    +0.000 C 
ATOM      2  C   UNL     1       3.753   3.490  17.831  0.00  0.00    +0.000 C 
ATOM      3  C   UNL     1       2.916   3.606  18.873  0.00  0.00    +0.000 C 
ATOM      4  C   UNL     1       2.243   4.880  19.386  0.00  0.00    +0.000 C 
ATOM      5  C   UNL     1       1.233   4.281  20.401  0.00  0.00    +0.000 C 
ATOM      6  C   UNL     1       2.003   3.709  21.576  0.00  0.00    +0.000 C 
ATOM      7  C   UNL     1       2.651   2.622  21.123  0.00  0.00    +0.000 C 
ATOM      8  C   UNL     1       2.301   2.457  19.661  0.00  0.00    +0.000 C 
ATOM      9  C   UNL     1       0.856   2.966  19.706  0.00  0.00    +0.000 C 
ENDROOT
TORSDOF 0
ENDMDL
MODEL 9
REMARK VINA RESULT:      -4.9      3.938      5.585
REMARK  Name = 
REMARK  1 active torsions:
REMARK  status: ('A' for Active; 'I' for Inactive)
REMARK    1  A    between atoms: C_1  and  C_2
REMARK                            x       y       z     vdW  Elec       q    Type
REMARK                         _______ _______ _______ _____ _____    ______ ____
ROOT
ATOM      1  C   UNL     1       6.162   3.973  13.958  0.00  0.00    +0.000 C 
ATOM      2  C   UNL     1       5.665   5.045  14.872  0.00  0.00    +0.000 C 
ATOM      3  C   UNL     1       6.136   5.272  16.107  0.00  0.00    +0.000 C 
ATOM      4  C   UNL     1       7.290   4.553  16.808  0.00  0.00    +0.000 C 
ATOM      5  C   UNL     1       7.478   5.459  18.053  0.00  0.00    +0.000 C 
ATOM      6  C   UNL     1       6.271   5.301  18.958  0.00  0.00    +0.000 C 
ATOM      7  C   UNL     1       5.233   5.875  18.326  0.00  0.00    +0.000 C 
ATOM      8  C   UNL     1       5.746   6.430  17.016  0.00  0.00    +0.000 C 
ATOM      9  C   UNL     1       7.152   6.841  17.469  0.00  0.00    +0.000 C 
ENDROOT
TORSDOF 0
ENDMDL
