MODEL 1
REMARK VINA RESULT:      -6.2      0.000      0.000
REMARK  Name = 
REMARK  8 active torsions:
REMARK  status: ('A' for Active; 'I' for Inactive)
REMARK    1  A    between atoms: C_1  and  O_2
REMARK    2  A    between atoms: O_2  and  C_3
REMARK    3  A    between atoms: C_3  and  C_5
REMARK    4  A    between atoms: C_7  and  C_8
REMARK    5  A    between atoms: C_8  and  C_9
REMARK    6  A    between atoms: C_9  and  C_10
REMARK    7  A    between atoms: C_9  and  C_11
REMARK    8  A    between atoms: C_13  and  C_15
REMARK                            x       y       z     vdW  Elec       q    Type
REMARK                         _______ _______ _______ _____ _____    ______ ____
ROOT
ATOM      1  C   UNL     1       9.036  15.827  20.612  0.00  0.00    +0.000 C 
ATOM      2  C   UNL     1       7.841  16.284  21.448  0.00  0.00    +0.000 C 
ATOM      3  C   UNL     1       6.574  15.854  20.709  0.00  0.00    +0.000 C 
ATOM      4  N   UNL     1       7.009  15.360  19.398  0.00  0.00    +0.000 N 
ATOM      5  C   UNL     1       6.187  15.091  18.297  0.00  0.00    +0.000 C 
ATOM      6  O   UNL     1       6.638  14.621  17.250  0.00  0.00    +0.000 OA
ATOM      7  C   UNL     1       8.471  15.285  19.283  0.00  0.00    +0.000 C 
ATOM      8  C   UNL     1       9.036  16.252  18.176  0.00  0.00    +0.000 C 
ATOM      9  O   UNL     1       8.787  17.439  18.029  0.00  0.00    +0.000 OA
ATOM     10  N   UNL     1       9.953  15.527  17.425  0.00  0.00    +0.000 N 
ATOM     11  C   UNL     1       9.949  14.186  17.781  0.00  0.00    +0.000 A 
ATOM     12  C   UNL     1      10.692  13.175  17.202  0.00  0.00    +0.000 A 
ATOM     13  C   UNL     1      10.506  11.883  17.695  0.00  0.00    +0.000 A 
ATOM     14  C   UNL     1       9.576  11.636  18.721  0.00  0.00    +0.000 A 
ATOM     15 CL   UNL     1       9.362  10.026  19.292  0.00  0.00    +0.000 Cl
ATOM     16  C   UNL     1       8.834  12.675  19.296  0.00  0.00    +0.000 A 
ATOM     17  C   UNL     1       9.048  13.963  18.829  0.00  0.00    +0.000 A 
ATOM     18  H   UNL     1      10.451  15.923  16.642  0.00  0.00    +0.000 HD
ENDROOT
BRANCH   5  19
ATOM     19  C   UNL     1       4.704  15.361  18.349  0.00  0.00    +0.000 A 
ATOM     20  C   UNL     1       3.822  14.285  18.410  0.00  0.00    +0.000 A 
ATOM     21  C   UNL     1       2.453  14.545  18.476  0.00  0.00    +0.000 A 
ATOM     22  C   UNL     1       2.006  15.861  18.469  0.00  0.00    +0.000 A 
ATOM     23  C   UNL     1       2.947  16.868  18.382  0.00  0.00    +0.000 A 
ATOM     24  N   UNL     1       4.278  16.650  18.320  0.00  0.00    +0.000 NA
ENDBRANCH   5  19
BRANCH   1  25
ATOM     25  C   UNL     1       9.905  14.864  21.386  0.00  0.00    +0.000 C 
ATOM     26  O   UNL     1       9.515  14.130  22.282  0.00  0.00    +0.000 OA
BRANCH  25  28
ATOM     27  C   UNL     1      11.662  16.318  20.835  0.00  0.00    +0.000 C 
ATOM     28  O   UNL     1      11.200  14.973  20.971  0.00  0.00    +0.000 OA
ENDBRANCH  25  28
ENDBRANCH   1  25
BRANCH   3  29
ATOM     29  C   UNL     1       5.741  14.818  21.496  0.00  0.00    +0.000 C 
BRANCH  29  30
ATOM     30  C   UNL     1       6.240  14.520  22.930  0.00  0.00    +0.000 C 
ATOM     31  C   UNL     1       5.345  15.113  24.019  0.00  0.00    +0.000 C 
ATOM     32  C   UNL     1       6.351  13.008  23.147  0.00  0.00    +0.000 C 
ENDBRANCH  29  30
ENDBRANCH   3  29
TORSDOF 5
ENDMDL
MODEL 2
REMARK VINA RESULT:      -6.1      7.128     10.727
REMARK  Name = 
REMARK  8 active torsions:
REMARK  status: ('A' for Active; 'I' for Inactive)
REMARK    1  A    between atoms: C_1  and  O_2
REMARK    2  A    between atoms: O_2  and  C_3
REMARK    3  A    between atoms: C_3  and  C_5
REMARK    4  A    between atoms: C_7  and  C_8
REMARK    5  A    between atoms: C_8  and  C_9
REMARK    6  A    between atoms: C_9  and  C_10
REMARK    7  A    between atoms: C_9  and  C_11
REMARK    8  A    between atoms: C_13  and  C_15
REMARK                            x       y       z     vdW  Elec       q    Type
REMARK                         _______ _______ _______ _____ _____    ______ ____
ROOT
ATOM      1  C   UNL     1      -0.005  11.827  20.733  0.00  0.00    +0.000 C 
ATOM      2  C   UNL     1      -0.539  10.780  19.755  0.00  0.00    +0.000 C 
ATOM      3  C   UNL     1      -1.945  11.213  19.342  0.00  0.00    +0.000 C 
ATOM      4  N   UNL     1      -2.297  12.345  20.205  0.00  0.00    +0.000 N 
ATOM      5  C   UNL     1      -3.570  12.909  20.358  0.00  0.00    +0.000 C 
ATOM      6  O   UNL     1      -3.759  13.901  21.065  0.00  0.00    +0.000 OA
ATOM      7  C   UNL     1      -1.173  12.787  21.040  0.00  0.00    +0.000 C 
ATOM      8  C   UNL     1      -1.458  12.603  22.577  0.00  0.00    +0.000 C 
ATOM      9  O   UNL     1      -1.872  11.601  23.141  0.00  0.00    +0.000 OA
ATOM     10  N   UNL     1      -1.073  13.778  23.211  0.00  0.00    +0.000 N 
ATOM     11  C   UNL     1      -0.727  14.757  22.292  0.00  0.00    +0.000 A 
ATOM     12  C   UNL     1      -0.353  16.058  22.571  0.00  0.00    +0.000 A 
ATOM     13  C   UNL     1      -0.081  16.892  21.486  0.00  0.00    +0.000 A 
ATOM     14  C   UNL     1      -0.214  16.417  20.168  0.00  0.00    +0.000 A 
ATOM     15 CL   UNL     1       0.114  17.480  18.855  0.00  0.00    +0.000 Cl
ATOM     16  C   UNL     1      -0.594  15.095  19.906  0.00  0.00    +0.000 A 
ATOM     17  C   UNL     1      -0.827  14.259  20.988  0.00  0.00    +0.000 A 
ATOM     18  H   UNL     1      -1.164  13.915  24.206  0.00  0.00    +0.000 HD
ENDROOT
BRANCH   5  19
ATOM     19  C   UNL     1      -4.769  12.326  19.653  0.00  0.00    +0.000 A 
ATOM     20  C   UNL     1      -5.040  12.714  18.343  0.00  0.00    +0.000 A 
ATOM     21  C   UNL     1      -6.140  12.156  17.693  0.00  0.00    +0.000 A 
ATOM     22  C   UNL     1      -6.940  11.240  18.367  0.00  0.00    +0.000 A 
ATOM     23  C   UNL     1      -6.614  10.928  19.673  0.00  0.00    +0.000 A 
ATOM     24  N   UNL     1      -5.555  11.448  20.328  0.00  0.00    +0.000 NA
ENDBRANCH   5  19
BRANCH   1  25
ATOM     25  C   UNL     1       1.247  12.481  20.201  0.00  0.00    +0.000 C 
ATOM     26  O   UNL     1       1.524  12.611  19.017  0.00  0.00    +0.000 OA
BRANCH  25  28
ATOM     27  C   UNL     1       2.881  13.986  20.953  0.00  0.00    +0.000 C 
ATOM     28  O   UNL     1       2.049  12.860  21.237  0.00  0.00    +0.000 OA
ENDBRANCH  25  28
ENDBRANCH   1  25
BRANCH   3  29
ATOM     29  C   UNL     1      -2.054  11.547  17.837  0.00  0.00    +0.000 C 
BRANCH  29  30
ATOM     30  C   UNL     1      -2.457  10.364  16.925  0.00  0.00    +0.000 C 
ATOM     31  C   UNL     1      -3.502   9.441  17.555  0.00  0.00    +0.000 C 
ATOM     32  C   UNL     1      -2.997  10.886  15.590  0.00  0.00    +0.000 C 
ENDBRANCH  29  30
ENDBRANCH   3  29
TORSDOF 5
ENDMDL
MODEL 3
REMARK VINA RESULT:      -6.1      7.246     10.730
REMARK  Name = 
REMARK  8 active torsions:
REMARK  status: ('A' for Active; 'I' for Inactive)
REMARK    1  A    between atoms: C_1  and  O_2
REMARK    2  A    between atoms: O_2  and  C_3
REMARK    3  A    between atoms: C_3  and  C_5
REMARK    4  A    between atoms: C_7  and  C_8
REMARK    5  A    between atoms: C_8  and  C_9
REMARK    6  A    between atoms: C_9  and  C_10
REMARK    7  A    between atoms: C_9  and  C_11
REMARK    8  A    between atoms: C_13  and  C_15
REMARK                            x       y       z     vdW  Elec       q    Type
REMARK                         _______ _______ _______ _____ _____    ______ ____
ROOT
ATOM      1  C   UNL     1      -0.060  11.730  20.878  0.00  0.00    +0.000 C 
ATOM      2  C   UNL     1      -0.576  10.704  19.868  0.00  0.00    +0.000 C 
ATOM      3  C   UNL     1      -1.945  11.183  19.387  0.00  0.00    +0.000 C 
ATOM      4  N   UNL     1      -2.305  12.323  20.237  0.00  0.00    +0.000 N 
ATOM      5  C   UNL     1      -3.566  12.926  20.327  0.00  0.00    +0.000 C 
ATOM      6  O   UNL     1      -3.759  13.922  21.029  0.00  0.00    +0.000 OA
ATOM      7  C   UNL     1      -1.211  12.726  21.130  0.00  0.00    +0.000 C 
ATOM      8  C   UNL     1      -1.580  12.545  22.649  0.00  0.00    +0.000 C 
ATOM      9  O   UNL     1      -2.053  11.555  23.187  0.00  0.00    +0.000 OA
ATOM     10  N   UNL     1      -1.191  13.705  23.308  0.00  0.00    +0.000 N 
ATOM     11  C   UNL     1      -0.768  14.677  22.412  0.00  0.00    +0.000 A 
ATOM     12  C   UNL     1      -0.368  15.963  22.717  0.00  0.00    +0.000 A 
ATOM     13  C   UNL     1      -0.015  16.792  21.651  0.00  0.00    +0.000 A 
ATOM     14  C   UNL     1      -0.095  16.326  20.326  0.00  0.00    +0.000 A 
ATOM     15 CL   UNL     1       0.333  17.383  19.036  0.00  0.00    +0.000 Cl
ATOM     16  C   UNL     1      -0.502  15.018  20.039  0.00  0.00    +0.000 A 
ATOM     17  C   UNL     1      -0.817  14.186  21.103  0.00  0.00    +0.000 A 
ATOM     18  H   UNL     1      -1.328  13.842  24.298  0.00  0.00    +0.000 HD
ENDROOT
BRANCH   5  19
ATOM     19  C   UNL     1      -4.745  12.384  19.559  0.00  0.00    +0.000 A 
ATOM     20  C   UNL     1      -5.646  11.542  20.207  0.00  0.00    +0.000 A 
ATOM     21  C   UNL     1      -6.743  11.061  19.493  0.00  0.00    +0.000 A 
ATOM     22  C   UNL     1      -6.904  11.421  18.160  0.00  0.00    +0.000 A 
ATOM     23  C   UNL     1      -5.951  12.241  17.589  0.00  0.00    +0.000 A 
ATOM     24  N   UNL     1      -4.880  12.727  18.252  0.00  0.00    +0.000 NA
ENDBRANCH   5  19
BRANCH   1  25
ATOM     25  C   UNL     1       1.237  12.346  20.413  0.00  0.00    +0.000 C 
ATOM     26  O   UNL     1       2.071  12.863  21.144  0.00  0.00    +0.000 OA
BRANCH  25  28
ATOM     27  C   UNL     1       2.424  13.003  18.500  0.00  0.00    +0.000 C 
ATOM     28  O   UNL     1       1.319  12.285  19.053  0.00  0.00    +0.000 OA
ENDBRANCH  25  28
ENDBRANCH   1  25
BRANCH   3  29
ATOM     29  C   UNL     1      -1.967  11.525  17.880  0.00  0.00    +0.000 C 
BRANCH  29  30
ATOM     30  C   UNL     1      -2.381  10.365  16.945  0.00  0.00    +0.000 C 
ATOM     31  C   UNL     1      -3.447   9.449  17.549  0.00  0.00    +0.000 C 
ATOM     32  C   UNL     1      -2.899  10.918  15.614  0.00  0.00    +0.000 C 
ENDBRANCH  29  30
ENDBRANCH   3  29
TORSDOF 5
ENDMDL
MODEL 4
REMARK VINA RESULT:      -6.1      0.765      1.234
REMARK  Name = 
REMARK  8 active torsions:
REMARK  status: ('A' for Active; 'I' for Inactive)
REMARK    1  A    between atoms: C_1  and  O_2
REMARK    2  A    between atoms: O_2  and  C_3
REMARK    3  A    between atoms: C_3  and  C_5
REMARK    4  A    between atoms: C_7  and  C_8
REMARK    5  A    between atoms: C_8  and  C_9
REMARK    6  A    between atoms: C_9  and  C_10
REMARK    7  A    between atoms: C_9  and  C_11
REMARK    8  A    between atoms: C_13  and  C_15
REMARK                            x       y       z     vdW  Elec       q    Type
REMARK                         _______ _______ _______ _____ _____    ______ ____
ROOT
ATOM      1  C   UNL     1       8.948  15.816  20.663  0.00  0.00    +0.000 C 
ATOM      2  C   UNL     1       7.758  16.248  21.520  0.00  0.00    +0.000 C 
ATOM      3  C   UNL     1       6.488  15.779  20.812  0.00  0.00    +0.000 C 
ATOM      4  N   UNL     1       6.908  15.286  19.496  0.00  0.00    +0.000 N 
ATOM      5  C   UNL     1       6.070  14.987  18.415  0.00  0.00    +0.000 C 
ATOM      6  O   UNL     1       6.511  14.520  17.362  0.00  0.00    +0.000 OA
ATOM      7  C   UNL     1       8.369  15.249  19.350  0.00  0.00    +0.000 C 
ATOM      8  C   UNL     1       8.883  16.221  18.224  0.00  0.00    +0.000 C 
ATOM      9  O   UNL     1       8.600  17.400  18.073  0.00  0.00    +0.000 OA
ATOM     10  N   UNL     1       9.803  15.514  17.459  0.00  0.00    +0.000 N 
ATOM     11  C   UNL     1       9.843  14.177  17.825  0.00  0.00    +0.000 A 
ATOM     12  C   UNL     1      10.599  13.181  17.237  0.00  0.00    +0.000 A 
ATOM     13  C   UNL     1      10.458  11.888  17.744  0.00  0.00    +0.000 A 
ATOM     14  C   UNL     1       9.558  11.626  18.792  0.00  0.00    +0.000 A 
ATOM     15 CL   UNL     1       9.399  10.015  19.380  0.00  0.00    +0.000 Cl
ATOM     16  C   UNL     1       8.801  12.649  19.375  0.00  0.00    +0.000 A 
ATOM     17  C   UNL     1       8.971  13.938  18.893  0.00  0.00    +0.000 A 
ATOM     18  H   UNL     1      10.274  15.917  16.663  0.00  0.00    +0.000 HD
ENDROOT
BRANCH   5  19
ATOM     19  C   UNL     1       4.582  15.217  18.497  0.00  0.00    +0.000 A 
ATOM     20  C   UNL     1       4.077  16.486  18.223  0.00  0.00    +0.000 A 
ATOM     21  C   UNL     1       2.698  16.684  18.283  0.00  0.00    +0.000 A 
ATOM     22  C   UNL     1       1.868  15.622  18.623  0.00  0.00    +0.000 A 
ATOM     23  C   UNL     1       2.453  14.403  18.903  0.00  0.00    +0.000 A 
ATOM     24  N   UNL     1       3.783  14.177  18.850  0.00  0.00    +0.000 NA
ENDBRANCH   5  19
BRANCH   1  25
ATOM     25  C   UNL     1       9.858  14.883  21.424  0.00  0.00    +0.000 C 
ATOM     26  O   UNL     1       9.505  14.141  22.329  0.00  0.00    +0.000 OA
BRANCH  25  28
ATOM     27  C   UNL     1      11.566  16.387  20.855  0.00  0.00    +0.000 C 
ATOM     28  O   UNL     1      11.142  15.029  20.988  0.00  0.00    +0.000 OA
ENDBRANCH  25  28
ENDBRANCH   1  25
BRANCH   3  29
ATOM     29  C   UNL     1       5.700  14.728  21.625  0.00  0.00    +0.000 C 
BRANCH  29  30
ATOM     30  C   UNL     1       4.552  15.291  22.496  0.00  0.00    +0.000 C 
ATOM     31  C   UNL     1       4.956  15.526  23.953  0.00  0.00    +0.000 C 
ATOM     32  C   UNL     1       4.036  16.606  21.906  0.00  0.00    +0.000 C 
ENDBRANCH  29  30
ENDBRANCH   3  29
TORSDOF 5
ENDMDL
MODEL 5
REMARK VINA RESULT:      -5.9      0.727      1.360
REMARK  Name = 
REMARK  8 active torsions:
REMARK  status: ('A' for Active; 'I' for Inactive)
REMARK    1  A    between atoms: C_1  and  O_2
REMARK    2  A    between atoms: O_2  and  C_3
REMARK    3  A    between atoms: C_3  and  C_5
REMARK    4  A    between atoms: C_7  and  C_8
REMARK    5  A    between atoms: C_8  and  C_9
REMARK    6  A    between atoms: C_9  and  C_10
REMARK    7  A    between atoms: C_9  and  C_11
REMARK    8  A    between atoms: C_13  and  C_15
REMARK                            x       y       z     vdW  Elec       q    Type
REMARK                         _______ _______ _______ _____ _____    ______ ____
ROOT
ATOM      1  C   UNL     1       8.928  15.791  20.676  0.00  0.00    +0.000 C 
ATOM      2  C   UNL     1       7.722  16.227  21.508  0.00  0.00    +0.000 C 
ATOM      3  C   UNL     1       6.465  15.812  20.745  0.00  0.00    +0.000 C 
ATOM      4  N   UNL     1       6.916  15.349  19.428  0.00  0.00    +0.000 N 
ATOM      5  C   UNL     1       6.107  15.104  18.312  0.00  0.00    +0.000 C 
ATOM      6  O   UNL     1       6.572  14.659  17.260  0.00  0.00    +0.000 OA
ATOM      7  C   UNL     1       8.380  15.280  19.328  0.00  0.00    +0.000 C 
ATOM      8  C   UNL     1       8.955  16.272  18.251  0.00  0.00    +0.000 C 
ATOM      9  O   UNL     1       8.706  17.462  18.128  0.00  0.00    +0.000 OA
ATOM     10  N   UNL     1       9.882  15.566  17.494  0.00  0.00    +0.000 N 
ATOM     11  C   UNL     1       9.877  14.217  17.819  0.00  0.00    +0.000 A 
ATOM     12  C   UNL     1      10.628  13.222  17.225  0.00  0.00    +0.000 A 
ATOM     13  C   UNL     1      10.439  11.918  17.685  0.00  0.00    +0.000 A 
ATOM     14  C   UNL     1       9.498  11.646  18.695  0.00  0.00    +0.000 A 
ATOM     15 CL   UNL     1       9.280  10.022  19.226  0.00  0.00    +0.000 Cl
ATOM     16  C   UNL     1       8.747  12.670  19.285  0.00  0.00    +0.000 A 
ATOM     17  C   UNL     1       8.965  13.969  18.850  0.00  0.00    +0.000 A 
ATOM     18  H   UNL     1      10.389  15.981  16.726  0.00  0.00    +0.000 HD
ENDROOT
BRANCH   5  19
ATOM     19  C   UNL     1       4.623  15.370  18.353  0.00  0.00    +0.000 A 
ATOM     20  C   UNL     1       3.748  14.299  18.513  0.00  0.00    +0.000 A 
ATOM     21  C   UNL     1       2.378  14.557  18.568  0.00  0.00    +0.000 A 
ATOM     22  C   UNL     1       1.923  15.866  18.452  0.00  0.00    +0.000 A 
ATOM     23  C   UNL     1       2.859  16.866  18.271  0.00  0.00    +0.000 A 
ATOM     24  N   UNL     1       4.190  16.650  18.217  0.00  0.00    +0.000 NA
ENDBRANCH   5  19
BRANCH   1  25
ATOM     25  C   UNL     1       9.790  14.812  21.437  0.00  0.00    +0.000 C 
ATOM     26  O   UNL     1      10.936  14.507  21.141  0.00  0.00    +0.000 OA
BRANCH  25  28
ATOM     27  C   UNL     1       9.137  12.854  22.551  0.00  0.00    +0.000 C 
ATOM     28  O   UNL     1       9.082  14.280  22.475  0.00  0.00    +0.000 OA
ENDBRANCH  25  28
ENDBRANCH   1  25
BRANCH   3  29
ATOM     29  C   UNL     1       5.625  14.757  21.498  0.00  0.00    +0.000 C 
BRANCH  29  30
ATOM     30  C   UNL     1       4.485  15.324  22.378  0.00  0.00    +0.000 C 
ATOM     31  C   UNL     1       4.881  15.499  23.845  0.00  0.00    +0.000 C 
ATOM     32  C   UNL     1       4.014  16.672  21.827  0.00  0.00    +0.000 C 
ENDBRANCH  29  30
ENDBRANCH   3  29
TORSDOF 5
ENDMDL
MODEL 6
REMARK VINA RESULT:      -5.7      6.938     10.530
REMARK  Name = 
REMARK  8 active torsions:
REMARK  status: ('A' for Active; 'I' for Inactive)
REMARK    1  A    between atoms: C_1  and  O_2
REMARK    2  A    between atoms: O_2  and  C_3
REMARK    3  A    between atoms: C_3  and  C_5
REMARK    4  A    between atoms: C_7  and  C_8
REMARK    5  A    between atoms: C_8  and  C_9
REMARK    6  A    between atoms: C_9  and  C_10
REMARK    7  A    between atoms: C_9  and  C_11
REMARK    8  A    between atoms: C_13  and  C_15
REMARK                            x       y       z     vdW  Elec       q    Type
REMARK                         _______ _______ _______ _____ _____    ______ ____
ROOT
ATOM      1  C   UNL     1      -0.002  12.323  20.579  0.00  0.00    +0.000 C 
ATOM      2  C   UNL     1      -0.867  11.220  19.970  0.00  0.00    +0.000 C 
ATOM      3  C   UNL     1      -2.287  11.770  19.841  0.00  0.00    +0.000 C 
ATOM      4  N   UNL     1      -2.295  13.058  20.542  0.00  0.00    +0.000 N 
ATOM      5  C   UNL     1      -3.426  13.804  20.895  0.00  0.00    +0.000 C 
ATOM      6  O   UNL     1      -3.331  14.910  21.434  0.00  0.00    +0.000 OA
ATOM      7  C   UNL     1      -0.955  13.467  20.981  0.00  0.00    +0.000 C 
ATOM      8  C   UNL     1      -0.841  13.561  22.548  0.00  0.00    +0.000 C 
ATOM      9  O   UNL     1      -1.179  12.722  23.370  0.00  0.00    +0.000 OA
ATOM     10  N   UNL     1      -0.197  14.757  22.843  0.00  0.00    +0.000 N 
ATOM     11  C   UNL     1      -0.018  15.528  21.704  0.00  0.00    +0.000 A 
ATOM     12  C   UNL     1       0.533  16.794  21.641  0.00  0.00    +0.000 A 
ATOM     13  C   UNL     1       0.583  17.407  20.389  0.00  0.00    +0.000 A 
ATOM     14  C   UNL     1       0.065  16.758  19.253  0.00  0.00    +0.000 A 
ATOM     15 CL   UNL     1       0.130  17.553  17.727  0.00  0.00    +0.000 Cl
ATOM     16  C   UNL     1      -0.489  15.475  19.338  0.00  0.00    +0.000 A 
ATOM     17  C   UNL     1      -0.503  14.854  20.578  0.00  0.00    +0.000 A 
ATOM     18  H   UNL     1      -0.009  15.056  23.788  0.00  0.00    +0.000 HD
ENDROOT
BRANCH   5  19
ATOM     19  C   UNL     1      -4.816  13.287  20.623  0.00  0.00    +0.000 A 
ATOM     20  C   UNL     1      -5.579  13.886  19.624  0.00  0.00    +0.000 A 
ATOM     21  C   UNL     1      -6.856  13.388  19.367  0.00  0.00    +0.000 A 
ATOM     22  C   UNL     1      -7.338  12.321  20.117  0.00  0.00    +0.000 A 
ATOM     23  C   UNL     1      -6.525  11.801  21.106  0.00  0.00    +0.000 A 
ATOM     24  N   UNL     1      -5.283  12.258  21.376  0.00  0.00    +0.000 NA
ENDBRANCH   5  19
BRANCH   1  25
ATOM     25  C   UNL     1       1.120  12.713  19.647  0.00  0.00    +0.000 C 
ATOM     26  O   UNL     1       1.067  12.668  18.426  0.00  0.00    +0.000 OA
BRANCH  25  28
ATOM     27  C   UNL     1       2.991  14.121  19.778  0.00  0.00    +0.000 C 
ATOM     28  O   UNL     1       2.219  13.075  20.369  0.00  0.00    +0.000 OA
ENDBRANCH  25  28
ENDBRANCH   1  25
BRANCH   3  29
ATOM     29  C   UNL     1      -2.758  11.880  18.374  0.00  0.00    +0.000 C 
BRANCH  29  30
ATOM     30  C   UNL     1      -3.521  10.649  17.830  0.00  0.00    +0.000 C 
ATOM     31  C   UNL     1      -4.932  10.978  17.339  0.00  0.00    +0.000 C 
ATOM     32  C   UNL     1      -2.735  10.004  16.685  0.00  0.00    +0.000 C 
ENDBRANCH  29  30
ENDBRANCH   3  29
TORSDOF 5
ENDMDL
MODEL 7
REMARK VINA RESULT:      -5.7      5.348      9.252
REMARK  Name = 
REMARK  8 active torsions:
REMARK  status: ('A' for Active; 'I' for Inactive)
REMARK    1  A    between atoms: C_1  and  O_2
REMARK    2  A    between atoms: O_2  and  C_3
REMARK    3  A    between atoms: C_3  and  C_5
REMARK    4  A    between atoms: C_7  and  C_8
REMARK    5  A    between atoms: C_8  and  C_9
REMARK    6  A    between atoms: C_9  and  C_10
REMARK    7  A    between atoms: C_9  and  C_11
REMARK    8  A    between atoms: C_13  and  C_15
REMARK                            x       y       z     vdW  Elec       q    Type
REMARK                         _______ _______ _______ _____ _____    ______ ____
ROOT
ATOM      1  C   UNL     1      -0.980  13.192  19.056  0.00  0.00    +0.000 C 
ATOM      2  C   UNL     1      -0.061  13.978  18.121  0.00  0.00    +0.000 C 
ATOM      3  C   UNL     1       1.079  14.542  18.967  0.00  0.00    +0.000 C 
ATOM      4  N   UNL     1       0.725  14.278  20.366  0.00  0.00    +0.000 N 
ATOM      5  C   UNL     1       1.343  14.826  21.497  0.00  0.00    +0.000 C 
ATOM      6  O   UNL     1       1.012  14.498  22.639  0.00  0.00    +0.000 OA
ATOM      7  C   UNL     1      -0.479  13.447  20.493  0.00  0.00    +0.000 C 
ATOM      8  C   UNL     1      -1.659  14.205  21.208  0.00  0.00    +0.000 C 
ATOM      9  O   UNL     1      -2.092  15.318  20.948  0.00  0.00    +0.000 OA
ATOM     10  N   UNL     1      -2.191  13.339  22.155  0.00  0.00    +0.000 N 
ATOM     11  C   UNL     1      -1.428  12.187  22.270  0.00  0.00    +0.000 A 
ATOM     12  C   UNL     1      -1.635  11.143  23.152  0.00  0.00    +0.000 A 
ATOM     13  C   UNL     1      -0.718  10.091  23.123  0.00  0.00    +0.000 A 
ATOM     14  C   UNL     1       0.379  10.123  22.243  0.00  0.00    +0.000 A 
ATOM     15 CL   UNL     1       1.498   8.814  22.248  0.00  0.00    +0.000 Cl
ATOM     16  C   UNL     1       0.570  11.189  21.357  0.00  0.00    +0.000 A 
ATOM     17  C   UNL     1      -0.363  12.215  21.363  0.00  0.00    +0.000 A 
ATOM     18  H   UNL     1      -2.960  13.595  22.756  0.00  0.00    +0.000 HD
ENDROOT
BRANCH   5  19
ATOM     19  C   UNL     1       2.452  15.839  21.364  0.00  0.00    +0.000 A 
ATOM     20  C   UNL     1       3.772  15.421  21.507  0.00  0.00    +0.000 A 
ATOM     21  C   UNL     1       4.791  16.362  21.365  0.00  0.00    +0.000 A 
ATOM     22  C   UNL     1       4.466  17.687  21.096  0.00  0.00    +0.000 A 
ATOM     23  C   UNL     1       3.130  18.021  20.993  0.00  0.00    +0.000 A 
ATOM     24  N   UNL     1       2.121  17.134  21.122  0.00  0.00    +0.000 NA
ENDBRANCH   5  19
BRANCH   1  25
ATOM     25  C   UNL     1      -1.063  11.741  18.648  0.00  0.00    +0.000 C 
ATOM     26  O   UNL     1      -0.143  11.093  18.171  0.00  0.00    +0.000 OA
BRANCH  25  28
ATOM     27  C   UNL     1      -3.203  11.471  17.728  0.00  0.00    +0.000 C 
ATOM     28  O   UNL     1      -2.330  11.276  18.841  0.00  0.00    +0.000 OA
ENDBRANCH  25  28
ENDBRANCH   1  25
BRANCH   3  29
ATOM     29  C   UNL     1       2.459  13.966  18.578  0.00  0.00    +0.000 C 
BRANCH  29  30
ATOM     30  C   UNL     1       3.315  14.865  17.655  0.00  0.00    +0.000 C 
ATOM     31  C   UNL     1       2.923  16.343  17.716  0.00  0.00    +0.000 C 
ATOM     32  C   UNL     1       4.798  14.731  18.013  0.00  0.00    +0.000 C 
ENDBRANCH  29  30
ENDBRANCH   3  29
TORSDOF 5
ENDMDL
MODEL 8
REMARK VINA RESULT:      -5.6      5.628      7.976
REMARK  Name = 
REMARK  8 active torsions:
REMARK  status: ('A' for Active; 'I' for Inactive)
REMARK    1  A    between atoms: C_1  and  O_2
REMARK    2  A    between atoms: O_2  and  C_3
REMARK    3  A    between atoms: C_3  and  C_5
REMARK    4  A    between atoms: C_7  and  C_8
REMARK    5  A    between atoms: C_8  and  C_9
REMARK    6  A    between atoms: C_9  and  C_10
REMARK    7  A    between atoms: C_9  and  C_11
REMARK    8  A    between atoms: C_13  and  C_15
REMARK                            x       y       z     vdW  Elec       q    Type
REMARK                         _______ _______ _______ _____ _____    ______ ____
ROOT
ATOM      1  C   UNL     1       0.573  15.018  21.532  0.00  0.00    +0.000 C 
ATOM      2  C   UNL     1      -0.024  13.749  22.142  0.00  0.00    +0.000 C 
ATOM      3  C   UNL     1      -0.389  12.815  20.990  0.00  0.00    +0.000 C 
ATOM      4  N   UNL     1      -0.213  13.590  19.758  0.00  0.00    +0.000 N 
ATOM      5  C   UNL     1      -0.658  13.232  18.479  0.00  0.00    +0.000 C 
ATOM      6  O   UNL     1      -0.410  13.924  17.489  0.00  0.00    +0.000 OA
ATOM      7  C   UNL     1       0.390  14.907  20.004  0.00  0.00    +0.000 C 
ATOM      8  C   UNL     1      -0.575  16.089  19.622  0.00  0.00    +0.000 C 
ATOM      9  O   UNL     1      -1.743  16.232  19.951  0.00  0.00    +0.000 OA
ATOM     10  N   UNL     1       0.169  17.010  18.894  0.00  0.00    +0.000 N 
ATOM     11  C   UNL     1       1.437  16.523  18.612  0.00  0.00    +0.000 A 
ATOM     12  C   UNL     1       2.415  17.149  17.862  0.00  0.00    +0.000 A 
ATOM     13  C   UNL     1       3.613  16.459  17.671  0.00  0.00    +0.000 A 
ATOM     14  C   UNL     1       3.789  15.170  18.206  0.00  0.00    +0.000 A 
ATOM     15 CL   UNL     1       5.275  14.344  17.935  0.00  0.00    +0.000 Cl
ATOM     16  C   UNL     1       2.786  14.554  18.964  0.00  0.00    +0.000 A 
ATOM     17  C   UNL     1       1.611  15.257  19.182  0.00  0.00    +0.000 A 
ATOM     18  H   UNL     1      -0.227  17.861  18.524  0.00  0.00    +0.000 HD
ENDROOT
BRANCH   5  19
ATOM     19  C   UNL     1      -1.457  11.972  18.258  0.00  0.00    +0.000 A 
ATOM     20  C   UNL     1      -0.802  10.821  17.827  0.00  0.00    +0.000 A 
ATOM     21  C   UNL     1      -1.547   9.657  17.644  0.00  0.00    +0.000 A 
ATOM     22  C   UNL     1      -2.916   9.675  17.883  0.00  0.00    +0.000 A 
ATOM     23  C   UNL     1      -3.490  10.866  18.285  0.00  0.00    +0.000 A 
ATOM     24  N   UNL     1      -2.797  12.008  18.475  0.00  0.00    +0.000 NA
ENDBRANCH   5  19
BRANCH   1  25
ATOM     25  C   UNL     1       1.992  15.232  22.000  0.00  0.00    +0.000 C 
ATOM     26  O   UNL     1       2.802  14.342  22.216  0.00  0.00    +0.000 OA
BRANCH  25  28
ATOM     27  C   UNL     1       3.489  17.016  21.719  0.00  0.00    +0.000 C 
ATOM     28  O   UNL     1       2.220  16.562  22.195  0.00  0.00    +0.000 OA
ENDBRANCH  25  28
ENDBRANCH   1  25
BRANCH   3  29
ATOM     29  C   UNL     1       0.428  11.503  20.997  0.00  0.00    +0.000 C 
BRANCH  29  30
ATOM     30  C   UNL     1      -0.350  10.242  21.442  0.00  0.00    +0.000 C 
ATOM     31  C   UNL     1       0.395   8.937  21.154  0.00  0.00    +0.000 C 
ATOM     32  C   UNL     1      -0.663  10.314  22.939  0.00  0.00    +0.000 C 
ENDBRANCH  29  30
ENDBRANCH   3  29
TORSDOF 5
ENDMDL
MODEL 9
REMARK VINA RESULT:      -5.6      9.027     12.465
REMARK  Name = 
REMARK  8 active torsions:
REMARK  status: ('A' for Active; 'I' for Inactive)
REMARK    1  A    between atoms: C_1  and  O_2
REMARK    2  A    between atoms: O_2  and  C_3
REMARK    3  A    between atoms: C_3  and  C_5
REMARK    4  A    between atoms: C_7  and  C_8
REMARK    5  A    between atoms: C_8  and  C_9
REMARK    6  A    between atoms: C_9  and  C_10
REMARK    7  A    between atoms: C_9  and  C_11
REMARK    8  A    between atoms: C_13  and  C_15
REMARK                            x       y       z     vdW  Elec       q    Type
REMARK                         _______ _______ _______ _____ _____    ______ ____
ROOT
ATOM      1  C   UNL     1      -1.828  12.999  23.061  0.00  0.00    +0.000 C 
ATOM      2  C   UNL     1      -1.671  11.951  21.959  0.00  0.00    +0.000 C 
ATOM      3  C   UNL     1      -2.925  12.012  21.088  0.00  0.00    +0.000 C 
ATOM      4  N   UNL     1      -3.863  12.904  21.777  0.00  0.00    +0.000 N 
ATOM      5  C   UNL     1      -5.223  13.068  21.482  0.00  0.00    +0.000 C 
ATOM      6  O   UNL     1      -5.922  13.888  22.081  0.00  0.00    +0.000 OA
ATOM      7  C   UNL     1      -3.262  13.555  22.948  0.00  0.00    +0.000 C 
ATOM      8  C   UNL     1      -3.967  13.141  24.292  0.00  0.00    +0.000 C 
ATOM      9  O   UNL     1      -4.223  12.010  24.680  0.00  0.00    +0.000 OA
ATOM     10  N   UNL     1      -4.182  14.304  25.020  0.00  0.00    +0.000 N 
ATOM     11  C   UNL     1      -3.864  15.431  24.276  0.00  0.00    +0.000 A 
ATOM     12  C   UNL     1      -4.011  16.748  24.668  0.00  0.00    +0.000 A 
ATOM     13  C   UNL     1      -3.661  17.733  23.742  0.00  0.00    +0.000 A 
ATOM     14  C   UNL     1      -3.205  17.378  22.460  0.00  0.00    +0.000 A 
ATOM     15 CL   UNL     1      -2.798  18.620  21.339  0.00  0.00    +0.000 Cl
ATOM     16  C   UNL     1      -3.063  16.037  22.083  0.00  0.00    +0.000 A 
ATOM     17  C   UNL     1      -3.376  15.062  23.018  0.00  0.00    +0.000 A 
ATOM     18  H   UNL     1      -4.632  14.307  25.924  0.00  0.00    +0.000 HD
ENDROOT
BRANCH   5  19
ATOM     19  C   UNL     1      -5.891  12.247  20.407  0.00  0.00    +0.000 A 
ATOM     20  C   UNL     1      -5.960  12.755  19.112  0.00  0.00    +0.000 A 
ATOM     21  C   UNL     1      -6.563  11.981  18.122  0.00  0.00    +0.000 A 
ATOM     22  C   UNL     1      -7.086  10.735  18.450  0.00  0.00    +0.000 A 
ATOM     23  C   UNL     1      -6.996  10.318  19.764  0.00  0.00    +0.000 A 
ATOM     24  N   UNL     1      -6.416  11.042  20.745  0.00  0.00    +0.000 NA
ENDBRANCH   5  19
BRANCH   1  25
ATOM     25  C   UNL     1      -0.727  14.030  22.992  0.00  0.00    +0.000 C 
ATOM     26  O   UNL     1      -0.437  14.809  23.889  0.00  0.00    +0.000 OA
BRANCH  25  28
ATOM     27  C   UNL     1       0.336  15.268  21.307  0.00  0.00    +0.000 C 
ATOM     28  O   UNL     1      -0.138  14.000  21.762  0.00  0.00    +0.000 OA
ENDBRANCH  25  28
ENDBRANCH   1  25
BRANCH   3  29
ATOM     29  C   UNL     1      -2.629  12.455  19.637  0.00  0.00    +0.000 C 
BRANCH  29  30
ATOM     30  C   UNL     1      -2.034  11.360  18.720  0.00  0.00    +0.000 C 
ATOM     31  C   UNL     1      -3.075  10.690  17.822  0.00  0.00    +0.000 C 
ATOM     32  C   UNL     1      -0.928  11.951  17.841  0.00  0.00    +0.000 C 
ENDBRANCH  29  30
ENDBRANCH   3  29
TORSDOF 5
ENDMDL
