MODEL 1
REMARK VINA RESULT:      -6.3      0.000      0.000
REMARK  Name = 
REMARK  9 active torsions:
REMARK  status: ('A' for Active; 'I' for Inactive)
REMARK    1  A    between atoms: C_1  and  O_2
REMARK    2  A    between atoms: O_2  and  C_3
REMARK    3  A    between atoms: C_3  and  C_5
REMARK    4  A    between atoms: N_11  and  C_12
REMARK    5  A    between atoms: C_20  and  N_21
REMARK    6  A    between atoms: N_21  and  C_22
REMARK    7  A    between atoms: C_22  and  C_23
REMARK    8  A    between atoms: C_23  and  C_24
REMARK    9  A    between atoms: C_24  and  N_25
REMARK                            x       y       z     vdW  Elec       q    Type
REMARK                         _______ _______ _______ _____ _____    ______ ____
ROOT
ATOM      1  C   UNL     1      -0.567  10.182  18.434  0.00  0.00    +0.000 A 
ATOM      2  C   UNL     1      -1.080   9.729  17.205  0.00  0.00    +0.000 A 
ATOM      3  C   UNL     1      -2.375  10.085  16.810  0.00  0.00    +0.000 A 
ATOM      4  C   UNL     1      -3.126  10.906  17.639  0.00  0.00    +0.000 A 
ATOM      5  N   UNL     1      -4.440  11.328  17.378  0.00  0.00    +0.000 NA
ATOM      6  C   UNL     1      -4.801  12.075  18.403  0.00  0.00    +0.000 A 
ATOM      7  N   UNL     1      -6.020  12.687  18.564  0.00  0.00    +0.000 N 
ATOM      8  C   UNL     1      -7.066  12.549  17.561  0.00  0.00    +0.000 C 
ATOM      9  C   UNL     1      -6.249  13.470  19.717  0.00  0.00    +0.000 A 
ATOM     10  C   UNL     1      -7.478  14.135  19.919  0.00  0.00    +0.000 A 
ATOM     11  C   UNL     1      -7.710  14.921  21.049  0.00  0.00    +0.000 A 
ATOM     12  C   UNL     1      -6.713  15.048  22.002  0.00  0.00    +0.000 A 
ATOM     13 BR   UNL     1      -7.021  16.121  23.528  0.00  0.00    +0.000 Br
ATOM     14  C   UNL     1      -5.485  14.404  21.834  0.00  0.00    +0.000 A 
ATOM     15  C   UNL     1      -5.228  13.601  20.700  0.00  0.00    +0.000 A 
ATOM     16  C   UNL     1      -3.875  12.941  20.519  0.00  0.00    +0.000 A 
ATOM     17  C   UNL     1      -3.689  12.192  19.415  0.00  0.00    +0.000 A 
ATOM     18  C   UNL     1      -2.615  11.374  18.856  0.00  0.00    +0.000 A 
ATOM     19  C   UNL     1      -1.353  10.991  19.271  0.00  0.00    +0.000 A 
ENDROOT
BRANCH   1  20
ATOM     20  C   UNL     1       0.805   9.849  18.910  0.00  0.00    +0.000 C 
ATOM     21  O   UNL     1       1.092   9.744  20.093  0.00  0.00    +0.000 OA
BRANCH  20  23
ATOM     22  C   UNL     1       2.380   8.470  17.889  0.00  0.00    +0.000 C 
ATOM     23  O   UNL     1       1.663   9.706  17.870  0.00  0.00    +0.000 OA
ENDBRANCH  20  23
ENDBRANCH   1  20
BRANCH  16  24
ATOM     24  N   UNL     1      -2.947  13.216  21.518  0.00  0.00    +0.000 N 
ATOM     25  H   UNL     1      -2.734  14.208  21.613  0.00  0.00    +0.000 HD
BRANCH  24  26
ATOM     26  C   UNL     1      -2.645  12.399  22.676  0.00  0.00    +0.000 C 
BRANCH  26  27
ATOM     27  C   UNL     1      -1.170  12.008  22.698  0.00  0.00    +0.000 C 
BRANCH  27  28
ATOM     28  C   UNL     1      -1.053  10.536  23.096  0.00  0.00    +0.000 C 
BRANCH  28  29
ATOM     29  N   UNL     1       0.335  10.092  23.092  0.00  0.00    +0.000 NA
ATOM     30  H   UNL     1       0.674  10.021  24.051  0.00  0.00    +0.000 HD
ATOM     31  H   UNL     1       0.910  10.804  22.642  0.00  0.00    +0.000 HD
ENDBRANCH  28  29
ENDBRANCH  27  28
ENDBRANCH  26  27
ENDBRANCH  24  26
ENDBRANCH  16  24
TORSDOF 7
ENDMDL
MODEL 2
REMARK VINA RESULT:      -5.9      1.158      1.441
REMARK  Name = 
REMARK  9 active torsions:
REMARK  status: ('A' for Active; 'I' for Inactive)
REMARK    1  A    between atoms: C_1  and  O_2
REMARK    2  A    between atoms: O_2  and  C_3
REMARK    3  A    between atoms: C_3  and  C_5
REMARK    4  A    between atoms: N_11  and  C_12
REMARK    5  A    between atoms: C_20  and  N_21
REMARK    6  A    between atoms: N_21  and  C_22
REMARK    7  A    between atoms: C_22  and  C_23
REMARK    8  A    between atoms: C_23  and  C_24
REMARK    9  A    between atoms: C_24  and  N_25
REMARK                            x       y       z     vdW  Elec       q    Type
REMARK                         _______ _______ _______ _____ _____    ______ ____
ROOT
ATOM      1  C   UNL     1      -0.581  10.471  18.223  0.00  0.00    +0.000 A 
ATOM      2  C   UNL     1      -1.496   9.930  17.302  0.00  0.00    +0.000 A 
ATOM      3  C   UNL     1      -2.851  10.278  17.370  0.00  0.00    +0.000 A 
ATOM      4  C   UNL     1      -3.262  11.179  18.342  0.00  0.00    +0.000 A 
ATOM      5  N   UNL     1      -4.587  11.603  18.536  0.00  0.00    +0.000 NA
ATOM      6  C   UNL     1      -4.564  12.439  19.557  0.00  0.00    +0.000 A 
ATOM      7  N   UNL     1      -5.650  13.085  20.094  0.00  0.00    +0.000 N 
ATOM      8  C   UNL     1      -6.985  12.886  19.547  0.00  0.00    +0.000 C 
ATOM      9  C   UNL     1      -5.459  13.963  21.183  0.00  0.00    +0.000 A 
ATOM     10  C   UNL     1      -6.540  14.666  21.757  0.00  0.00    +0.000 A 
ATOM     11  C   UNL     1      -6.360  15.545  22.825  0.00  0.00    +0.000 A 
ATOM     12  C   UNL     1      -5.089  15.730  23.343  0.00  0.00    +0.000 A 
ATOM     13 BR   UNL     1      -4.840  16.928  24.784  0.00  0.00    +0.000 Br
ATOM     14  C   UNL     1      -3.996  15.050  22.800  0.00  0.00    +0.000 A 
ATOM     15  C   UNL     1      -4.155  14.153  21.720  0.00  0.00    +0.000 A 
ATOM     16  C   UNL     1      -2.950  13.455  21.121  0.00  0.00    +0.000 A 
ATOM     17  C   UNL     1      -3.164  12.615  20.089  0.00  0.00    +0.000 A 
ATOM     18  C   UNL     1      -2.353  11.733  19.252  0.00  0.00    +0.000 A 
ATOM     19  C   UNL     1      -1.023  11.361  19.216  0.00  0.00    +0.000 A 
ENDROOT
BRANCH   1  20
ATOM     20  C   UNL     1       0.874  10.152  18.202  0.00  0.00    +0.000 C 
ATOM     21  O   UNL     1       1.742  10.978  18.441  0.00  0.00    +0.000 OA
BRANCH  20  23
ATOM     22  C   UNL     1       2.462   8.476  17.891  0.00  0.00    +0.000 C 
ATOM     23  O   UNL     1       1.085   8.854  17.868  0.00  0.00    +0.000 OA
ENDBRANCH  20  23
ENDBRANCH   1  20
BRANCH  16  24
ATOM     24  N   UNL     1      -1.728  13.791  21.694  0.00  0.00    +0.000 N 
ATOM     25  H   UNL     1      -1.631  14.787  21.890  0.00  0.00    +0.000 HD
BRANCH  24  26
ATOM     26  C   UNL     1      -0.847  12.919  22.445  0.00  0.00    +0.000 C 
BRANCH  26  27
ATOM     27  C   UNL     1      -1.641  11.842  23.178  0.00  0.00    +0.000 C 
BRANCH  27  28
ATOM     28  C   UNL     1      -0.936  10.497  23.000  0.00  0.00    +0.000 C 
BRANCH  28  29
ATOM     29  N   UNL     1       0.358  10.656  22.350  0.00  0.00    +0.000 NA
ATOM     30  H   UNL     1       0.941   9.841  22.544  0.00  0.00    +0.000 HD
ATOM     31  H   UNL     1       0.842  11.452  22.764  0.00  0.00    +0.000 HD
ENDBRANCH  28  29
ENDBRANCH  27  28
ENDBRANCH  26  27
ENDBRANCH  24  26
ENDBRANCH  16  24
TORSDOF 7
ENDMDL
MODEL 3
REMARK VINA RESULT:      -5.9      1.696      4.238
REMARK  Name = 
REMARK  9 active torsions:
REMARK  status: ('A' for Active; 'I' for Inactive)
REMARK    1  A    between atoms: C_1  and  O_2
REMARK    2  A    between atoms: O_2  and  C_3
REMARK    3  A    between atoms: C_3  and  C_5
REMARK    4  A    between atoms: N_11  and  C_12
REMARK    5  A    between atoms: C_20  and  N_21
REMARK    6  A    between atoms: N_21  and  C_22
REMARK    7  A    between atoms: C_22  and  C_23
REMARK    8  A    between atoms: C_23  and  C_24
REMARK    9  A    between atoms: C_24  and  N_25
REMARK                            x       y       z     vdW  Elec       q    Type
REMARK                         _______ _______ _______ _____ _____    ______ ____
ROOT
ATOM      1  C   UNL     1       0.654   9.762  20.167  0.00  0.00    +0.000 A 
ATOM      2  C   UNL     1       1.012   9.541  21.510  0.00  0.00    +0.000 A 
ATOM      3  C   UNL     1       0.266  10.123  22.542  0.00  0.00    +0.000 A 
ATOM      4  C   UNL     1      -0.839  10.898  22.214  0.00  0.00    +0.000 A 
ATOM      5  N   UNL     1      -1.665  11.553  23.142  0.00  0.00    +0.000 NA
ATOM      6  C   UNL     1      -2.583  12.188  22.439  0.00  0.00    +0.000 A 
ATOM      7  N   UNL     1      -3.592  12.967  22.949  0.00  0.00    +0.000 N 
ATOM      8  C   UNL     1      -3.734  13.164  24.384  0.00  0.00    +0.000 C 
ATOM      9  C   UNL     1      -4.509  13.571  22.061  0.00  0.00    +0.000 A 
ATOM     10  C   UNL     1      -5.576  14.364  22.536  0.00  0.00    +0.000 A 
ATOM     11  C   UNL     1      -6.494  14.956  21.668  0.00  0.00    +0.000 A 
ATOM     12  C   UNL     1      -6.355  14.767  20.303  0.00  0.00    +0.000 A 
ATOM     13 BR   UNL     1      -7.604  15.559  19.125  0.00  0.00    +0.000 Br
ATOM     14  C   UNL     1      -5.311  13.989  19.798  0.00  0.00    +0.000 A 
ATOM     15  C   UNL     1      -4.367  13.382  20.657  0.00  0.00    +0.000 A 
ATOM     16  C   UNL     1      -3.264  12.510  20.091  0.00  0.00    +0.000 A 
ATOM     17  C   UNL     1      -2.399  11.954  20.960  0.00  0.00    +0.000 A 
ATOM     18  C   UNL     1      -1.209  11.109  20.880  0.00  0.00    +0.000 A 
ATOM     19  C   UNL     1      -0.452  10.571  19.857  0.00  0.00    +0.000 A 
ENDROOT
BRANCH   1  20
ATOM     20  C   UNL     1       1.397   9.166  19.023  0.00  0.00    +0.000 C 
ATOM     21  O   UNL     1       1.275   9.558  17.872  0.00  0.00    +0.000 OA
BRANCH  20  23
ATOM     22  C   UNL     1       2.472   7.195  18.402  0.00  0.00    +0.000 C 
ATOM     23  O   UNL     1       2.189   8.144  19.432  0.00  0.00    +0.000 OA
ENDBRANCH  20  23
ENDBRANCH   1  20
BRANCH  16  24
ATOM     24  N   UNL     1      -3.290  12.350  18.709  0.00  0.00    +0.000 N 
ATOM     25  H   UNL     1      -2.484  12.756  18.237  0.00  0.00    +0.000 HD
BRANCH  24  26
ATOM     26  C   UNL     1      -4.002  11.332  17.962  0.00  0.00    +0.000 C 
BRANCH  26  27
ATOM     27  C   UNL     1      -3.074  10.181  17.586  0.00  0.00    +0.000 C 
BRANCH  27  28
ATOM     28  C   UNL     1      -2.638  10.351  16.129  0.00  0.00    +0.000 C 
BRANCH  28  29
ATOM     29  N   UNL     1      -3.161  11.583  15.557  0.00  0.00    +0.000 NA
ATOM     30  H   UNL     1      -4.174  11.614  15.677  0.00  0.00    +0.000 HD
ATOM     31  H   UNL     1      -2.997  11.579  14.550  0.00  0.00    +0.000 HD
ENDBRANCH  28  29
ENDBRANCH  27  28
ENDBRANCH  26  27
ENDBRANCH  24  26
ENDBRANCH  16  24
TORSDOF 7
ENDMDL
MODEL 4
REMARK VINA RESULT:      -5.8      3.941      7.746
REMARK  Name = 
REMARK  9 active torsions:
REMARK  status: ('A' for Active; 'I' for Inactive)
REMARK    1  A    between atoms: C_1  and  O_2
REMARK    2  A    between atoms: O_2  and  C_3
REMARK    3  A    between atoms: C_3  and  C_5
REMARK    4  A    between atoms: N_11  and  C_12
REMARK    5  A    between atoms: C_20  and  N_21
REMARK    6  A    between atoms: N_21  and  C_22
REMARK    7  A    between atoms: C_22  and  C_23
REMARK    8  A    between atoms: C_23  and  C_24
REMARK    9  A    between atoms: C_24  and  N_25
REMARK                            x       y       z     vdW  Elec       q    Type
REMARK                         _______ _______ _______ _____ _____    ______ ____
ROOT
ATOM      1  C   UNL     1      -3.898  15.441  24.058  0.00  0.00    +0.000 A 
ATOM      2  C   UNL     1      -2.744  15.345  24.857  0.00  0.00    +0.000 A 
ATOM      3  C   UNL     1      -1.673  14.540  24.453  0.00  0.00    +0.000 A 
ATOM      4  C   UNL     1      -1.765  13.862  23.245  0.00  0.00    +0.000 A 
ATOM      5  N   UNL     1      -0.778  13.009  22.724  0.00  0.00    +0.000 NA
ATOM      6  C   UNL     1      -1.247  12.554  21.578  0.00  0.00    +0.000 A 
ATOM      7  N   UNL     1      -0.606  11.678  20.737  0.00  0.00    +0.000 N 
ATOM      8  C   UNL     1       0.712  11.154  21.064  0.00  0.00    +0.000 C 
ATOM      9  C   UNL     1      -1.238  11.295  19.533  0.00  0.00    +0.000 A 
ATOM     10  C   UNL     1      -0.612  10.413  18.625  0.00  0.00    +0.000 A 
ATOM     11  C   UNL     1      -1.222  10.038  17.427  0.00  0.00    +0.000 A 
ATOM     12  C   UNL     1      -2.477  10.538  17.121  0.00  0.00    +0.000 A 
ATOM     13 BR   UNL     1      -3.301  10.040  15.493  0.00  0.00    +0.000 Br
ATOM     14  C   UNL     1      -3.125  11.413  17.996  0.00  0.00    +0.000 A 
ATOM     15  C   UNL     1      -2.528  11.805  19.215  0.00  0.00    +0.000 A 
ATOM     16  C   UNL     1      -3.232  12.785  20.133  0.00  0.00    +0.000 A 
ATOM     17  C   UNL     1      -2.611  13.124  21.279  0.00  0.00    +0.000 A 
ATOM     18  C   UNL     1      -2.904  13.966  22.437  0.00  0.00    +0.000 A 
ATOM     19  C   UNL     1      -3.981  14.726  22.852  0.00  0.00    +0.000 A 
ENDROOT
BRANCH   1  20
ATOM     20  C   UNL     1      -5.068  16.287  24.425  0.00  0.00    +0.000 C 
ATOM     21  O   UNL     1      -4.987  17.249  25.172  0.00  0.00    +0.000 OA
BRANCH  20  23
ATOM     22  C   UNL     1      -7.017  16.867  23.288  0.00  0.00    +0.000 C 
ATOM     23  O   UNL     1      -6.204  15.831  23.840  0.00  0.00    +0.000 OA
ENDBRANCH  20  23
ENDBRANCH   1  20
BRANCH  16  24
ATOM     24  N   UNL     1      -4.452  13.261  19.663  0.00  0.00    +0.000 N 
ATOM     25  H   UNL     1      -4.424  13.559  18.689  0.00  0.00    +0.000 HD
BRANCH  24  26
ATOM     26  C   UNL     1      -5.768  12.948  20.182  0.00  0.00    +0.000 C 
BRANCH  26  27
ATOM     27  C   UNL     1      -6.561  12.105  19.188  0.00  0.00    +0.000 C 
BRANCH  27  28
ATOM     28  C   UNL     1      -7.113  13.017  18.092  0.00  0.00    +0.000 C 
BRANCH  28  29
ATOM     29  N   UNL     1      -6.131  13.240  17.040  0.00  0.00    +0.000 NA
ATOM     30  H   UNL     1      -5.634  12.371  16.845  0.00  0.00    +0.000 HD
ATOM     31  H   UNL     1      -5.426  13.896  17.377  0.00  0.00    +0.000 HD
ENDBRANCH  28  29
ENDBRANCH  27  28
ENDBRANCH  26  27
ENDBRANCH  24  26
ENDBRANCH  16  24
TORSDOF 7
ENDMDL
MODEL 5
REMARK VINA RESULT:      -5.8      2.459      3.805
REMARK  Name = 
REMARK  9 active torsions:
REMARK  status: ('A' for Active; 'I' for Inactive)
REMARK    1  A    between atoms: C_1  and  O_2
REMARK    2  A    between atoms: O_2  and  C_3
REMARK    3  A    between atoms: C_3  and  C_5
REMARK    4  A    between atoms: N_11  and  C_12
REMARK    5  A    between atoms: C_20  and  N_21
REMARK    6  A    between atoms: N_21  and  C_22
REMARK    7  A    between atoms: C_22  and  C_23
REMARK    8  A    between atoms: C_23  and  C_24
REMARK    9  A    between atoms: C_24  and  N_25
REMARK                            x       y       z     vdW  Elec       q    Type
REMARK                         _______ _______ _______ _____ _____    ______ ____
ROOT
ATOM      1  C   UNL     1      -3.563  11.093  17.702  0.00  0.00    +0.000 A 
ATOM      2  C   UNL     1      -4.944  10.887  17.524  0.00  0.00    +0.000 A 
ATOM      3  C   UNL     1      -5.861  11.464  18.410  0.00  0.00    +0.000 A 
ATOM      4  C   UNL     1      -5.384  12.256  19.446  0.00  0.00    +0.000 A 
ATOM      5  N   UNL     1      -6.185  12.882  20.415  0.00  0.00    +0.000 NA
ATOM      6  C   UNL     1      -5.361  13.522  21.222  0.00  0.00    +0.000 A 
ATOM      7  N   UNL     1      -5.723  14.262  22.320  0.00  0.00    +0.000 N 
ATOM      8  C   UNL     1      -7.121  14.406  22.700  0.00  0.00    +0.000 C 
ATOM      9  C   UNL     1      -4.718  14.901  23.079  0.00  0.00    +0.000 A 
ATOM     10  C   UNL     1      -5.039  15.691  24.204  0.00  0.00    +0.000 A 
ATOM     11  C   UNL     1      -4.055  16.337  24.954  0.00  0.00    +0.000 A 
ATOM     12  C   UNL     1      -2.726  16.196  24.590  0.00  0.00    +0.000 A 
ATOM     13 BR   UNL     1      -1.391  17.079  25.597  0.00  0.00    +0.000 Br
ATOM     14  C   UNL     1      -2.372  15.423  23.482  0.00  0.00    +0.000 A 
ATOM     15  C   UNL     1      -3.351  14.758  22.710  0.00  0.00    +0.000 A 
ATOM     16  C   UNL     1      -2.948  13.954  21.489  0.00  0.00    +0.000 A 
ATOM     17  C   UNL     1      -3.927  13.348  20.790  0.00  0.00    +0.000 A 
ATOM     18  C   UNL     1      -4.012  12.478  19.619  0.00  0.00    +0.000 A 
ATOM     19  C   UNL     1      -3.100  11.876  18.772  0.00  0.00    +0.000 A 
ENDROOT
BRANCH   1  20
ATOM     20  C   UNL     1      -2.535  10.517  16.792  0.00  0.00    +0.000 C 
ATOM     21  O   UNL     1      -1.699   9.705  17.159  0.00  0.00    +0.000 OA
BRANCH  20  23
ATOM     22  C   UNL     1      -3.018  10.056  14.560  0.00  0.00    +0.000 C 
ATOM     23  O   UNL     1      -2.648  11.027  15.540  0.00  0.00    +0.000 OA
ENDBRANCH  20  23
ENDBRANCH   1  20
BRANCH  16  24
ATOM     24  N   UNL     1      -1.587  13.962  21.201  0.00  0.00    +0.000 N 
ATOM     25  H   UNL     1      -1.175  14.894  21.208  0.00  0.00    +0.000 HD
BRANCH  24  26
ATOM     26  C   UNL     1      -0.654  12.866  21.372  0.00  0.00    +0.000 C 
BRANCH  26  27
ATOM     27  C   UNL     1      -0.921  12.120  22.676  0.00  0.00    +0.000 C 
BRANCH  27  28
ATOM     28  C   UNL     1      -0.771  10.618  22.429  0.00  0.00    +0.000 C 
BRANCH  28  29
ATOM     29  N   UNL     1       0.005   9.980  23.484  0.00  0.00    +0.000 NA
ATOM     30  H   UNL     1       0.668   9.323  23.072  0.00  0.00    +0.000 HD
ATOM     31  H   UNL     1      -0.620   9.421  24.065  0.00  0.00    +0.000 HD
ENDBRANCH  28  29
ENDBRANCH  27  28
ENDBRANCH  26  27
ENDBRANCH  24  26
ENDBRANCH  16  24
TORSDOF 7
ENDMDL
MODEL 6
REMARK VINA RESULT:      -5.7      1.032      1.328
REMARK  Name = 
REMARK  9 active torsions:
REMARK  status: ('A' for Active; 'I' for Inactive)
REMARK    1  A    between atoms: C_1  and  O_2
REMARK    2  A    between atoms: O_2  and  C_3
REMARK    3  A    between atoms: C_3  and  C_5
REMARK    4  A    between atoms: N_11  and  C_12
REMARK    5  A    between atoms: C_20  and  N_21
REMARK    6  A    between atoms: N_21  and  C_22
REMARK    7  A    between atoms: C_22  and  C_23
REMARK    8  A    between atoms: C_23  and  C_24
REMARK    9  A    between atoms: C_24  and  N_25
REMARK                            x       y       z     vdW  Elec       q    Type
REMARK                         _______ _______ _______ _____ _____    ______ ____
ROOT
ATOM      1  C   UNL     1      -0.745  10.216  18.347  0.00  0.00    +0.000 A 
ATOM      2  C   UNL     1      -1.283   9.773  17.124  0.00  0.00    +0.000 A 
ATOM      3  C   UNL     1      -2.578  10.148  16.748  0.00  0.00    +0.000 A 
ATOM      4  C   UNL     1      -3.305  10.979  17.589  0.00  0.00    +0.000 A 
ATOM      5  N   UNL     1      -4.616  11.420  17.348  0.00  0.00    +0.000 NA
ATOM      6  C   UNL     1      -4.952  12.170  18.380  0.00  0.00    +0.000 A 
ATOM      7  N   UNL     1      -6.159  12.799  18.559  0.00  0.00    +0.000 N 
ATOM      8  C   UNL     1      -7.221  12.679  17.570  0.00  0.00    +0.000 C 
ATOM      9  C   UNL     1      -6.361  13.583  19.717  0.00  0.00    +0.000 A 
ATOM     10  C   UNL     1      -7.576  14.266  19.937  0.00  0.00    +0.000 A 
ATOM     11  C   UNL     1      -7.782  15.052  21.072  0.00  0.00    +0.000 A 
ATOM     12  C   UNL     1      -6.769  15.163  22.011  0.00  0.00    +0.000 A 
ATOM     13 BR   UNL     1      -7.040  16.236  23.544  0.00  0.00    +0.000 Br
ATOM     14  C   UNL     1      -5.553  14.501  21.825  0.00  0.00    +0.000 A 
ATOM     15  C   UNL     1      -5.324  13.697  20.685  0.00  0.00    +0.000 A 
ATOM     16  C   UNL     1      -3.984  13.018  20.483  0.00  0.00    +0.000 A 
ATOM     17  C   UNL     1      -3.823  12.269  19.375  0.00  0.00    +0.000 A 
ATOM     18  C   UNL     1      -2.769  11.436  18.800  0.00  0.00    +0.000 A 
ATOM     19  C   UNL     1      -1.508  11.034  19.196  0.00  0.00    +0.000 A 
ENDROOT
BRANCH   1  20
ATOM     20  C   UNL     1       0.628   9.862  18.803  0.00  0.00    +0.000 C 
ATOM     21  O   UNL     1       1.569   9.721  18.037  0.00  0.00    +0.000 OA
BRANCH  20  23
ATOM     22  C   UNL     1       1.319   8.500  20.562  0.00  0.00    +0.000 C 
ATOM     23  O   UNL     1       0.671   9.704  20.149  0.00  0.00    +0.000 OA
ENDBRANCH  20  23
ENDBRANCH   1  20
BRANCH  16  24
ATOM     24  N   UNL     1      -3.037  13.277  21.470  0.00  0.00    +0.000 N 
ATOM     25  H   UNL     1      -2.839  14.269  21.593  0.00  0.00    +0.000 HD
BRANCH  24  26
ATOM     26  C   UNL     1      -2.695  12.428  22.593  0.00  0.00    +0.000 C 
BRANCH  26  27
ATOM     27  C   UNL     1      -1.191  12.174  22.646  0.00  0.00    +0.000 C 
BRANCH  27  28
ATOM     28  C   UNL     1      -0.455  13.474  22.322  0.00  0.00    +0.000 C 
BRANCH  28  29
ATOM     29  N   UNL     1      -0.648  14.470  23.367  0.00  0.00    +0.000 NA
ATOM     30  H   UNL     1       0.020  14.309  24.121  0.00  0.00    +0.000 HD
ATOM     31  H   UNL     1      -1.573  14.346  23.778  0.00  0.00    +0.000 HD
ENDBRANCH  28  29
ENDBRANCH  27  28
ENDBRANCH  26  27
ENDBRANCH  24  26
ENDBRANCH  16  24
TORSDOF 7
ENDMDL
MODEL 7
REMARK VINA RESULT:      -5.7      4.134      5.553
REMARK  Name = 
REMARK  9 active torsions:
REMARK  status: ('A' for Active; 'I' for Inactive)
REMARK    1  A    between atoms: C_1  and  O_2
REMARK    2  A    between atoms: O_2  and  C_3
REMARK    3  A    between atoms: C_3  and  C_5
REMARK    4  A    between atoms: N_11  and  C_12
REMARK    5  A    between atoms: C_20  and  N_21
REMARK    6  A    between atoms: N_21  and  C_22
REMARK    7  A    between atoms: C_22  and  C_23
REMARK    8  A    between atoms: C_23  and  C_24
REMARK    9  A    between atoms: C_24  and  N_25
REMARK                            x       y       z     vdW  Elec       q    Type
REMARK                         _______ _______ _______ _____ _____    ______ ____
ROOT
ATOM      1  C   UNL     1       1.150   8.634  20.453  0.00  0.00    +0.000 A 
ATOM      2  C   UNL     1       0.486   8.299  21.648  0.00  0.00    +0.000 A 
ATOM      3  C   UNL     1      -0.284   9.258  22.316  0.00  0.00    +0.000 A 
ATOM      4  C   UNL     1      -0.397  10.528  21.767  0.00  0.00    +0.000 A 
ATOM      5  N   UNL     1      -1.121  11.589  22.336  0.00  0.00    +0.000 NA
ATOM      6  C   UNL     1      -0.969  12.618  21.526  0.00  0.00    +0.000 A 
ATOM      7  N   UNL     1      -1.504  13.870  21.706  0.00  0.00    +0.000 N 
ATOM      8  C   UNL     1      -2.324  14.174  22.870  0.00  0.00    +0.000 C 
ATOM      9  C   UNL     1      -1.260  14.867  20.736  0.00  0.00    +0.000 A 
ATOM     10  C   UNL     1      -1.804  16.164  20.865  0.00  0.00    +0.000 A 
ATOM     11  C   UNL     1      -1.580  17.153  19.906  0.00  0.00    +0.000 A 
ATOM     12  C   UNL     1      -0.799  16.860  18.801  0.00  0.00    +0.000 A 
ATOM     13 BR   UNL     1      -0.502  18.195  17.495  0.00  0.00    +0.000 Br
ATOM     14  C   UNL     1      -0.245  15.588  18.641  0.00  0.00    +0.000 A 
ATOM     15  C   UNL     1      -0.456  14.571  19.600  0.00  0.00    +0.000 A 
ATOM     16  C   UNL     1       0.123  13.186  19.389  0.00  0.00    +0.000 A 
ATOM     17  C   UNL     1      -0.117  12.258  20.335  0.00  0.00    +0.000 A 
ATOM     18  C   UNL     1       0.248  10.862  20.570  0.00  0.00    +0.000 A 
ATOM     19  C   UNL     1       1.044   9.933  19.928  0.00  0.00    +0.000 A 
ENDROOT
BRANCH   1  20
ATOM     20  C   UNL     1       1.977   7.661  19.687  0.00  0.00    +0.000 C 
ATOM     21  O   UNL     1       2.232   6.537  20.093  0.00  0.00    +0.000 OA
BRANCH  20  23
ATOM     22  C   UNL     1       3.306   7.351  17.799  0.00  0.00    +0.000 C 
ATOM     23  O   UNL     1       2.410   8.199  18.519  0.00  0.00    +0.000 OA
ENDBRANCH  20  23
ENDBRANCH   1  20
BRANCH  16  24
ATOM     24  N   UNL     1       0.824  13.015  18.199  0.00  0.00    +0.000 N 
ATOM     25  H   UNL     1       0.334  13.378  17.383  0.00  0.00    +0.000 HD
BRANCH  24  26
ATOM     26  C   UNL     1       2.256  12.854  18.047  0.00  0.00    +0.000 C 
BRANCH  26  27
ATOM     27  C   UNL     1       3.013  13.886  18.877  0.00  0.00    +0.000 C 
BRANCH  27  28
ATOM     28  C   UNL     1       3.656  14.906  17.936  0.00  0.00    +0.000 C 
BRANCH  28  29
ATOM     29  N   UNL     1       5.057  14.594  17.689  0.00  0.00    +0.000 NA
ATOM     30  H   UNL     1       5.260  13.649  18.015  0.00  0.00    +0.000 HD
ATOM     31  H   UNL     1       5.640  15.216  18.249  0.00  0.00    +0.000 HD
ENDBRANCH  28  29
ENDBRANCH  27  28
ENDBRANCH  26  27
ENDBRANCH  24  26
ENDBRANCH  16  24
TORSDOF 7
ENDMDL
MODEL 8
REMARK VINA RESULT:      -5.7      2.696      4.184
REMARK  Name = 
REMARK  9 active torsions:
REMARK  status: ('A' for Active; 'I' for Inactive)
REMARK    1  A    between atoms: C_1  and  O_2
REMARK    2  A    between atoms: O_2  and  C_3
REMARK    3  A    between atoms: C_3  and  C_5
REMARK    4  A    between atoms: N_11  and  C_12
REMARK    5  A    between atoms: C_20  and  N_21
REMARK    6  A    between atoms: N_21  and  C_22
REMARK    7  A    between atoms: C_22  and  C_23
REMARK    8  A    between atoms: C_23  and  C_24
REMARK    9  A    between atoms: C_24  and  N_25
REMARK                            x       y       z     vdW  Elec       q    Type
REMARK                         _______ _______ _______ _____ _____    ______ ____
ROOT
ATOM      1  C   UNL     1      -3.543  11.157  17.569  0.00  0.00    +0.000 A 
ATOM      2  C   UNL     1      -4.934  11.182  17.355  0.00  0.00    +0.000 A 
ATOM      3  C   UNL     1      -5.775  11.830  18.267  0.00  0.00    +0.000 A 
ATOM      4  C   UNL     1      -5.209  12.462  19.366  0.00  0.00    +0.000 A 
ATOM      5  N   UNL     1      -5.931  13.134  20.367  0.00  0.00    +0.000 NA
ATOM      6  C   UNL     1      -5.040  13.578  21.232  0.00  0.00    +0.000 A 
ATOM      7  N   UNL     1      -5.312  14.286  22.377  0.00  0.00    +0.000 N 
ATOM      8  C   UNL     1      -6.682  14.617  22.744  0.00  0.00    +0.000 C 
ATOM      9  C   UNL     1      -4.242  14.704  23.197  0.00  0.00    +0.000 A 
ATOM     10  C   UNL     1      -4.468  15.452  24.374  0.00  0.00    +0.000 A 
ATOM     11  C   UNL     1      -3.417  15.881  25.185  0.00  0.00    +0.000 A 
ATOM     12  C   UNL     1      -2.116  15.562  24.832  0.00  0.00    +0.000 A 
ATOM     13 BR   UNL     1      -0.689  16.151  25.923  0.00  0.00    +0.000 Br
ATOM     14  C   UNL     1      -1.855  14.824  23.675  0.00  0.00    +0.000 A 
ATOM     15  C   UNL     1      -2.904  14.377  22.840  0.00  0.00    +0.000 A 
ATOM     16  C   UNL     1      -2.597  13.610  21.569  0.00  0.00    +0.000 A 
ATOM     17  C   UNL     1      -3.638  13.214  20.811  0.00  0.00    +0.000 A 
ATOM     18  C   UNL     1      -3.825  12.454  19.577  0.00  0.00    +0.000 A 
ATOM     19  C   UNL     1      -2.994  11.780  18.702  0.00  0.00    +0.000 A 
ENDROOT
BRANCH   1  20
ATOM     20  C   UNL     1      -2.592  10.495  16.635  0.00  0.00    +0.000 C 
ATOM     21  O   UNL     1      -1.822   9.612  16.982  0.00  0.00    +0.000 OA
BRANCH  20  23
ATOM     22  C   UNL     1      -3.048  10.053  14.393  0.00  0.00    +0.000 C 
ATOM     23  O   UNL     1      -2.689  11.016  15.386  0.00  0.00    +0.000 OA
ENDBRANCH  20  23
ENDBRANCH   1  20
BRANCH  16  24
ATOM     24  N   UNL     1      -1.243  13.425  21.304  0.00  0.00    +0.000 N 
ATOM     25  H   UNL     1      -0.689  14.273  21.411  0.00  0.00    +0.000 HD
BRANCH  24  26
ATOM     26  C   UNL     1      -0.502  12.182  21.375  0.00  0.00    +0.000 C 
BRANCH  26  27
ATOM     27  C   UNL     1       0.436  12.036  20.181  0.00  0.00    +0.000 C 
BRANCH  27  28
ATOM     28  C   UNL     1       0.349  10.604  19.653  0.00  0.00    +0.000 C 
BRANCH  28  29
ATOM     29  N   UNL     1       0.751  10.526  18.255  0.00  0.00    +0.000 NA
ATOM     30  H   UNL     1       0.080   9.960  17.736  0.00  0.00    +0.000 HD
ATOM     31  H   UNL     1       1.642  10.035  18.192  0.00  0.00    +0.000 HD
ENDBRANCH  28  29
ENDBRANCH  27  28
ENDBRANCH  26  27
ENDBRANCH  24  26
ENDBRANCH  16  24
TORSDOF 7
ENDMDL
MODEL 9
REMARK VINA RESULT:      -5.6      1.668      4.356
REMARK  Name = 
REMARK  9 active torsions:
REMARK  status: ('A' for Active; 'I' for Inactive)
REMARK    1  A    between atoms: C_1  and  O_2
REMARK    2  A    between atoms: O_2  and  C_3
REMARK    3  A    between atoms: C_3  and  C_5
REMARK    4  A    between atoms: N_11  and  C_12
REMARK    5  A    between atoms: C_20  and  N_21
REMARK    6  A    between atoms: N_21  and  C_22
REMARK    7  A    between atoms: C_22  and  C_23
REMARK    8  A    between atoms: C_23  and  C_24
REMARK    9  A    between atoms: C_24  and  N_25
REMARK                            x       y       z     vdW  Elec       q    Type
REMARK                         _______ _______ _______ _____ _____    ______ ____
ROOT
ATOM      1  C   UNL     1       0.636   9.761  20.279  0.00  0.00    +0.000 A 
ATOM      2  C   UNL     1       0.950   9.431  21.610  0.00  0.00    +0.000 A 
ATOM      3  C   UNL     1       0.194   9.959  22.663  0.00  0.00    +0.000 A 
ATOM      4  C   UNL     1      -0.877  10.791  22.366  0.00  0.00    +0.000 A 
ATOM      5  N   UNL     1      -1.708  11.403  23.318  0.00  0.00    +0.000 NA
ATOM      6  C   UNL     1      -2.587  12.117  22.641  0.00  0.00    +0.000 A 
ATOM      7  N   UNL     1      -3.586  12.888  23.181  0.00  0.00    +0.000 N 
ATOM      8  C   UNL     1      -3.761  12.984  24.624  0.00  0.00    +0.000 C 
ATOM      9  C   UNL     1      -4.459  13.586  22.318  0.00  0.00    +0.000 A 
ATOM     10  C   UNL     1      -5.514  14.376  22.824  0.00  0.00    +0.000 A 
ATOM     11  C   UNL     1      -6.390  15.059  21.979  0.00  0.00    +0.000 A 
ATOM     12  C   UNL     1      -6.218  14.967  20.608  0.00  0.00    +0.000 A 
ATOM     13 BR   UNL     1      -7.409  15.883  19.460  0.00  0.00    +0.000 Br
ATOM     14  C   UNL     1      -5.185  14.194  20.072  0.00  0.00    +0.000 A 
ATOM     15  C   UNL     1      -4.284  13.496  20.908  0.00  0.00    +0.000 A 
ATOM     16  C   UNL     1      -3.193  12.632  20.307  0.00  0.00    +0.000 A 
ATOM     17  C   UNL     1      -2.369  11.986  21.154  0.00  0.00    +0.000 A 
ATOM     18  C   UNL     1      -1.204  11.111  21.042  0.00  0.00    +0.000 A 
ATOM     19  C   UNL     1      -0.435  10.626  20.001  0.00  0.00    +0.000 A 
ENDROOT
BRANCH   1  20
ATOM     20  C   UNL     1       1.393   9.227  19.112  0.00  0.00    +0.000 C 
ATOM     21  O   UNL     1       1.415   9.780  18.023  0.00  0.00    +0.000 OA
BRANCH  20  23
ATOM     22  C   UNL     1       2.528   7.368  18.285  0.00  0.00    +0.000 C 
ATOM     23  O   UNL     1       2.015   8.063  19.423  0.00  0.00    +0.000 OA
ENDBRANCH  20  23
ENDBRANCH   1  20
BRANCH  16  24
ATOM     24  N   UNL     1      -3.186  12.575  18.916  0.00  0.00    +0.000 N 
ATOM     25  H   UNL     1      -2.589  13.278  18.484  0.00  0.00    +0.000 HD
BRANCH  24  26
ATOM     26  C   UNL     1      -3.497  11.427  18.089  0.00  0.00    +0.000 C 
BRANCH  26  27
ATOM     27  C   UNL     1      -4.784  11.654  17.302  0.00  0.00    +0.000 C 
BRANCH  27  28
ATOM     28  C   UNL     1      -5.963  11.108  18.109  0.00  0.00    +0.000 C 
BRANCH  28  29
ATOM     29  N   UNL     1      -7.135  11.964  17.985  0.00  0.00    +0.000 NA
ATOM     30  H   UNL     1      -6.901  12.786  17.427  0.00  0.00    +0.000 HD
ATOM     31  H   UNL     1      -7.389  12.315  18.909  0.00  0.00    +0.000 HD
ENDBRANCH  28  29
ENDBRANCH  27  28
ENDBRANCH  26  27
ENDBRANCH  24  26
ENDBRANCH  16  24
TORSDOF 7
ENDMDL
