MODEL 1
REMARK VINA RESULT:      -9.7      0.000      0.000
REMARK  Name = 
REMARK  4 active torsions:
REMARK  status: ('A' for Active; 'I' for Inactive)
REMARK    1  A    between atoms: C_2  and  C_4
REMARK    2  A    between atoms: C_7  and  N_8
REMARK    3  A    between atoms: N_8  and  C_9
REMARK    4  A    between atoms: C_17  and  C_18
REMARK                            x       y       z     vdW  Elec       q    Type
REMARK                         _______ _______ _______ _____ _____    ______ ____
ROOT
ATOM      1  C   UNL     1       5.659   5.010  16.442  0.00  0.00    +0.000 A 
ATOM      2  C   UNL     1       5.549   3.649  16.238  0.00  0.00    +0.000 A 
ATOM      3  N   UNL     1       4.475   2.907  16.592  0.00  0.00    +0.000 NA
ATOM      4  C   UNL     1       3.418   3.473  17.226  0.00  0.00    +0.000 A 
ATOM      5  C   UNL     1       3.448   4.872  17.478  0.00  0.00    +0.000 A 
ATOM      6  C   UNL     1       2.490   5.720  18.145  0.00  0.00    +0.000 A 
ATOM      7  C   UNL     1       2.848   7.050  18.186  0.00  0.00    +0.000 A 
ATOM      8  S   UNL     1       4.370   7.277  17.478  0.00  0.00    +0.000 S 
ATOM      9  C   UNL     1       4.566   5.617  17.075  0.00  0.00    +0.000 A 
ENDROOT
BRANCH   7  10
ATOM     10  C   UNL     1       2.107   8.190  18.731  0.00  0.00    +0.000 A 
ATOM     11  C   UNL     1       1.825   9.299  17.929  0.00  0.00    +0.000 A 
ATOM     12  C   UNL     1       1.089  10.373  18.440  0.00  0.00    +0.000 A 
ATOM     13  C   UNL     1       0.624  10.379  19.744  0.00  0.00    +0.000 A 
ATOM     14  N   UNL     1      -0.089  11.428  20.188  0.00  0.00    +0.000 NA
ATOM     15  C   UNL     1      -0.530  11.400  21.465  0.00  0.00    +0.000 A 
ATOM     16  C   UNL     1      -0.293  10.357  22.341  0.00  0.00    +0.000 A 
ATOM     17  C   UNL     1       0.441   9.271  21.883  0.00  0.00    +0.000 A 
ATOM     18  C   UNL     1       0.910   9.268  20.563  0.00  0.00    +0.000 A 
ATOM     19  C   UNL     1       1.650   8.192  20.055  0.00  0.00    +0.000 A 
ENDBRANCH   7  10
BRANCH   1  21
ATOM     20  N   UNL     1       7.359   5.470  14.766  0.00  0.00    +0.000 N 
ATOM     21  C   UNL     1       6.876   5.726  16.016  0.00  0.00    +0.000 C 
ATOM     22  O   UNL     1       7.443   6.519  16.763  0.00  0.00    +0.000 OA
ATOM     23  H   UNL     1       8.138   6.040  14.439  0.00  0.00    +0.000 HD
ATOM     24  H   UNL     1       6.829   4.954  14.076  0.00  0.00    +0.000 HD
ENDBRANCH   1  21
BRANCH   4  25
ATOM     25  N   UNL     1       2.346   2.669  17.581  0.00  0.00    +0.000 N 
ATOM     26  H   UNL     1       1.585   2.547  16.931  0.00  0.00    +0.000 HD
BRANCH  25  27
ATOM     27  C   UNL     1       2.154   2.329  18.992  0.00  0.00    +0.000 C 
ATOM     28  C   UNL     1       3.426   2.645  19.807  0.00  0.00    +0.000 C 
ATOM     29  C   UNL     1       3.190   2.351  21.289  0.00  0.00    +0.000 C 
ATOM     30  C   UNL     1       1.973   3.107  21.819  0.00  0.00    +0.000 C 
ATOM     31  N   UNL     1       0.777   2.815  21.032  0.00  0.00    +0.000 NA
ATOM     32  C   UNL     1       0.975   3.117  19.605  0.00  0.00    +0.000 C 
ATOM     33  H   UNL     1      -0.010   3.359  21.384  0.00  0.00    +0.000 HD
ENDBRANCH  25  27
ENDBRANCH   4  25
TORSDOF 4
ENDMDL
MODEL 2
REMARK VINA RESULT:      -9.6      2.356      4.855
REMARK  Name = 
REMARK  4 active torsions:
REMARK  status: ('A' for Active; 'I' for Inactive)
REMARK    1  A    between atoms: C_2  and  C_4
REMARK    2  A    between atoms: C_7  and  N_8
REMARK    3  A    between atoms: N_8  and  C_9
REMARK    4  A    between atoms: C_17  and  C_18
REMARK                            x       y       z     vdW  Elec       q    Type
REMARK                         _______ _______ _______ _____ _____    ______ ____
ROOT
ATOM      1  C   UNL     1       2.782   3.232  20.409  0.00  0.00    +0.000 A 
ATOM      2  C   UNL     1       3.944   2.516  20.203  0.00  0.00    +0.000 A 
ATOM      3  N   UNL     1       5.078   3.033  19.679  0.00  0.00    +0.000 NA
ATOM      4  C   UNL     1       5.130   4.327  19.275  0.00  0.00    +0.000 A 
ATOM      5  C   UNL     1       3.975   5.138  19.447  0.00  0.00    +0.000 A 
ATOM      6  C   UNL     1       3.742   6.517  19.092  0.00  0.00    +0.000 A 
ATOM      7  C   UNL     1       2.491   6.984  19.435  0.00  0.00    +0.000 A 
ATOM      8  S   UNL     1       1.567   5.746  20.132  0.00  0.00    +0.000 S 
ATOM      9  C   UNL     1       2.823   4.578  20.018  0.00  0.00    +0.000 A 
ENDROOT
BRANCH   7  10
ATOM     10  C   UNL     1       1.930   8.327  19.276  0.00  0.00    +0.000 A 
ATOM     11  C   UNL     1       2.149   9.052  18.102  0.00  0.00    +0.000 A 
ATOM     12  C   UNL     1       1.586  10.321  17.938  0.00  0.00    +0.000 A 
ATOM     13  C   UNL     1       0.804  10.901  18.923  0.00  0.00    +0.000 A 
ATOM     14  N   UNL     1       0.274  12.118  18.716  0.00  0.00    +0.000 NA
ATOM     15  C   UNL     1      -0.486  12.653  19.697  0.00  0.00    +0.000 A 
ATOM     16  C   UNL     1      -0.753  12.024  20.898  0.00  0.00    +0.000 A 
ATOM     17  C   UNL     1      -0.207  10.765  21.112  0.00  0.00    +0.000 A 
ATOM     18  C   UNL     1       0.583  10.181  20.114  0.00  0.00    +0.000 A 
ATOM     19  C   UNL     1       1.149   8.910  20.283  0.00  0.00    +0.000 A 
ENDBRANCH   7  10
BRANCH   1  21
ATOM     20  N   UNL     1       0.523   2.363  20.178  0.00  0.00    +0.000 N 
ATOM     21  C   UNL     1       1.599   2.571  20.990  0.00  0.00    +0.000 C 
ATOM     22  O   UNL     1       1.576   2.226  22.170  0.00  0.00    +0.000 OA
ATOM     23  H   UNL     1      -0.251   1.817  20.555  0.00  0.00    +0.000 HD
ATOM     24  H   UNL     1       0.571   2.485  19.175  0.00  0.00    +0.000 HD
ENDBRANCH   1  21
BRANCH   4  25
ATOM     25  N   UNL     1       6.310   4.809  18.731  0.00  0.00    +0.000 N 
ATOM     26  H   UNL     1       6.791   5.567  19.190  0.00  0.00    +0.000 HD
BRANCH  25  27
ATOM     27  C   UNL     1       6.632   4.484  17.340  0.00  0.00    +0.000 C 
ATOM     28  C   UNL     1       5.368   4.032  16.579  0.00  0.00    +0.000 C 
ATOM     29  C   UNL     1       5.704   3.763  15.111  0.00  0.00    +0.000 C 
ATOM     30  C   UNL     1       6.356   4.980  14.458  0.00  0.00    +0.000 C 
ATOM     31  N   UNL     1       7.542   5.411  15.193  0.00  0.00    +0.000 NA
ATOM     32  C   UNL     1       7.234   5.701  16.603  0.00  0.00    +0.000 C 
ATOM     33  H   UNL     1       7.936   6.244  14.758  0.00  0.00    +0.000 HD
ENDBRANCH  25  27
ENDBRANCH   4  25
TORSDOF 4
ENDMDL
MODEL 3
REMARK VINA RESULT:      -9.3      2.159      4.956
REMARK  Name = 
REMARK  4 active torsions:
REMARK  status: ('A' for Active; 'I' for Inactive)
REMARK    1  A    between atoms: C_2  and  C_4
REMARK    2  A    between atoms: C_7  and  N_8
REMARK    3  A    between atoms: N_8  and  C_9
REMARK    4  A    between atoms: C_17  and  C_18
REMARK                            x       y       z     vdW  Elec       q    Type
REMARK                         _______ _______ _______ _____ _____    ______ ____
ROOT
ATOM      1  C   UNL     1       2.816   3.758  20.111  0.00  0.00    +0.000 A 
ATOM      2  C   UNL     1       3.685   3.187  19.203  0.00  0.00    +0.000 A 
ATOM      3  N   UNL     1       4.263   3.849  18.176  0.00  0.00    +0.000 NA
ATOM      4  C   UNL     1       3.983   5.157  17.948  0.00  0.00    +0.000 A 
ATOM      5  C   UNL     1       3.094   5.825  18.834  0.00  0.00    +0.000 A 
ATOM      6  C   UNL     1       2.607   7.183  18.818  0.00  0.00    +0.000 A 
ATOM      7  C   UNL     1       1.764   7.491  19.864  0.00  0.00    +0.000 A 
ATOM      8  S   UNL     1       1.504   6.130  20.838  0.00  0.00    +0.000 S 
ATOM      9  C   UNL     1       2.532   5.115  19.905  0.00  0.00    +0.000 A 
ENDROOT
BRANCH   7  10
ATOM     10  C   UNL     1       1.128   8.769  20.193  0.00  0.00    +0.000 A 
ATOM     11  C   UNL     1       1.134   9.821  19.273  0.00  0.00    +0.000 A 
ATOM     12  C   UNL     1       0.498  11.029  19.575  0.00  0.00    +0.000 A 
ATOM     13  C   UNL     1      -0.148  11.227  20.782  0.00  0.00    +0.000 A 
ATOM     14  N   UNL     1      -0.756  12.401  21.024  0.00  0.00    +0.000 NA
ATOM     15  C   UNL     1      -1.380  12.559  22.212  0.00  0.00    +0.000 A 
ATOM     16  C   UNL     1      -1.433  11.586  23.192  0.00  0.00    +0.000 A 
ATOM     17  C   UNL     1      -0.808  10.372  22.943  0.00  0.00    +0.000 A 
ATOM     18  C   UNL     1      -0.154  10.174  21.720  0.00  0.00    +0.000 A 
ATOM     19  C   UNL     1       0.485   8.964  21.423  0.00  0.00    +0.000 A 
ENDBRANCH   7  10
BRANCH   1  21
ATOM     20  N   UNL     1       0.886   2.784  21.224  0.00  0.00    +0.000 N 
ATOM     21  C   UNL     1       2.240   2.944  21.198  0.00  0.00    +0.000 C 
ATOM     22  O   UNL     1       2.954   2.434  22.058  0.00  0.00    +0.000 OA
ATOM     23  H   UNL     1       0.503   2.140  21.916  0.00  0.00    +0.000 HD
ATOM     24  H   UNL     1       0.295   3.051  20.449  0.00  0.00    +0.000 HD
ENDBRANCH   1  21
BRANCH   4  25
ATOM     25  N   UNL     1       4.590   5.790  16.875  0.00  0.00    +0.000 N 
ATOM     26  H   UNL     1       4.187   6.642  16.514  0.00  0.00    +0.000 HD
BRANCH  25  27
ATOM     27  C   UNL     1       5.549   5.041  16.061  0.00  0.00    +0.000 C 
ATOM     28  C   UNL     1       4.912   4.615  14.722  0.00  0.00    +0.000 C 
ATOM     29  C   UNL     1       5.944   3.894  13.853  0.00  0.00    +0.000 C 
ATOM     30  C   UNL     1       7.190   4.752  13.643  0.00  0.00    +0.000 C 
ATOM     31  N   UNL     1       7.777   5.166  14.915  0.00  0.00    +0.000 NA
ATOM     32  C   UNL     1       6.807   5.885  15.756  0.00  0.00    +0.000 C 
ATOM     33  H   UNL     1       8.584   5.765  14.746  0.00  0.00    +0.000 HD
ENDBRANCH  25  27
ENDBRANCH   4  25
TORSDOF 4
ENDMDL
MODEL 4
REMARK VINA RESULT:      -9.1      2.264      4.636
REMARK  Name = 
REMARK  4 active torsions:
REMARK  status: ('A' for Active; 'I' for Inactive)
REMARK    1  A    between atoms: C_2  and  C_4
REMARK    2  A    between atoms: C_7  and  N_8
REMARK    3  A    between atoms: N_8  and  C_9
REMARK    4  A    between atoms: C_17  and  C_18
REMARK                            x       y       z     vdW  Elec       q    Type
REMARK                         _______ _______ _______ _____ _____    ______ ____
ROOT
ATOM      1  C   UNL     1       2.741   3.485  20.048  0.00  0.00    +0.000 A 
ATOM      2  C   UNL     1       3.574   2.766  19.214  0.00  0.00    +0.000 A 
ATOM      3  N   UNL     1       4.233   3.288  18.156  0.00  0.00    +0.000 NA
ATOM      4  C   UNL     1       4.079   4.592  17.816  0.00  0.00    +0.000 A 
ATOM      5  C   UNL     1       3.236   5.407  18.619  0.00  0.00    +0.000 A 
ATOM      6  C   UNL     1       2.875   6.797  18.480  0.00  0.00    +0.000 A 
ATOM      7  C   UNL     1       2.040   7.265  19.472  0.00  0.00    +0.000 A 
ATOM      8  S   UNL     1       1.635   6.016  20.543  0.00  0.00    +0.000 S 
ATOM      9  C   UNL     1       2.587   4.841  19.726  0.00  0.00    +0.000 A 
ENDROOT
BRANCH   7  10
ATOM     10  C   UNL     1       1.516   8.616  19.679  0.00  0.00    +0.000 A 
ATOM     11  C   UNL     1       1.600   9.572  18.662  0.00  0.00    +0.000 A 
ATOM     12  C   UNL     1       1.071  10.852  18.849  0.00  0.00    +0.000 A 
ATOM     13  C   UNL     1       0.456  11.218  20.034  0.00  0.00    +0.000 A 
ATOM     14  N   UNL     1      -0.049  12.456  20.164  0.00  0.00    +0.000 NA
ATOM     15  C   UNL     1      -0.644  12.779  21.333  0.00  0.00    +0.000 A 
ATOM     16  C   UNL     1      -0.767  11.912  22.402  0.00  0.00    +0.000 A 
ATOM     17  C   UNL     1      -0.248  10.631  22.269  0.00  0.00    +0.000 A 
ATOM     18  C   UNL     1       0.373  10.264  21.068  0.00  0.00    +0.000 A 
ATOM     19  C   UNL     1       0.906   8.981  20.887  0.00  0.00    +0.000 A 
ENDBRANCH   7  10
BRANCH   1  21
ATOM     20  N   UNL     1       0.715   2.670  21.116  0.00  0.00    +0.000 N 
ATOM     21  C   UNL     1       2.069   2.818  21.179  0.00  0.00    +0.000 C 
ATOM     22  O   UNL     1       2.706   2.416  22.150  0.00  0.00    +0.000 OA
ATOM     23  H   UNL     1       0.269   2.121  21.850  0.00  0.00    +0.000 HD
ATOM     24  H   UNL     1       0.190   2.840  20.269  0.00  0.00    +0.000 HD
ENDBRANCH   1  21
BRANCH   4  25
ATOM     25  N   UNL     1       4.765   5.078  16.714  0.00  0.00    +0.000 N 
ATOM     26  H   UNL     1       4.449   4.831  15.788  0.00  0.00    +0.000 HD
BRANCH  25  27
ATOM     27  C   UNL     1       6.116   5.610  16.900  0.00  0.00    +0.000 C 
ATOM     28  C   UNL     1       6.078   7.138  17.102  0.00  0.00    +0.000 C 
ATOM     29  C   UNL     1       7.488   7.672  17.364  0.00  0.00    +0.000 C 
ATOM     30  C   UNL     1       8.141   6.957  18.546  0.00  0.00    +0.000 C 
ATOM     31  N   UNL     1       8.158   5.509  18.354  0.00  0.00    +0.000 NA
ATOM     32  C   UNL     1       6.807   4.973  18.126  0.00  0.00    +0.000 C 
ATOM     33  H   UNL     1       8.566   5.057  19.171  0.00  0.00    +0.000 HD
ENDBRANCH  25  27
ENDBRANCH   4  25
TORSDOF 4
ENDMDL
MODEL 5
REMARK VINA RESULT:      -9.1      2.365      4.757
REMARK  Name = 
REMARK  4 active torsions:
REMARK  status: ('A' for Active; 'I' for Inactive)
REMARK    1  A    between atoms: C_2  and  C_4
REMARK    2  A    between atoms: C_7  and  N_8
REMARK    3  A    between atoms: N_8  and  C_9
REMARK    4  A    between atoms: C_17  and  C_18
REMARK                            x       y       z     vdW  Elec       q    Type
REMARK                         _______ _______ _______ _____ _____    ______ ____
ROOT
ATOM      1  C   UNL     1       3.042   3.334  20.087  0.00  0.00    +0.000 A 
ATOM      2  C   UNL     1       4.276   2.876  19.672  0.00  0.00    +0.000 A 
ATOM      3  N   UNL     1       5.283   3.671  19.244  0.00  0.00    +0.000 NA
ATOM      4  C   UNL     1       5.118   5.014  19.158  0.00  0.00    +0.000 A 
ATOM      5  C   UNL     1       3.875   5.573  19.563  0.00  0.00    +0.000 A 
ATOM      6  C   UNL     1       3.421   6.942  19.557  0.00  0.00    +0.000 A 
ATOM      7  C   UNL     1       2.145   7.115  20.049  0.00  0.00    +0.000 A 
ATOM      8  S   UNL     1       1.462   5.622  20.465  0.00  0.00    +0.000 S 
ATOM      9  C   UNL     1       2.861   4.722  20.027  0.00  0.00    +0.000 A 
ENDROOT
BRANCH   7  10
ATOM     10  C   UNL     1       1.387   8.354  20.237  0.00  0.00    +0.000 A 
ATOM     11  C   UNL     1       1.230   9.256  19.181  0.00  0.00    +0.000 A 
ATOM     12  C   UNL     1       0.479  10.423  19.352  0.00  0.00    +0.000 A 
ATOM     13  C   UNL     1      -0.125  10.726  20.560  0.00  0.00    +0.000 A 
ATOM     14  N   UNL     1      -0.847  11.853  20.675  0.00  0.00    +0.000 NA
ATOM     15  C   UNL     1      -1.426  12.118  21.867  0.00  0.00    +0.000 A 
ATOM     16  C   UNL     1      -1.321  11.297  22.974  0.00  0.00    +0.000 A 
ATOM     17  C   UNL     1      -0.577  10.131  22.857  0.00  0.00    +0.000 A 
ATOM     18  C   UNL     1       0.033   9.827  21.633  0.00  0.00    +0.000 A 
ATOM     19  C   UNL     1       0.788   8.658  21.467  0.00  0.00    +0.000 A 
ENDBRANCH   7  10
BRANCH   1  21
ATOM     20  N   UNL     1       1.801   2.260  21.881  0.00  0.00    +0.000 N 
ATOM     21  C   UNL     1       2.012   2.379  20.538  0.00  0.00    +0.000 C 
ATOM     22  O   UNL     1       1.371   1.706  19.734  0.00  0.00    +0.000 OA
ATOM     23  H   UNL     1       1.022   1.675  22.182  0.00  0.00    +0.000 HD
ATOM     24  H   UNL     1       2.192   2.909  22.550  0.00  0.00    +0.000 HD
ENDBRANCH   1  21
BRANCH   4  25
ATOM     25  N   UNL     1       6.174   5.787  18.700  0.00  0.00    +0.000 N 
ATOM     26  H   UNL     1       6.588   6.470  19.316  0.00  0.00    +0.000 HD
BRANCH  25  27
ATOM     27  C   UNL     1       6.415   5.872  17.258  0.00  0.00    +0.000 C 
ATOM     28  C   UNL     1       6.997   4.547  16.725  0.00  0.00    +0.000 C 
ATOM     29  C   UNL     1       7.180   4.624  15.207  0.00  0.00    +0.000 C 
ATOM     30  C   UNL     1       5.873   4.993  14.509  0.00  0.00    +0.000 C 
ATOM     31  N   UNL     1       5.319   6.240  15.031  0.00  0.00    +0.000 NA
ATOM     32  C   UNL     1       5.111   6.177  16.487  0.00  0.00    +0.000 C 
ATOM     33  H   UNL     1       4.432   6.444  14.574  0.00  0.00    +0.000 HD
ENDBRANCH  25  27
ENDBRANCH   4  25
TORSDOF 4
ENDMDL
MODEL 6
REMARK VINA RESULT:      -8.8      2.261      5.161
REMARK  Name = 
REMARK  4 active torsions:
REMARK  status: ('A' for Active; 'I' for Inactive)
REMARK    1  A    between atoms: C_2  and  C_4
REMARK    2  A    between atoms: C_7  and  N_8
REMARK    3  A    between atoms: N_8  and  C_9
REMARK    4  A    between atoms: C_17  and  C_18
REMARK                            x       y       z     vdW  Elec       q    Type
REMARK                         _______ _______ _______ _____ _____    ______ ____
ROOT
ATOM      1  C   UNL     1       2.760   3.788  20.151  0.00  0.00    +0.000 A 
ATOM      2  C   UNL     1       3.637   3.225  19.246  0.00  0.00    +0.000 A 
ATOM      3  N   UNL     1       4.251   3.904  18.250  0.00  0.00    +0.000 NA
ATOM      4  C   UNL     1       4.002   5.222  18.053  0.00  0.00    +0.000 A 
ATOM      5  C   UNL     1       3.108   5.884  18.939  0.00  0.00    +0.000 A 
ATOM      6  C   UNL     1       2.648   7.251  18.951  0.00  0.00    +0.000 A 
ATOM      7  C   UNL     1       1.788   7.548  19.986  0.00  0.00    +0.000 A 
ATOM      8  S   UNL     1       1.480   6.166  20.915  0.00  0.00    +0.000 S 
ATOM      9  C   UNL     1       2.508   5.156  19.977  0.00  0.00    +0.000 A 
ENDROOT
BRANCH   7  10
ATOM     10  C   UNL     1       1.171   8.829  20.337  0.00  0.00    +0.000 A 
ATOM     11  C   UNL     1       0.768   9.085  21.650  0.00  0.00    +0.000 A 
ATOM     12  C   UNL     1       0.208  10.320  21.991  0.00  0.00    +0.000 A 
ATOM     13  C   UNL     1       0.031  11.321  21.050  0.00  0.00    +0.000 A 
ATOM     14  N   UNL     1      -0.501  12.496  21.426  0.00  0.00    +0.000 NA
ATOM     15  C   UNL     1      -0.658  13.452  20.483  0.00  0.00    +0.000 A 
ATOM     16  C   UNL     1      -0.303  13.293  19.157  0.00  0.00    +0.000 A 
ATOM     17  C   UNL     1       0.248  12.079  18.767  0.00  0.00    +0.000 A 
ATOM     18  C   UNL     1       0.427  11.069  19.722  0.00  0.00    +0.000 A 
ATOM     19  C   UNL     1       0.985   9.831  19.376  0.00  0.00    +0.000 A 
ENDBRANCH   7  10
BRANCH   1  21
ATOM     20  N   UNL     1       0.804   2.722  21.123  0.00  0.00    +0.000 N 
ATOM     21  C   UNL     1       2.145   2.957  21.202  0.00  0.00    +0.000 C 
ATOM     22  O   UNL     1       2.815   2.497  22.124  0.00  0.00    +0.000 OA
ATOM     23  H   UNL     1       0.403   2.067  21.793  0.00  0.00    +0.000 HD
ATOM     24  H   UNL     1       0.263   2.947  20.300  0.00  0.00    +0.000 HD
ENDBRANCH   1  21
BRANCH   4  25
ATOM     25  N   UNL     1       4.645   5.873  17.011  0.00  0.00    +0.000 N 
ATOM     26  H   UNL     1       4.272   6.747  16.672  0.00  0.00    +0.000 HD
BRANCH  25  27
ATOM     27  C   UNL     1       5.597   5.124  16.190  0.00  0.00    +0.000 C 
ATOM     28  C   UNL     1       4.933   4.652  14.880  0.00  0.00    +0.000 C 
ATOM     29  C   UNL     1       5.957   3.931  14.000  0.00  0.00    +0.000 C 
ATOM     30  C   UNL     1       7.178   4.809  13.735  0.00  0.00    +0.000 C 
ATOM     31  N   UNL     1       7.790   5.266  14.980  0.00  0.00    +0.000 NA
ATOM     32  C   UNL     1       6.828   5.986  15.830  0.00  0.00    +0.000 C 
ATOM     33  H   UNL     1       8.579   5.878  14.774  0.00  0.00    +0.000 HD
ENDBRANCH  25  27
ENDBRANCH   4  25
TORSDOF 4
ENDMDL
MODEL 7
REMARK VINA RESULT:      -8.8      2.430      4.688
REMARK  Name = 
REMARK  4 active torsions:
REMARK  status: ('A' for Active; 'I' for Inactive)
REMARK    1  A    between atoms: C_2  and  C_4
REMARK    2  A    between atoms: C_7  and  N_8
REMARK    3  A    between atoms: N_8  and  C_9
REMARK    4  A    between atoms: C_17  and  C_18
REMARK                            x       y       z     vdW  Elec       q    Type
REMARK                         _______ _______ _______ _____ _____    ______ ____
ROOT
ATOM      1  C   UNL     1       2.434   3.102  18.780  0.00  0.00    +0.000 A 
ATOM      2  C   UNL     1       3.321   2.595  17.850  0.00  0.00    +0.000 A 
ATOM      3  N   UNL     1       4.150   3.348  17.094  0.00  0.00    +0.000 NA
ATOM      4  C   UNL     1       4.132   4.702  17.181  0.00  0.00    +0.000 A 
ATOM      5  C   UNL     1       3.247   5.310  18.112  0.00  0.00    +0.000 A 
ATOM      6  C   UNL     1       3.004   6.704  18.395  0.00  0.00    +0.000 A 
ATOM      7  C   UNL     1       2.077   6.923  19.392  0.00  0.00    +0.000 A 
ATOM      8  S   UNL     1       1.448   5.453  19.951  0.00  0.00    +0.000 S 
ATOM      9  C   UNL     1       2.418   4.498  18.901  0.00  0.00    +0.000 A 
ENDROOT
BRANCH   7  10
ATOM     10  C   UNL     1       1.624   8.190  19.969  0.00  0.00    +0.000 A 
ATOM     11  C   UNL     1       1.421   8.308  21.347  0.00  0.00    +0.000 A 
ATOM     12  C   UNL     1       1.020   9.528  21.902  0.00  0.00    +0.000 A 
ATOM     13  C   UNL     1       0.807  10.647  21.116  0.00  0.00    +0.000 A 
ATOM     14  N   UNL     1       0.433  11.801  21.694  0.00  0.00    +0.000 NA
ATOM     15  C   UNL     1       0.236  12.875  20.898  0.00  0.00    +0.000 A 
ATOM     16  C   UNL     1       0.398  12.859  19.525  0.00  0.00    +0.000 A 
ATOM     17  C   UNL     1       0.787  11.667  18.926  0.00  0.00    +0.000 A 
ATOM     18  C   UNL     1       1.002  10.536  19.724  0.00  0.00    +0.000 A 
ATOM     19  C   UNL     1       1.400   9.315  19.164  0.00  0.00    +0.000 A 
ENDBRANCH   7  10
BRANCH   1  21
ATOM     20  N   UNL     1       0.662   1.441  18.871  0.00  0.00    +0.000 N 
ATOM     21  C   UNL     1       1.574   2.190  19.555  0.00  0.00    +0.000 C 
ATOM     22  O   UNL     1       1.666   2.113  20.779  0.00  0.00    +0.000 OA
ATOM     23  H   UNL     1       0.140   0.741  19.398  0.00  0.00    +0.000 HD
ATOM     24  H   UNL     1       0.673   1.362  17.863  0.00  0.00    +0.000 HD
ENDBRANCH   1  21
BRANCH   4  25
ATOM     25  N   UNL     1       4.991   5.433  16.375  0.00  0.00    +0.000 N 
ATOM     26  H   UNL     1       4.787   5.523  15.392  0.00  0.00    +0.000 HD
BRANCH  25  27
ATOM     27  C   UNL     1       6.339   5.731  16.865  0.00  0.00    +0.000 C 
ATOM     28  C   UNL     1       6.459   7.217  17.258  0.00  0.00    +0.000 C 
ATOM     29  C   UNL     1       7.849   7.500  17.833  0.00  0.00    +0.000 C 
ATOM     30  C   UNL     1       8.164   6.574  19.005  0.00  0.00    +0.000 C 
ATOM     31  N   UNL     1       8.032   5.169  18.630  0.00  0.00    +0.000 NA
ATOM     32  C   UNL     1       6.692   4.870  18.099  0.00  0.00    +0.000 C 
ATOM     33  H   UNL     1       8.212   4.575  19.438  0.00  0.00    +0.000 HD
ENDBRANCH  25  27
ENDBRANCH   4  25
TORSDOF 4
ENDMDL
MODEL 8
REMARK VINA RESULT:      -8.8      0.769      1.620
REMARK  Name = 
REMARK  4 active torsions:
REMARK  status: ('A' for Active; 'I' for Inactive)
REMARK    1  A    between atoms: C_2  and  C_4
REMARK    2  A    between atoms: C_7  and  N_8
REMARK    3  A    between atoms: N_8  and  C_9
REMARK    4  A    between atoms: C_17  and  C_18
REMARK                            x       y       z     vdW  Elec       q    Type
REMARK                         _______ _______ _______ _____ _____    ______ ____
ROOT
ATOM      1  C   UNL     1       5.627   5.061  16.429  0.00  0.00    +0.000 A 
ATOM      2  C   UNL     1       5.475   3.703  16.228  0.00  0.00    +0.000 A 
ATOM      3  N   UNL     1       4.381   2.994  16.587  0.00  0.00    +0.000 NA
ATOM      4  C   UNL     1       3.344   3.593  17.223  0.00  0.00    +0.000 A 
ATOM      5  C   UNL     1       3.417   4.991  17.473  0.00  0.00    +0.000 A 
ATOM      6  C   UNL     1       2.487   5.869  18.141  0.00  0.00    +0.000 A 
ATOM      7  C   UNL     1       2.886   7.188  18.179  0.00  0.00    +0.000 A 
ATOM      8  S   UNL     1       4.411   7.368  17.465  0.00  0.00    +0.000 S 
ATOM      9  C   UNL     1       4.555   5.702  17.065  0.00  0.00    +0.000 A 
ENDROOT
BRANCH   7  10
ATOM     10  C   UNL     1       2.182   8.351  18.724  0.00  0.00    +0.000 A 
ATOM     11  C   UNL     1       1.463   8.249  19.919  0.00  0.00    +0.000 A 
ATOM     12  C   UNL     1       0.819   9.367  20.455  0.00  0.00    +0.000 A 
ATOM     13  C   UNL     1       0.864  10.601  19.828  0.00  0.00    +0.000 A 
ATOM     14  N   UNL     1       0.239  11.651  20.387  0.00  0.00    +0.000 NA
ATOM     15  C   UNL     1       0.305  12.841  19.750  0.00  0.00    +0.000 A 
ATOM     16  C   UNL     1       0.978  13.043  18.560  0.00  0.00    +0.000 A 
ATOM     17  C   UNL     1       1.627  11.959  17.982  0.00  0.00    +0.000 A 
ATOM     18  C   UNL     1       1.579  10.712  18.619  0.00  0.00    +0.000 A 
ATOM     19  C   UNL     1       2.224   9.593  18.076  0.00  0.00    +0.000 A 
ENDBRANCH   7  10
BRANCH   1  21
ATOM     20  N   UNL     1       7.345   5.452  14.754  0.00  0.00    +0.000 N 
ATOM     21  C   UNL     1       6.864   5.739  15.998  0.00  0.00    +0.000 C 
ATOM     22  O   UNL     1       7.448   6.528  16.736  0.00  0.00    +0.000 OA
ATOM     23  H   UNL     1       8.141   5.996  14.422  0.00  0.00    +0.000 HD
ATOM     24  H   UNL     1       6.806   4.938  14.070  0.00  0.00    +0.000 HD
ENDBRANCH   1  21
BRANCH   4  25
ATOM     25  N   UNL     1       2.249   2.823  17.583  0.00  0.00    +0.000 N 
ATOM     26  H   UNL     1       1.461   2.765  16.957  0.00  0.00    +0.000 HD
BRANCH  25  27
ATOM     27  C   UNL     1       2.092   2.428  18.984  0.00  0.00    +0.000 C 
ATOM     28  C   UNL     1       3.390   2.696  19.774  0.00  0.00    +0.000 C 
ATOM     29  C   UNL     1       3.191   2.345  21.250  0.00  0.00    +0.000 C 
ATOM     30  C   UNL     1       1.999   3.093  21.844  0.00  0.00    +0.000 C 
ATOM     31  N   UNL     1       0.778   2.847  21.080  0.00  0.00    +0.000 NA
ATOM     32  C   UNL     1       0.940   3.204  19.661  0.00  0.00    +0.000 C 
ATOM     33  H   UNL     1       0.008   3.384  21.475  0.00  0.00    +0.000 HD
ENDBRANCH  25  27
ENDBRANCH   4  25
TORSDOF 4
ENDMDL
MODEL 9
REMARK VINA RESULT:      -8.6      2.396      4.901
REMARK  Name = 
REMARK  4 active torsions:
REMARK  status: ('A' for Active; 'I' for Inactive)
REMARK    1  A    between atoms: C_2  and  C_4
REMARK    2  A    between atoms: C_7  and  N_8
REMARK    3  A    between atoms: N_8  and  C_9
REMARK    4  A    between atoms: C_17  and  C_18
REMARK                            x       y       z     vdW  Elec       q    Type
REMARK                         _______ _______ _______ _____ _____    ______ ____
ROOT
ATOM      1  C   UNL     1       2.697   3.533  20.037  0.00  0.00    +0.000 A 
ATOM      2  C   UNL     1       3.495   2.857  19.135  0.00  0.00    +0.000 A 
ATOM      3  N   UNL     1       4.117   3.433  18.081  0.00  0.00    +0.000 NA
ATOM      4  C   UNL     1       3.955   4.754  17.817  0.00  0.00    +0.000 A 
ATOM      5  C   UNL     1       3.146   5.527  18.694  0.00  0.00    +0.000 A 
ATOM      6  C   UNL     1       2.787   6.924  18.643  0.00  0.00    +0.000 A 
ATOM      7  C   UNL     1       1.992   7.340  19.690  0.00  0.00    +0.000 A 
ATOM      8  S   UNL     1       1.622   6.037  20.708  0.00  0.00    +0.000 S 
ATOM      9  C   UNL     1       2.537   4.904  19.793  0.00  0.00    +0.000 A 
ENDROOT
BRANCH   7  10
ATOM     10  C   UNL     1       1.482   8.680  19.987  0.00  0.00    +0.000 A 
ATOM     11  C   UNL     1       0.879   8.951  21.218  0.00  0.00    +0.000 A 
ATOM     12  C   UNL     1       0.422  10.239  21.514  0.00  0.00    +0.000 A 
ATOM     13  C   UNL     1       0.545  11.278  20.608  0.00  0.00    +0.000 A 
ATOM     14  N   UNL     1       0.101  12.502  20.940  0.00  0.00    +0.000 NA
ATOM     15  C   UNL     1       0.239  13.495  20.033  0.00  0.00    +0.000 A 
ATOM     16  C   UNL     1       0.810  13.327  18.786  0.00  0.00    +0.000 A 
ATOM     17  C   UNL     1       1.270  12.063  18.442  0.00  0.00    +0.000 A 
ATOM     18  C   UNL     1       1.145  11.013  19.361  0.00  0.00    +0.000 A 
ATOM     19  C   UNL     1       1.601   9.723  19.059  0.00  0.00    +0.000 A 
ENDBRANCH   7  10
BRANCH   1  21
ATOM     20  N   UNL     1       0.714   2.636  21.119  0.00  0.00    +0.000 N 
ATOM     21  C   UNL     1       2.067   2.808  21.155  0.00  0.00    +0.000 C 
ATOM     22  O   UNL     1       2.734   2.381  22.095  0.00  0.00    +0.000 OA
ATOM     23  H   UNL     1       0.297   2.049  21.840  0.00  0.00    +0.000 HD
ATOM     24  H   UNL     1       0.166   2.829  20.291  0.00  0.00    +0.000 HD
ENDBRANCH   1  21
BRANCH   4  25
ATOM     25  N   UNL     1       4.601   5.297  16.717  0.00  0.00    +0.000 N 
ATOM     26  H   UNL     1       4.229   5.128  15.795  0.00  0.00    +0.000 HD
BRANCH  25  27
ATOM     27  C   UNL     1       5.979   5.768  16.868  0.00  0.00    +0.000 C 
ATOM     28  C   UNL     1       6.008   7.281  17.166  0.00  0.00    +0.000 C 
ATOM     29  C   UNL     1       7.448   7.748  17.390  0.00  0.00    +0.000 C 
ATOM     30  C   UNL     1       8.130   6.937  18.490  0.00  0.00    +0.000 C 
ATOM     31  N   UNL     1       8.084   5.504  18.208  0.00  0.00    +0.000 NA
ATOM     32  C   UNL     1       6.703   5.030  18.016  0.00  0.00    +0.000 C 
ATOM     33  H   UNL     1       8.513   4.986  18.973  0.00  0.00    +0.000 HD
ENDBRANCH  25  27
ENDBRANCH   4  25
TORSDOF 4
ENDMDL
