MODEL 1
REMARK VINA RESULT:      -8.9      0.000      0.000
REMARK  Name = 
REMARK  6 active torsions:
REMARK  status: ('A' for Active; 'I' for Inactive)
REMARK    1  A    between atoms: C_1  and  C_2
REMARK    2  A    between atoms: C_6  and  C_7
REMARK    3  A    between atoms: C_10  and  C_11
REMARK    4  A    between atoms: C_12  and  C_13
REMARK    5  A    between atoms: C_13  and  O_14
REMARK    6  A    between atoms: C_21  and  C_23
REMARK                            x       y       z     vdW  Elec       q    Type
REMARK                         _______ _______ _______ _____ _____    ______ ____
ROOT
ATOM      1  C   UNL     1      -0.575  11.368  20.546  0.00  0.00    +0.000 C 
ATOM      2  C   UNL     1      -0.384  12.400  21.805  0.00  0.00    +0.000 C 
ATOM      3  N   UNL     1      -0.398  13.520  20.853  0.00  0.00    +0.000 NA
ATOM      4  C   UNL     1      -1.135  14.754  21.003  0.00  0.00    +0.000 C 
ATOM      5  C   UNL     1      -0.929  15.761  19.826  0.00  0.00    +0.000 C 
ATOM      6  C   UNL     1       0.522  16.171  19.499  0.00  0.00    +0.000 C 
ATOM      7  C   UNL     1       1.255  15.288  18.498  0.00  0.00    +0.000 C 
ATOM      8  N   UNL     1       1.419  13.929  18.951  0.00  0.00    +0.000 N 
ATOM      9  C   UNL     1       2.242  13.637  20.057  0.00  0.00    +0.000 C 
ATOM     10  O   UNL     1       2.072  12.632  20.731  0.00  0.00    +0.000 OA
ATOM     11  C   UNL     1       0.289  13.001  18.559  0.00  0.00    +0.000 C 
ATOM     12  C   UNL     1      -0.715  12.706  19.694  0.00  0.00    +0.000 C 
ENDROOT
BRANCH   9  13
ATOM     13  C   UNL     1       3.367  14.413  20.647  0.00  0.00    +0.000 A 
ATOM     14  C   UNL     1       4.546  14.807  19.998  0.00  0.00    +0.000 A 
ATOM     15  C   UNL     1       5.664  15.225  20.753  0.00  0.00    +0.000 A 
ATOM     16  C   UNL     1       5.596  15.173  22.137  0.00  0.00    +0.000 A 
ATOM     17  C   UNL     1       4.443  14.820  22.776  0.00  0.00    +0.000 A 
ATOM     18  C   UNL     1       3.321  14.482  22.069  0.00  0.00    +0.000 A 
ATOM     19  O   UNL     1       4.575  14.752  24.128  0.00  0.00    +0.000 OA
ATOM     20  C   UNL     1       6.004  14.872  24.238  0.00  0.00    +0.000 C 
ATOM     21  O   UNL     1       6.612  15.375  23.022  0.00  0.00    +0.000 OA
ENDBRANCH   9  13
BRANCH   1  25
ATOM     22  C   UNL     1       2.133   7.839  18.680  0.00  0.00    +0.000 A 
ATOM     23  C   UNL     1       1.837   7.968  20.052  0.00  0.00    +0.000 A 
ATOM     24  C   UNL     1       1.058   9.062  20.607  0.00  0.00    +0.000 A 
ATOM     25  C   UNL     1       0.526  10.123  19.837  0.00  0.00    +0.000 A 
ATOM     26  C   UNL     1       0.860   9.926  18.479  0.00  0.00    +0.000 A 
ATOM     27  C   UNL     1       1.589   8.849  17.913  0.00  0.00    +0.000 A 
BRANCH  22  33
ATOM     28  C   UNL     1       2.823   2.914  17.540  0.00  0.00    +0.000 C 
ATOM     29  C   UNL     1       3.287   4.342  17.473  0.00  0.00    +0.000 A 
ATOM     30  C   UNL     1       4.490   4.649  16.839  0.00  0.00    +0.000 A 
ATOM     31  C   UNL     1       4.921   5.982  16.800  0.00  0.00    +0.000 A 
ATOM     32  C   UNL     1       4.158   7.004  17.390  0.00  0.00    +0.000 A 
ATOM     33  C   UNL     1       2.948   6.746  18.035  0.00  0.00    +0.000 A 
ATOM     34  C   UNL     1       2.540   5.383  18.072  0.00  0.00    +0.000 A 
ENDBRANCH  22  33
ENDBRANCH   1  25
BRANCH   2  35
ATOM     35  C   UNL     1      -1.206  12.657  23.075  0.00  0.00    +0.000 C 
BRANCH  35  36
ATOM     36  O   UNL     1      -2.258  11.712  23.260  0.00  0.00    +0.000 OA
ATOM     37  H   UNL     1      -2.784  11.726  22.442  0.00  0.00    +0.000 HD
ENDBRANCH  35  36
ENDBRANCH   2  35
TORSDOF 5
ENDMDL
MODEL 2
REMARK VINA RESULT:      -8.8      1.028      1.547
REMARK  Name = 
REMARK  6 active torsions:
REMARK  status: ('A' for Active; 'I' for Inactive)
REMARK    1  A    between atoms: C_1  and  C_2
REMARK    2  A    between atoms: C_6  and  C_7
REMARK    3  A    between atoms: C_10  and  C_11
REMARK    4  A    between atoms: C_12  and  C_13
REMARK    5  A    between atoms: C_13  and  O_14
REMARK    6  A    between atoms: C_21  and  C_23
REMARK                            x       y       z     vdW  Elec       q    Type
REMARK                         _______ _______ _______ _____ _____    ______ ____
ROOT
ATOM      1  C   UNL     1      -0.644  11.236  20.545  0.00  0.00    +0.000 C 
ATOM      2  C   UNL     1      -0.493  12.255  21.820  0.00  0.00    +0.000 C 
ATOM      3  N   UNL     1      -0.507  13.387  20.880  0.00  0.00    +0.000 NA
ATOM      4  C   UNL     1      -1.266  14.607  21.030  0.00  0.00    +0.000 C 
ATOM      5  C   UNL     1      -1.054  15.631  19.870  0.00  0.00    +0.000 C 
ATOM      6  C   UNL     1       0.396  16.067  19.576  0.00  0.00    +0.000 C 
ATOM      7  C   UNL     1       1.163  15.208  18.579  0.00  0.00    +0.000 C 
ATOM      8  N   UNL     1       1.339  13.846  19.019  0.00  0.00    +0.000 N 
ATOM      9  C   UNL     1       2.145  13.554  20.136  0.00  0.00    +0.000 C 
ATOM     10  O   UNL     1       1.979  12.538  20.795  0.00  0.00    +0.000 OA
ATOM     11  C   UNL     1       0.231  12.905  18.594  0.00  0.00    +0.000 C 
ATOM     12  C   UNL     1      -0.789  12.581  19.706  0.00  0.00    +0.000 C 
ENDROOT
BRANCH   9  13
ATOM     13  C   UNL     1       3.247  14.340  20.757  0.00  0.00    +0.000 A 
ATOM     14  C   UNL     1       3.184  15.076  21.949  0.00  0.00    +0.000 A 
ATOM     15  C   UNL     1       4.173  16.041  22.238  0.00  0.00    +0.000 A 
ATOM     16  C   UNL     1       5.160  16.292  21.297  0.00  0.00    +0.000 A 
ATOM     17  C   UNL     1       5.246  15.561  20.148  0.00  0.00    +0.000 A 
ATOM     18  C   UNL     1       4.344  14.567  19.878  0.00  0.00    +0.000 A 
ATOM     19  O   UNL     1       6.226  15.988  19.308  0.00  0.00    +0.000 OA
ATOM     20  C   UNL     1       6.583  17.220  19.960  0.00  0.00    +0.000 C 
ATOM     21  O   UNL     1       6.091  17.287  21.322  0.00  0.00    +0.000 OA
ENDBRANCH   9  13
BRANCH   1  25
ATOM     22  C   UNL     1       2.154   7.772  18.690  0.00  0.00    +0.000 A 
ATOM     23  C   UNL     1       1.834   7.882  20.059  0.00  0.00    +0.000 A 
ATOM     24  C   UNL     1       1.027   8.957  20.611  0.00  0.00    +0.000 A 
ATOM     25  C   UNL     1       0.490  10.017  19.843  0.00  0.00    +0.000 A 
ATOM     26  C   UNL     1       0.850   9.839  18.489  0.00  0.00    +0.000 A 
ATOM     27  C   UNL     1       1.606   8.780  17.925  0.00  0.00    +0.000 A 
BRANCH  22  33
ATOM     28  C   UNL     1       2.919   2.878  17.465  0.00  0.00    +0.000 C 
ATOM     29  C   UNL     1       3.374   4.310  17.446  0.00  0.00    +0.000 A 
ATOM     30  C   UNL     1       4.595   4.640  16.858  0.00  0.00    +0.000 A 
ATOM     31  C   UNL     1       5.017   5.977  16.864  0.00  0.00    +0.000 A 
ATOM     32  C   UNL     1       4.227   6.980  17.450  0.00  0.00    +0.000 A 
ATOM     33  C   UNL     1       2.998   6.699  18.049  0.00  0.00    +0.000 A 
ATOM     34  C   UNL     1       2.600   5.333  18.042  0.00  0.00    +0.000 A 
ENDBRANCH  22  33
ENDBRANCH   1  25
BRANCH   2  35
ATOM     35  C   UNL     1      -1.343  12.484  23.076  0.00  0.00    +0.000 C 
BRANCH  35  36
ATOM     36  O   UNL     1      -2.634  11.883  22.995  0.00  0.00    +0.000 OA
ATOM     37  H   UNL     1      -3.089  12.315  22.252  0.00  0.00    +0.000 HD
ENDBRANCH  35  36
ENDBRANCH   2  35
TORSDOF 5
ENDMDL
MODEL 3
REMARK VINA RESULT:      -8.8      0.289      1.153
REMARK  Name = 
REMARK  6 active torsions:
REMARK  status: ('A' for Active; 'I' for Inactive)
REMARK    1  A    between atoms: C_1  and  C_2
REMARK    2  A    between atoms: C_6  and  C_7
REMARK    3  A    between atoms: C_10  and  C_11
REMARK    4  A    between atoms: C_12  and  C_13
REMARK    5  A    between atoms: C_13  and  O_14
REMARK    6  A    between atoms: C_21  and  C_23
REMARK                            x       y       z     vdW  Elec       q    Type
REMARK                         _______ _______ _______ _____ _____    ______ ____
ROOT
ATOM      1  C   UNL     1      -0.532  11.462  20.460  0.00  0.00    +0.000 C 
ATOM      2  C   UNL     1      -0.346  12.499  21.716  0.00  0.00    +0.000 C 
ATOM      3  N   UNL     1      -0.294  13.610  20.755  0.00  0.00    +0.000 NA
ATOM      4  C   UNL     1      -0.996  14.868  20.871  0.00  0.00    +0.000 C 
ATOM      5  C   UNL     1      -0.721  15.857  19.693  0.00  0.00    +0.000 C 
ATOM      6  C   UNL     1       0.752  16.217  19.409  0.00  0.00    +0.000 C 
ATOM      7  C   UNL     1       1.488  15.302  18.439  0.00  0.00    +0.000 C 
ATOM      8  N   UNL     1       1.593  13.943  18.908  0.00  0.00    +0.000 N 
ATOM      9  C   UNL     1       2.371  13.635  20.041  0.00  0.00    +0.000 C 
ATOM     10  O   UNL     1       2.148  12.642  20.717  0.00  0.00    +0.000 OA
ATOM     11  C   UNL     1       0.446  13.048  18.487  0.00  0.00    +0.000 C 
ATOM     12  C   UNL     1      -0.601  12.795  19.593  0.00  0.00    +0.000 C 
ENDROOT
BRANCH   9  13
ATOM     13  C   UNL     1       3.502  14.380  20.660  0.00  0.00    +0.000 A 
ATOM     14  C   UNL     1       4.696  14.766  20.033  0.00  0.00    +0.000 A 
ATOM     15  C   UNL     1       5.810  15.150  20.809  0.00  0.00    +0.000 A 
ATOM     16  C   UNL     1       5.725  15.073  22.191  0.00  0.00    +0.000 A 
ATOM     17  C   UNL     1       4.558  14.727  22.809  0.00  0.00    +0.000 A 
ATOM     18  C   UNL     1       3.439  14.422  22.082  0.00  0.00    +0.000 A 
ATOM     19  O   UNL     1       4.672  14.630  24.161  0.00  0.00    +0.000 OA
ATOM     20  C   UNL     1       6.102  14.724  24.291  0.00  0.00    +0.000 C 
ATOM     21  O   UNL     1       6.733  15.240  23.092  0.00  0.00    +0.000 OA
ENDBRANCH   9  13
BRANCH   1  25
ATOM     22  C   UNL     1       2.120   7.829  18.718  0.00  0.00    +0.000 A 
ATOM     23  C   UNL     1       1.814   8.001  20.083  0.00  0.00    +0.000 A 
ATOM     24  C   UNL     1       1.052   9.125  20.600  0.00  0.00    +0.000 A 
ATOM     25  C   UNL     1       0.551  10.176  19.797  0.00  0.00    +0.000 A 
ATOM     26  C   UNL     1       0.895   9.936  18.448  0.00  0.00    +0.000 A 
ATOM     27  C   UNL     1       1.606   8.829  17.919  0.00  0.00    +0.000 A 
BRANCH  22  33
ATOM     28  C   UNL     1       6.299   6.153  16.315  0.00  0.00    +0.000 C 
ATOM     29  C   UNL     1       4.960   5.879  16.942  0.00  0.00    +0.000 A 
ATOM     30  C   UNL     1       4.446   4.583  16.934  0.00  0.00    +0.000 A 
ATOM     31  C   UNL     1       3.188   4.344  17.504  0.00  0.00    +0.000 A 
ATOM     32  C   UNL     1       2.446   5.390  18.079  0.00  0.00    +0.000 A 
ATOM     33  C   UNL     1       2.919   6.702  18.111  0.00  0.00    +0.000 A 
ATOM     34  C   UNL     1       4.193   6.920  17.515  0.00  0.00    +0.000 A 
ENDBRANCH  22  33
ENDBRANCH   1  25
BRANCH   2  35
ATOM     35  C   UNL     1      -1.199  12.794  22.957  0.00  0.00    +0.000 C 
BRANCH  35  36
ATOM     36  O   UNL     1      -2.172  11.785  23.219  0.00  0.00    +0.000 OA
ATOM     37  H   UNL     1      -1.973  11.050  22.613  0.00  0.00    +0.000 HD
ENDBRANCH  35  36
ENDBRANCH   2  35
TORSDOF 5
ENDMDL
MODEL 4
REMARK VINA RESULT:      -8.6      4.179      7.550
REMARK  Name = 
REMARK  6 active torsions:
REMARK  status: ('A' for Active; 'I' for Inactive)
REMARK    1  A    between atoms: C_1  and  C_2
REMARK    2  A    between atoms: C_6  and  C_7
REMARK    3  A    between atoms: C_10  and  C_11
REMARK    4  A    between atoms: C_12  and  C_13
REMARK    5  A    between atoms: C_13  and  O_14
REMARK    6  A    between atoms: C_21  and  C_23
REMARK                            x       y       z     vdW  Elec       q    Type
REMARK                         _______ _______ _______ _____ _____    ______ ____
ROOT
ATOM      1  C   UNL     1      10.066  13.957  18.735  0.00  0.00    +0.000 C 
ATOM      2  C   UNL     1       9.607  15.363  18.028  0.00  0.00    +0.000 C 
ATOM      3  N   UNL     1       9.018  15.782  19.309  0.00  0.00    +0.000 NA
ATOM      4  C   UNL     1       9.165  17.080  19.927  0.00  0.00    +0.000 C 
ATOM      5  C   UNL     1       8.401  17.225  21.282  0.00  0.00    +0.000 C 
ATOM      6  C   UNL     1       6.887  16.930  21.269  0.00  0.00    +0.000 C 
ATOM      7  C   UNL     1       6.486  15.483  21.523  0.00  0.00    +0.000 C 
ATOM      8  N   UNL     1       6.982  14.572  20.521  0.00  0.00    +0.000 N 
ATOM      9  C   UNL     1       6.510  14.639  19.196  0.00  0.00    +0.000 C 
ATOM     10  O   UNL     1       7.178  14.228  18.259  0.00  0.00    +0.000 OA
ATOM     11  C   UNL     1       8.343  13.985  20.831  0.00  0.00    +0.000 C 
ATOM     12  C   UNL     1       9.508  14.641  20.060  0.00  0.00    +0.000 C 
ENDROOT
BRANCH   9  13
ATOM     13  C   UNL     1       5.243  15.205  18.656  0.00  0.00    +0.000 A 
ATOM     14  C   UNL     1       4.966  16.559  18.411  0.00  0.00    +0.000 A 
ATOM     15  C   UNL     1       3.632  16.986  18.234  0.00  0.00    +0.000 A 
ATOM     16  C   UNL     1       2.607  16.064  18.372  0.00  0.00    +0.000 A 
ATOM     17  C   UNL     1       2.869  14.741  18.581  0.00  0.00    +0.000 A 
ATOM     18  C   UNL     1       4.156  14.285  18.681  0.00  0.00    +0.000 A 
ATOM     19  O   UNL     1       1.749  13.991  18.765  0.00  0.00    +0.000 OA
ATOM     20  C   UNL     1       0.773  15.041  18.885  0.00  0.00    +0.000 C 
ATOM     21  O   UNL     1       1.268  16.314  18.401  0.00  0.00    +0.000 OA
ENDBRANCH   9  13
BRANCH   1  25
ATOM     22  C   UNL     1       8.458   9.430  18.292  0.00  0.00    +0.000 A 
ATOM     23  C   UNL     1       9.440   9.834  19.220  0.00  0.00    +0.000 A 
ATOM     24  C   UNL     1       9.949  11.192  19.311  0.00  0.00    +0.000 A 
ATOM     25  C   UNL     1       9.529  12.251  18.473  0.00  0.00    +0.000 A 
ATOM     26  C   UNL     1       8.549  11.774  17.575  0.00  0.00    +0.000 A 
ATOM     27  C   UNL     1       8.014  10.463  17.492  0.00  0.00    +0.000 A 
BRANCH  22  33
ATOM     28  C   UNL     1       5.269   6.187  15.980  0.00  0.00    +0.000 C 
ATOM     29  C   UNL     1       6.344   6.452  16.997  0.00  0.00    +0.000 A 
ATOM     30  C   UNL     1       6.801   5.413  17.807  0.00  0.00    +0.000 A 
ATOM     31  C   UNL     1       7.789   5.677  18.764  0.00  0.00    +0.000 A 
ATOM     32  C   UNL     1       8.322   6.969  18.913  0.00  0.00    +0.000 A 
ATOM     33  C   UNL     1       7.897   8.040  18.126  0.00  0.00    +0.000 A 
ATOM     34  C   UNL     1       6.883   7.748  17.171  0.00  0.00    +0.000 A 
ENDBRANCH  22  33
ENDBRANCH   1  25
BRANCH   2  35
ATOM     35  C   UNL     1      10.389  16.472  17.314  0.00  0.00    +0.000 C 
BRANCH  35  36
ATOM     36  O   UNL     1      10.594  16.208  15.928  0.00  0.00    +0.000 OA
ATOM     37  H   UNL     1       9.734  15.922  15.574  0.00  0.00    +0.000 HD
ENDBRANCH  35  36
ENDBRANCH   2  35
TORSDOF 5
ENDMDL
MODEL 5
REMARK VINA RESULT:      -8.5      1.001      1.895
REMARK  Name = 
REMARK  6 active torsions:
REMARK  status: ('A' for Active; 'I' for Inactive)
REMARK    1  A    between atoms: C_1  and  C_2
REMARK    2  A    between atoms: C_6  and  C_7
REMARK    3  A    between atoms: C_10  and  C_11
REMARK    4  A    between atoms: C_12  and  C_13
REMARK    5  A    between atoms: C_13  and  O_14
REMARK    6  A    between atoms: C_21  and  C_23
REMARK                            x       y       z     vdW  Elec       q    Type
REMARK                         _______ _______ _______ _____ _____    ______ ____
ROOT
ATOM      1  C   UNL     1      -0.640  11.273  20.593  0.00  0.00    +0.000 C 
ATOM      2  C   UNL     1      -0.489  12.287  21.872  0.00  0.00    +0.000 C 
ATOM      3  N   UNL     1      -0.465  13.420  20.935  0.00  0.00    +0.000 NA
ATOM      4  C   UNL     1      -1.203  14.655  21.076  0.00  0.00    +0.000 C 
ATOM      5  C   UNL     1      -0.953  15.677  19.922  0.00  0.00    +0.000 C 
ATOM      6  C   UNL     1       0.511  16.085  19.652  0.00  0.00    +0.000 C 
ATOM      7  C   UNL     1       1.275  15.213  18.665  0.00  0.00    +0.000 C 
ATOM      8  N   UNL     1       1.418  13.847  19.104  0.00  0.00    +0.000 N 
ATOM      9  C   UNL     1       2.200  13.536  20.233  0.00  0.00    +0.000 C 
ATOM     10  O   UNL     1       2.004  12.523  20.887  0.00  0.00    +0.000 OA
ATOM     11  C   UNL     1       0.299  12.929  18.659  0.00  0.00    +0.000 C 
ATOM     12  C   UNL     1      -0.745  12.623  19.755  0.00  0.00    +0.000 C 
ENDROOT
BRANCH   9  13
ATOM     13  C   UNL     1       3.308  14.299  20.873  0.00  0.00    +0.000 A 
ATOM     14  C   UNL     1       3.251  15.001  22.086  0.00  0.00    +0.000 A 
ATOM     15  C   UNL     1       4.246  15.953  22.399  0.00  0.00    +0.000 A 
ATOM     16  C   UNL     1       5.232  16.227  21.464  0.00  0.00    +0.000 A 
ATOM     17  C   UNL     1       5.311  15.527  20.294  0.00  0.00    +0.000 A 
ATOM     18  C   UNL     1       4.404  14.546  19.998  0.00  0.00    +0.000 A 
ATOM     19  O   UNL     1       6.291  15.974  19.464  0.00  0.00    +0.000 OA
ATOM     20  C   UNL     1       6.656  17.184  20.149  0.00  0.00    +0.000 C 
ATOM     21  O   UNL     1       6.168  17.216  21.514  0.00  0.00    +0.000 OA
ENDBRANCH   9  13
BRANCH   1  25
ATOM     22  C   UNL     1       2.121   7.756  18.784  0.00  0.00    +0.000 A 
ATOM     23  C   UNL     1       1.814   7.896  20.153  0.00  0.00    +0.000 A 
ATOM     24  C   UNL     1       1.018   8.987  20.690  0.00  0.00    +0.000 A 
ATOM     25  C   UNL     1       0.480  10.034  19.906  0.00  0.00    +0.000 A 
ATOM     26  C   UNL     1       0.827   9.826  18.552  0.00  0.00    +0.000 A 
ATOM     27  C   UNL     1       1.572   8.752  18.003  0.00  0.00    +0.000 A 
BRANCH  22  33
ATOM     28  C   UNL     1       6.368   6.245  16.394  0.00  0.00    +0.000 C 
ATOM     29  C   UNL     1       5.028   5.923  16.993  0.00  0.00    +0.000 A 
ATOM     30  C   UNL     1       4.544   4.616  16.942  0.00  0.00    +0.000 A 
ATOM     31  C   UNL     1       3.285   4.332  17.488  0.00  0.00    +0.000 A 
ATOM     32  C   UNL     1       2.512   5.344  18.082  0.00  0.00    +0.000 A 
ATOM     33  C   UNL     1       2.954   6.665  18.158  0.00  0.00    +0.000 A 
ATOM     34  C   UNL     1       4.230   6.929  17.585  0.00  0.00    +0.000 A 
ENDBRANCH  22  33
ENDBRANCH   1  25
BRANCH   2  35
ATOM     35  C   UNL     1      -1.354  12.530  23.115  0.00  0.00    +0.000 C 
BRANCH  35  36
ATOM     36  O   UNL     1      -2.659  11.965  23.008  0.00  0.00    +0.000 OA
ATOM     37  H   UNL     1      -2.651  11.155  23.546  0.00  0.00    +0.000 HD
ENDBRANCH  35  36
ENDBRANCH   2  35
TORSDOF 5
ENDMDL
MODEL 6
REMARK VINA RESULT:      -8.5      4.576      7.939
REMARK  Name = 
REMARK  6 active torsions:
REMARK  status: ('A' for Active; 'I' for Inactive)
REMARK    1  A    between atoms: C_1  and  C_2
REMARK    2  A    between atoms: C_6  and  C_7
REMARK    3  A    between atoms: C_10  and  C_11
REMARK    4  A    between atoms: C_12  and  C_13
REMARK    5  A    between atoms: C_13  and  O_14
REMARK    6  A    between atoms: C_21  and  C_23
REMARK                            x       y       z     vdW  Elec       q    Type
REMARK                         _______ _______ _______ _____ _____    ______ ____
ROOT
ATOM      1  C   UNL     1      10.401  13.733  18.688  0.00  0.00    +0.000 C 
ATOM      2  C   UNL     1       9.873  15.237  18.306  0.00  0.00    +0.000 C 
ATOM      3  N   UNL     1       9.929  15.589  19.732  0.00  0.00    +0.000 NA
ATOM      4  C   UNL     1      10.484  16.803  20.286  0.00  0.00    +0.000 C 
ATOM      5  C   UNL     1      10.379  16.894  21.843  0.00  0.00    +0.000 C 
ATOM      6  C   UNL     1       8.973  16.750  22.460  0.00  0.00    +0.000 C 
ATOM      7  C   UNL     1       8.534  15.331  22.796  0.00  0.00    +0.000 C 
ATOM      8  N   UNL     1       8.446  14.473  21.640  0.00  0.00    +0.000 N 
ATOM      9  C   UNL     1       7.478  14.710  20.645  0.00  0.00    +0.000 C 
ATOM     10  O   UNL     1       7.637  14.326  19.495  0.00  0.00    +0.000 OA
ATOM     11  C   UNL     1       9.726  13.731  21.316  0.00  0.00    +0.000 C 
ATOM     12  C   UNL     1      10.538  14.340  20.154  0.00  0.00    +0.000 C 
ENDROOT
BRANCH   9  13
ATOM     13  C   UNL     1       6.185  15.445  20.719  0.00  0.00    +0.000 A 
ATOM     14  C   UNL     1       5.213  15.333  21.724  0.00  0.00    +0.000 A 
ATOM     15  C   UNL     1       3.905  15.813  21.498  0.00  0.00    +0.000 A 
ATOM     16  C   UNL     1       3.584  16.328  20.252  0.00  0.00    +0.000 A 
ATOM     17  C   UNL     1       4.531  16.468  19.279  0.00  0.00    +0.000 A 
ATOM     18  C   UNL     1       5.826  16.081  19.496  0.00  0.00    +0.000 A 
ATOM     19  O   UNL     1       4.029  16.921  18.099  0.00  0.00    +0.000 OA
ATOM     20  C   UNL     1       2.622  16.820  18.380  0.00  0.00    +0.000 C 
ATOM     21  O   UNL     1       2.349  16.683  19.797  0.00  0.00    +0.000 OA
ENDBRANCH   9  13
BRANCH   1  25
ATOM     22  C   UNL     1       8.396   9.373  18.200  0.00  0.00    +0.000 A 
ATOM     23  C   UNL     1       8.019  10.505  17.450  0.00  0.00    +0.000 A 
ATOM     24  C   UNL     1       8.600  11.824  17.639  0.00  0.00    +0.000 A 
ATOM     25  C   UNL     1       9.591  12.120  18.604  0.00  0.00    +0.000 A 
ATOM     26  C   UNL     1       9.917  10.942  19.312  0.00  0.00    +0.000 A 
ATOM     27  C   UNL     1       9.389   9.640  19.120  0.00  0.00    +0.000 A 
BRANCH  22  33
ATOM     28  C   UNL     1       5.153   6.095  16.014  0.00  0.00    +0.000 C 
ATOM     29  C   UNL     1       6.247   6.377  17.005  0.00  0.00    +0.000 A 
ATOM     30  C   UNL     1       6.715   5.353  17.829  0.00  0.00    +0.000 A 
ATOM     31  C   UNL     1       7.722   5.633  18.763  0.00  0.00    +0.000 A 
ATOM     32  C   UNL     1       8.262   6.925  18.875  0.00  0.00    +0.000 A 
ATOM     33  C   UNL     1       7.827   7.982  18.073  0.00  0.00    +0.000 A 
ATOM     34  C   UNL     1       6.795   7.674  17.143  0.00  0.00    +0.000 A 
ENDBRANCH  22  33
ENDBRANCH   1  25
BRANCH   2  35
ATOM     35  C   UNL     1      10.421  16.328  17.377  0.00  0.00    +0.000 C 
BRANCH  35  36
ATOM     36  O   UNL     1      11.516  15.883  16.578  0.00  0.00    +0.000 OA
ATOM     37  H   UNL     1      11.648  14.944  16.796  0.00  0.00    +0.000 HD
ENDBRANCH  35  36
ENDBRANCH   2  35
TORSDOF 5
ENDMDL
MODEL 7
REMARK VINA RESULT:      -8.4      1.629      2.186
REMARK  Name = 
REMARK  6 active torsions:
REMARK  status: ('A' for Active; 'I' for Inactive)
REMARK    1  A    between atoms: C_1  and  C_2
REMARK    2  A    between atoms: C_6  and  C_7
REMARK    3  A    between atoms: C_10  and  C_11
REMARK    4  A    between atoms: C_12  and  C_13
REMARK    5  A    between atoms: C_13  and  O_14
REMARK    6  A    between atoms: C_21  and  C_23
REMARK                            x       y       z     vdW  Elec       q    Type
REMARK                         _______ _______ _______ _____ _____    ______ ____
ROOT
ATOM      1  C   UNL     1      -0.184  12.375  19.205  0.00  0.00    +0.000 C 
ATOM      2  C   UNL     1      -0.470  13.572  20.287  0.00  0.00    +0.000 C 
ATOM      3  N   UNL     1       0.447  14.438  19.530  0.00  0.00    +0.000 NA
ATOM      4  C   UNL     1       0.208  15.815  19.164  0.00  0.00    +0.000 C 
ATOM      5  C   UNL     1       1.385  16.473  18.374  0.00  0.00    +0.000 C 
ATOM      6  C   UNL     1       2.777  16.446  19.039  0.00  0.00    +0.000 C 
ATOM      7  C   UNL     1       3.635  15.224  18.742  0.00  0.00    +0.000 C 
ATOM      8  N   UNL     1       3.052  13.991  19.211  0.00  0.00    +0.000 N 
ATOM      9  C   UNL     1       2.900  13.750  20.590  0.00  0.00    +0.000 C 
ATOM     10  O   UNL     1       2.052  12.979  21.014  0.00  0.00    +0.000 OA
ATOM     11  C   UNL     1       2.161  13.299  18.200  0.00  0.00    +0.000 C 
ATOM     12  C   UNL     1       0.650  13.497  18.443  0.00  0.00    +0.000 C 
ENDROOT
BRANCH   9  13
ATOM     13  C   UNL     1       3.620  14.341  21.752  0.00  0.00    +0.000 A 
ATOM     14  C   UNL     1       3.303  15.534  22.417  0.00  0.00    +0.000 A 
ATOM     15  C   UNL     1       4.254  16.147  23.261  0.00  0.00    +0.000 A 
ATOM     16  C   UNL     1       5.518  15.589  23.365  0.00  0.00    +0.000 A 
ATOM     17  C   UNL     1       5.826  14.413  22.745  0.00  0.00    +0.000 A 
ATOM     18  C   UNL     1       4.899  13.757  21.981  0.00  0.00    +0.000 A 
ATOM     19  O   UNL     1       7.128  14.049  22.893  0.00  0.00    +0.000 OA
ATOM     20  C   UNL     1       7.651  15.256  23.476  0.00  0.00    +0.000 C 
ATOM     21  O   UNL     1       6.607  16.120  23.990  0.00  0.00    +0.000 OA
ENDBRANCH   9  13
BRANCH   1  25
ATOM     22  C   UNL     1       1.774   7.988  19.634  0.00  0.00    +0.000 A 
ATOM     23  C   UNL     1       1.113   8.664  20.678  0.00  0.00    +0.000 A 
ATOM     24  C   UNL     1       0.568  10.005  20.549  0.00  0.00    +0.000 A 
ATOM     25  C   UNL     1       0.654  10.783  19.371  0.00  0.00    +0.000 A 
ATOM     26  C   UNL     1       1.325  10.042  18.372  0.00  0.00    +0.000 A 
ATOM     27  C   UNL     1       1.833   8.722  18.467  0.00  0.00    +0.000 A 
BRANCH  22  33
ATOM     28  C   UNL     1       1.834   3.262  21.558  0.00  0.00    +0.000 C 
ATOM     29  C   UNL     1       2.410   4.298  20.634  0.00  0.00    +0.000 A 
ATOM     30  C   UNL     1       3.527   3.988  19.859  0.00  0.00    +0.000 A 
ATOM     31  C   UNL     1       4.067   4.968  19.016  0.00  0.00    +0.000 A 
ATOM     32  C   UNL     1       3.498   6.251  18.944  0.00  0.00    +0.000 A 
ATOM     33  C   UNL     1       2.380   6.608  19.699  0.00  0.00    +0.000 A 
ATOM     34  C   UNL     1       1.860   5.598  20.557  0.00  0.00    +0.000 A 
ENDBRANCH  22  33
ENDBRANCH   1  25
BRANCH   2  35
ATOM     35  C   UNL     1      -1.753  14.279  20.743  0.00  0.00    +0.000 C 
BRANCH  35  36
ATOM     36  O   UNL     1      -2.920  13.803  20.077  0.00  0.00    +0.000 OA
ATOM     37  H   UNL     1      -3.159  12.966  20.512  0.00  0.00    +0.000 HD
ENDBRANCH  35  36
ENDBRANCH   2  35
TORSDOF 5
ENDMDL
MODEL 8
REMARK VINA RESULT:      -8.4      4.647      8.148
REMARK  Name = 
REMARK  6 active torsions:
REMARK  status: ('A' for Active; 'I' for Inactive)
REMARK    1  A    between atoms: C_1  and  C_2
REMARK    2  A    between atoms: C_6  and  C_7
REMARK    3  A    between atoms: C_10  and  C_11
REMARK    4  A    between atoms: C_12  and  C_13
REMARK    5  A    between atoms: C_13  and  O_14
REMARK    6  A    between atoms: C_21  and  C_23
REMARK                            x       y       z     vdW  Elec       q    Type
REMARK                         _______ _______ _______ _____ _____    ______ ____
ROOT
ATOM      1  C   UNL     1      -2.648  14.294  22.921  0.00  0.00    +0.000 C 
ATOM      2  C   UNL     1      -3.336  15.589  22.188  0.00  0.00    +0.000 C 
ATOM      3  N   UNL     1      -4.649  15.124  22.661  0.00  0.00    +0.000 NA
ATOM      4  C   UNL     1      -5.672  15.944  23.268  0.00  0.00    +0.000 C 
ATOM      5  C   UNL     1      -6.969  15.159  23.648  0.00  0.00    +0.000 C 
ATOM      6  C   UNL     1      -7.668  14.372  22.521  0.00  0.00    +0.000 C 
ATOM      7  C   UNL     1      -7.199  12.938  22.317  0.00  0.00    +0.000 C 
ATOM      8  N   UNL     1      -5.811  12.842  21.938  0.00  0.00    +0.000 N 
ATOM      9  C   UNL     1      -5.374  13.332  20.692  0.00  0.00    +0.000 C 
ATOM     10  O   UNL     1      -4.215  13.675  20.512  0.00  0.00    +0.000 OA
ATOM     11  C   UNL     1      -4.853  12.723  23.105  0.00  0.00    +0.000 C 
ATOM     12  C   UNL     1      -4.123  14.035  23.463  0.00  0.00    +0.000 C 
ENDROOT
BRANCH   9  13
ATOM     13  C   UNL     1      -6.135  13.575  19.435  0.00  0.00    +0.000 A 
ATOM     14  C   UNL     1      -6.286  12.686  18.361  0.00  0.00    +0.000 A 
ATOM     15  C   UNL     1      -6.728  13.162  17.107  0.00  0.00    +0.000 A 
ATOM     16  C   UNL     1      -6.943  14.521  16.942  0.00  0.00    +0.000 A 
ATOM     17  C   UNL     1      -6.827  15.388  17.990  0.00  0.00    +0.000 A 
ATOM     18  C   UNL     1      -6.473  14.944  19.236  0.00  0.00    +0.000 A 
ATOM     19  O   UNL     1      -7.001  16.690  17.635  0.00  0.00    +0.000 OA
ATOM     20  C   UNL     1      -7.002  16.552  16.204  0.00  0.00    +0.000 C 
ATOM     21  O   UNL     1      -7.209  15.181  15.780  0.00  0.00    +0.000 OA
ENDBRANCH   9  13
BRANCH   1  25
ATOM     22  C   UNL     1      -0.156  10.566  21.146  0.00  0.00    +0.000 A 
ATOM     23  C   UNL     1      -0.500  11.713  20.403  0.00  0.00    +0.000 A 
ATOM     24  C   UNL     1      -1.291  12.809  20.937  0.00  0.00    +0.000 A 
ATOM     25  C   UNL     1      -1.815  12.838  22.250  0.00  0.00    +0.000 A 
ATOM     26  C   UNL     1      -1.431  11.662  22.931  0.00  0.00    +0.000 A 
ATOM     27  C   UNL     1      -0.631  10.598  22.441  0.00  0.00    +0.000 A 
BRANCH  22  33
ATOM     28  C   UNL     1       2.673   8.319  17.542  0.00  0.00    +0.000 C 
ATOM     29  C   UNL     1       2.028   8.285  18.899  0.00  0.00    +0.000 A 
ATOM     30  C   UNL     1       2.145   7.143  19.692  0.00  0.00    +0.000 A 
ATOM     31  C   UNL     1       1.523   7.116  20.947  0.00  0.00    +0.000 A 
ATOM     32  C   UNL     1       0.788   8.220  21.412  0.00  0.00    +0.000 A 
ATOM     33  C   UNL     1       0.642   9.384  20.655  0.00  0.00    +0.000 A 
ATOM     34  C   UNL     1       1.273   9.380  19.379  0.00  0.00    +0.000 A 
ENDBRANCH  22  33
ENDBRANCH   1  25
BRANCH   2  35
ATOM     35  C   UNL     1      -3.126  17.101  22.334  0.00  0.00    +0.000 C 
BRANCH  35  36
ATOM     36  O   UNL     1      -2.276  17.445  23.427  0.00  0.00    +0.000 OA
ATOM     37  H   UNL     1      -2.842  17.460  24.218  0.00  0.00    +0.000 HD
ENDBRANCH  35  36
ENDBRANCH   2  35
TORSDOF 5
ENDMDL
MODEL 9
REMARK VINA RESULT:      -8.4      1.739      2.434
REMARK  Name = 
REMARK  6 active torsions:
REMARK  status: ('A' for Active; 'I' for Inactive)
REMARK    1  A    between atoms: C_1  and  C_2
REMARK    2  A    between atoms: C_6  and  C_7
REMARK    3  A    between atoms: C_10  and  C_11
REMARK    4  A    between atoms: C_12  and  C_13
REMARK    5  A    between atoms: C_13  and  O_14
REMARK    6  A    between atoms: C_21  and  C_23
REMARK                            x       y       z     vdW  Elec       q    Type
REMARK                         _______ _______ _______ _____ _____    ______ ____
ROOT
ATOM      1  C   UNL     1       0.086   8.976  20.648  0.00  0.00    +0.000 C 
ATOM      2  C   UNL     1      -0.007  10.182  21.754  0.00  0.00    +0.000 C 
ATOM      3  N   UNL     1      -0.629  11.035  20.730  0.00  0.00    +0.000 NA
ATOM      4  C   UNL     1      -1.793  11.871  20.914  0.00  0.00    +0.000 C 
ATOM      5  C   UNL     1      -2.203  12.675  19.639  0.00  0.00    +0.000 C 
ATOM      6  C   UNL     1      -1.126  13.580  19.004  0.00  0.00    +0.000 C 
ATOM      7  C   UNL     1      -0.234  12.923  17.959  0.00  0.00    +0.000 C 
ATOM      8  N   UNL     1       0.555  11.837  18.486  0.00  0.00    +0.000 N 
ATOM      9  C   UNL     1       1.569  12.082  19.432  0.00  0.00    +0.000 C 
ATOM     10  O   UNL     1       1.940  11.215  20.209  0.00  0.00    +0.000 OA
ATOM     11  C   UNL     1      -0.115  10.481  18.399  0.00  0.00    +0.000 C 
ATOM     12  C   UNL     1      -0.727   9.989  19.728  0.00  0.00    +0.000 C 
ENDROOT
BRANCH   9  13
ATOM     13  C   UNL     1       2.327  13.330  19.726  0.00  0.00    +0.000 A 
ATOM     14  C   UNL     1       3.220  13.990  18.869  0.00  0.00    +0.000 A 
ATOM     15  C   UNL     1       4.120  14.947  19.388  0.00  0.00    +0.000 A 
ATOM     16  C   UNL     1       4.149  15.169  20.756  0.00  0.00    +0.000 A 
ATOM     17  C   UNL     1       3.263  14.553  21.592  0.00  0.00    +0.000 A 
ATOM     18  C   UNL     1       2.329  13.677  21.107  0.00  0.00    +0.000 A 
ATOM     19  O   UNL     1       3.480  14.829  22.906  0.00  0.00    +0.000 OA
ATOM     20  C   UNL     1       4.750  15.496  22.806  0.00  0.00    +0.000 C 
ATOM     21  O   UNL     1       5.047  15.921  21.452  0.00  0.00    +0.000 OA
ENDBRANCH   9  13
BRANCH   1  25
ATOM     22  C   UNL     1       3.680   6.635  18.439  0.00  0.00    +0.000 A 
ATOM     23  C   UNL     1       3.187   6.303  19.717  0.00  0.00    +0.000 A 
ATOM     24  C   UNL     1       2.135   7.046  20.391  0.00  0.00    +0.000 A 
ATOM     25  C   UNL     1       1.502   8.188  19.848  0.00  0.00    +0.000 A 
ATOM     26  C   UNL     1       2.045   8.459  18.572  0.00  0.00    +0.000 A 
ATOM     27  C   UNL     1       3.046   7.727  17.883  0.00  0.00    +0.000 A 
BRANCH  22  33
ATOM     28  C   UNL     1       5.406   4.379  14.201  0.00  0.00    +0.000 C 
ATOM     29  C   UNL     1       5.627   4.827  15.619  0.00  0.00    +0.000 A 
ATOM     30  C   UNL     1       6.842   4.558  16.247  0.00  0.00    +0.000 A 
ATOM     31  C   UNL     1       7.029   4.963  17.576  0.00  0.00    +0.000 A 
ATOM     32  C   UNL     1       6.011   5.634  18.275  0.00  0.00    +0.000 A 
ATOM     33  C   UNL     1       4.779   5.926  17.688  0.00  0.00    +0.000 A 
ATOM     34  C   UNL     1       4.611   5.492  16.343  0.00  0.00    +0.000 A 
ENDBRANCH  22  33
ENDBRANCH   1  25
BRANCH   2  35
ATOM     35  C   UNL     1      -0.673  10.282  23.131  0.00  0.00    +0.000 C 
BRANCH  35  36
ATOM     36  O   UNL     1      -0.018   9.500  24.128  0.00  0.00    +0.000 OA
ATOM     37  H   UNL     1       0.444  10.130  24.708  0.00  0.00    +0.000 HD
ENDBRANCH  35  36
ENDBRANCH   2  35
TORSDOF 5
ENDMDL
