MODEL 1
REMARK VINA RESULT:      -7.7      0.000      0.000
REMARK  Name = 
REMARK  5 active torsions:
REMARK  status: ('A' for Active; 'I' for Inactive)
REMARK    1  A    between atoms: C_1  and  C_2
REMARK    2  A    between atoms: C_2  and  C_4
REMARK    3  A    between atoms: N_6  and  C_7
REMARK    4  A    between atoms: C_7  and  C_8
REMARK    5  A    between atoms: C_11  and  C_12
REMARK                            x       y       z     vdW  Elec       q    Type
REMARK                         _______ _______ _______ _____ _____    ______ ____
ROOT
ATOM      1  C   UNL     1       2.679   6.450  19.594  0.00  0.00    +0.000 A 
ATOM      2  C   UNL     1       3.947   6.334  19.048  0.00  0.00    +0.000 A 
ATOM      3  N   UNL     1       4.371   5.038  19.171  0.00  0.00    +0.000 N 
ATOM      4  C   UNL     1       3.360   4.265  19.705  0.00  0.00    +0.000 A 
ATOM      5  C   UNL     1       3.306   2.886  19.982  0.00  0.00    +0.000 A 
ATOM      6  C   UNL     1       2.147   2.366  20.557  0.00  0.00    +0.000 A 
ATOM      7  C   UNL     1       1.070   3.189  20.849  0.00  0.00    +0.000 A 
ATOM      8  C   UNL     1       1.130   4.562  20.573  0.00  0.00    +0.000 A 
ATOM      9  C   UNL     1       2.288   5.126  19.991  0.00  0.00    +0.000 A 
ENDROOT
BRANCH   1  11
ATOM     10  C   UNL     1       1.855   8.617  18.487  0.00  0.00    +0.000 C 
ATOM     11  C   UNL     1       1.983   7.736  19.700  0.00  0.00    +0.000 C 
ATOM     12  O   UNL     1       1.487   8.102  20.768  0.00  0.00    +0.000 OA
ENDBRANCH   1  11
BRANCH   3  13
ATOM     13  C   UNL     1       5.715   4.585  18.822  0.00  0.00    +0.000 C 
BRANCH  13  14
ATOM     14  C   UNL     1       5.881   4.544  17.319  0.00  0.00    +0.000 A 
ATOM     15  C   UNL     1       4.870   4.018  16.503  0.00  0.00    +0.000 A 
ATOM     16  C   UNL     1       5.084   3.837  15.135  0.00  0.00    +0.000 A 
ATOM     17  C   UNL     1       6.311   4.188  14.564  0.00  0.00    +0.000 A 
ATOM     18  C   UNL     1       7.305   4.763  15.359  0.00  0.00    +0.000 A 
ATOM     19  C   UNL     1       7.091   4.941  16.729  0.00  0.00    +0.000 A 
BRANCH  17  20
ATOM     20  C   UNL     1       6.559   3.922  13.178  0.00  0.00    +0.000 C 
ATOM     21  N   UNL     1       6.747   3.721  12.050  0.00  0.00    +0.000 NA
ENDBRANCH  17  20
ENDBRANCH  13  14
ENDBRANCH   3  13
TORSDOF 4
ENDMDL
MODEL 2
REMARK VINA RESULT:      -7.4      0.354      1.108
REMARK  Name = 
REMARK  5 active torsions:
REMARK  status: ('A' for Active; 'I' for Inactive)
REMARK    1  A    between atoms: C_1  and  C_2
REMARK    2  A    between atoms: C_2  and  C_4
REMARK    3  A    between atoms: N_6  and  C_7
REMARK    4  A    between atoms: C_7  and  C_8
REMARK    5  A    between atoms: C_11  and  C_12
REMARK                            x       y       z     vdW  Elec       q    Type
REMARK                         _______ _______ _______ _____ _____    ______ ____
ROOT
ATOM      1  C   UNL     1       2.673   6.663  19.329  0.00  0.00    +0.000 A 
ATOM      2  C   UNL     1       3.974   6.544  18.868  0.00  0.00    +0.000 A 
ATOM      3  N   UNL     1       4.441   5.291  19.160  0.00  0.00    +0.000 N 
ATOM      4  C   UNL     1       3.431   4.538  19.725  0.00  0.00    +0.000 A 
ATOM      5  C   UNL     1       3.417   3.198  20.155  0.00  0.00    +0.000 A 
ATOM      6  C   UNL     1       2.247   2.693  20.724  0.00  0.00    +0.000 A 
ATOM      7  C   UNL     1       1.124   3.494  20.862  0.00  0.00    +0.000 A 
ATOM      8  C   UNL     1       1.146   4.828  20.434  0.00  0.00    +0.000 A 
ATOM      9  C   UNL     1       2.312   5.375  19.853  0.00  0.00    +0.000 A 
ENDROOT
BRANCH   1  11
ATOM     10  C   UNL     1       1.799   8.634  17.931  0.00  0.00    +0.000 C 
ATOM     11  C   UNL     1       1.922   7.920  19.250  0.00  0.00    +0.000 C 
ATOM     12  O   UNL     1       1.376   8.396  20.248  0.00  0.00    +0.000 OA
ENDBRANCH   1  11
BRANCH   3  13
ATOM     13  C   UNL     1       5.820   4.864  18.936  0.00  0.00    +0.000 C 
BRANCH  13  14
ATOM     14  C   UNL     1       6.020   4.473  17.489  0.00  0.00    +0.000 A 
ATOM     15  C   UNL     1       7.157   4.895  16.786  0.00  0.00    +0.000 A 
ATOM     16  C   UNL     1       7.268   4.668  15.413  0.00  0.00    +0.000 A 
ATOM     17  C   UNL     1       6.244   4.008  14.726  0.00  0.00    +0.000 A 
ATOM     18  C   UNL     1       5.132   3.536  15.428  0.00  0.00    +0.000 A 
ATOM     19  C   UNL     1       5.021   3.767  16.801  0.00  0.00    +0.000 A 
BRANCH  17  20
ATOM     20  C   UNL     1       6.320   3.852  13.303  0.00  0.00    +0.000 C 
ATOM     21  N   UNL     1       6.375   3.745  12.149  0.00  0.00    +0.000 NA
ENDBRANCH  17  20
ENDBRANCH  13  14
ENDBRANCH   3  13
TORSDOF 4
ENDMDL
MODEL 3
REMARK VINA RESULT:      -7.4      2.996      6.780
REMARK  Name = 
REMARK  5 active torsions:
REMARK  status: ('A' for Active; 'I' for Inactive)
REMARK    1  A    between atoms: C_1  and  C_2
REMARK    2  A    between atoms: C_2  and  C_4
REMARK    3  A    between atoms: N_6  and  C_7
REMARK    4  A    between atoms: C_7  and  C_8
REMARK    5  A    between atoms: C_11  and  C_12
REMARK                            x       y       z     vdW  Elec       q    Type
REMARK                         _______ _______ _______ _____ _____    ______ ____
ROOT
ATOM      1  C   UNL     1       5.184   5.256  18.542  0.00  0.00    +0.000 A 
ATOM      2  C   UNL     1       4.607   6.494  18.313  0.00  0.00    +0.000 A 
ATOM      3  N   UNL     1       3.276   6.325  18.043  0.00  0.00    +0.000 N 
ATOM      4  C   UNL     1       2.936   4.995  18.185  0.00  0.00    +0.000 A 
ATOM      5  C   UNL     1       1.696   4.345  18.050  0.00  0.00    +0.000 A 
ATOM      6  C   UNL     1       1.645   2.961  18.227  0.00  0.00    +0.000 A 
ATOM      7  C   UNL     1       2.793   2.244  18.529  0.00  0.00    +0.000 A 
ATOM      8  C   UNL     1       4.025   2.897  18.661  0.00  0.00    +0.000 A 
ATOM      9  C   UNL     1       4.116   4.297  18.489  0.00  0.00    +0.000 A 
ENDROOT
BRANCH   1  11
ATOM     10  C   UNL     1       7.518   4.690  17.628  0.00  0.00    +0.000 C 
ATOM     11  C   UNL     1       6.623   5.089  18.770  0.00  0.00    +0.000 C 
ATOM     12  O   UNL     1       7.116   5.285  19.883  0.00  0.00    +0.000 OA
ENDBRANCH   1  11
BRANCH   3  13
ATOM     13  C   UNL     1       2.387   7.407  17.624  0.00  0.00    +0.000 C 
BRANCH  13  14
ATOM     14  C   UNL     1       1.927   8.203  18.825  0.00  0.00    +0.000 A 
ATOM     15  C   UNL     1       1.938   7.633  20.106  0.00  0.00    +0.000 A 
ATOM     16  C   UNL     1       1.371   8.308  21.188  0.00  0.00    +0.000 A 
ATOM     17  C   UNL     1       0.791   9.567  21.004  0.00  0.00    +0.000 A 
ATOM     18  C   UNL     1       0.824  10.166  19.742  0.00  0.00    +0.000 A 
ATOM     19  C   UNL     1       1.389   9.488  18.659  0.00  0.00    +0.000 A 
BRANCH  17  20
ATOM     20  C   UNL     1       0.133  10.221  22.097  0.00  0.00    +0.000 C 
ATOM     21  N   UNL     1      -0.397  10.733  22.993  0.00  0.00    +0.000 NA
ENDBRANCH  17  20
ENDBRANCH  13  14
ENDBRANCH   3  13
TORSDOF 4
ENDMDL
MODEL 4
REMARK VINA RESULT:      -7.4      3.258      6.814
REMARK  Name = 
REMARK  5 active torsions:
REMARK  status: ('A' for Active; 'I' for Inactive)
REMARK    1  A    between atoms: C_1  and  C_2
REMARK    2  A    between atoms: C_2  and  C_4
REMARK    3  A    between atoms: N_6  and  C_7
REMARK    4  A    between atoms: C_7  and  C_8
REMARK    5  A    between atoms: C_11  and  C_12
REMARK                            x       y       z     vdW  Elec       q    Type
REMARK                         _______ _______ _______ _____ _____    ______ ____
ROOT
ATOM      1  C   UNL     1       5.546   5.420  17.893  0.00  0.00    +0.000 A 
ATOM      2  C   UNL     1       5.005   6.694  17.830  0.00  0.00    +0.000 A 
ATOM      3  N   UNL     1       3.646   6.597  17.694  0.00  0.00    +0.000 N 
ATOM      4  C   UNL     1       3.264   5.273  17.764  0.00  0.00    +0.000 A 
ATOM      5  C   UNL     1       1.988   4.682  17.713  0.00  0.00    +0.000 A 
ATOM      6  C   UNL     1       1.893   3.291  17.780  0.00  0.00    +0.000 A 
ATOM      7  C   UNL     1       3.033   2.510  17.896  0.00  0.00    +0.000 A 
ATOM      8  C   UNL     1       4.301   3.104  17.944  0.00  0.00    +0.000 A 
ATOM      9  C   UNL     1       4.436   4.509  17.878  0.00  0.00    +0.000 A 
ENDROOT
BRANCH   1  11
ATOM     10  C   UNL     1       7.783   5.664  19.134  0.00  0.00    +0.000 C 
ATOM     11  C   UNL     1       6.992   5.183  17.947  0.00  0.00    +0.000 C 
ATOM     12  O   UNL     1       7.570   4.579  17.040  0.00  0.00    +0.000 OA
ENDBRANCH   1  11
BRANCH   3  13
ATOM     13  C   UNL     1       2.768   7.742  17.465  0.00  0.00    +0.000 C 
BRANCH  13  14
ATOM     14  C   UNL     1       2.053   8.119  18.744  0.00  0.00    +0.000 A 
ATOM     15  C   UNL     1       1.339   9.322  18.835  0.00  0.00    +0.000 A 
ATOM     16  C   UNL     1       0.811   9.744  20.057  0.00  0.00    +0.000 A 
ATOM     17  C   UNL     1       0.985   8.963  21.203  0.00  0.00    +0.000 A 
ATOM     18  C   UNL     1       1.648   7.737  21.111  0.00  0.00    +0.000 A 
ATOM     19  C   UNL     1       2.179   7.317  19.889  0.00  0.00    +0.000 A 
BRANCH  17  20
ATOM     20  C   UNL     1       0.518   9.439  22.472  0.00  0.00    +0.000 C 
ATOM     21  N   UNL     1       0.136   9.842  23.491  0.00  0.00    +0.000 NA
ENDBRANCH  17  20
ENDBRANCH  13  14
ENDBRANCH   3  13
TORSDOF 4
ENDMDL
MODEL 5
REMARK VINA RESULT:      -7.3      3.269      6.976
REMARK  Name = 
REMARK  5 active torsions:
REMARK  status: ('A' for Active; 'I' for Inactive)
REMARK    1  A    between atoms: C_1  and  C_2
REMARK    2  A    between atoms: C_2  and  C_4
REMARK    3  A    between atoms: N_6  and  C_7
REMARK    4  A    between atoms: C_7  and  C_8
REMARK    5  A    between atoms: C_11  and  C_12
REMARK                            x       y       z     vdW  Elec       q    Type
REMARK                         _______ _______ _______ _____ _____    ______ ____
ROOT
ATOM      1  C   UNL     1       5.384   6.047  17.663  0.00  0.00    +0.000 A 
ATOM      2  C   UNL     1       4.631   7.209  17.663  0.00  0.00    +0.000 A 
ATOM      3  N   UNL     1       3.302   6.882  17.645  0.00  0.00    +0.000 N 
ATOM      4  C   UNL     1       3.158   5.512  17.733  0.00  0.00    +0.000 A 
ATOM      5  C   UNL     1       2.001   4.712  17.788  0.00  0.00    +0.000 A 
ATOM      6  C   UNL     1       2.151   3.326  17.847  0.00  0.00    +0.000 A 
ATOM      7  C   UNL     1       3.413   2.750  17.853  0.00  0.00    +0.000 A 
ATOM      8  C   UNL     1       4.560   3.552  17.797  0.00  0.00    +0.000 A 
ATOM      9  C   UNL     1       4.449   4.959  17.736  0.00  0.00    +0.000 A 
ENDROOT
BRANCH   1  11
ATOM     10  C   UNL     1       7.661   5.668  18.792  0.00  0.00    +0.000 C 
ATOM     11  C   UNL     1       6.848   6.059  17.587  0.00  0.00    +0.000 C 
ATOM     12  O   UNL     1       7.427   6.371  16.544  0.00  0.00    +0.000 OA
ENDBRANCH   1  11
BRANCH   3  13
ATOM     13  C   UNL     1       2.224   7.859  17.508  0.00  0.00    +0.000 C 
BRANCH  13  14
ATOM     14  C   UNL     1       1.839   8.410  18.862  0.00  0.00    +0.000 A 
ATOM     15  C   UNL     1       1.966   7.623  20.016  0.00  0.00    +0.000 A 
ATOM     16  C   UNL     1       1.468   8.071  21.240  0.00  0.00    +0.000 A 
ATOM     17  C   UNL     1       0.842   9.318  21.329  0.00  0.00    +0.000 A 
ATOM     18  C   UNL     1       0.758  10.132  20.196  0.00  0.00    +0.000 A 
ATOM     19  C   UNL     1       1.255   9.681  18.971  0.00  0.00    +0.000 A 
BRANCH  17  20
ATOM     20  C   UNL     1       0.255   9.740  22.566  0.00  0.00    +0.000 C 
ATOM     21  N   UNL     1      -0.236  10.091  23.558  0.00  0.00    +0.000 NA
ENDBRANCH  17  20
ENDBRANCH  13  14
ENDBRANCH   3  13
TORSDOF 4
ENDMDL
MODEL 6
REMARK VINA RESULT:      -7.3      2.512      6.781
REMARK  Name = 
REMARK  5 active torsions:
REMARK  status: ('A' for Active; 'I' for Inactive)
REMARK    1  A    between atoms: C_1  and  C_2
REMARK    2  A    between atoms: C_2  and  C_4
REMARK    3  A    between atoms: N_6  and  C_7
REMARK    4  A    between atoms: C_7  and  C_8
REMARK    5  A    between atoms: C_11  and  C_12
REMARK                            x       y       z     vdW  Elec       q    Type
REMARK                         _______ _______ _______ _____ _____    ______ ____
ROOT
ATOM      1  C   UNL     1       6.581   5.403  18.082  0.00  0.00    +0.000 A 
ATOM      2  C   UNL     1       5.338   5.150  18.638  0.00  0.00    +0.000 A 
ATOM      3  N   UNL     1       4.479   4.746  17.651  0.00  0.00    +0.000 N 
ATOM      4  C   UNL     1       5.163   4.631  16.457  0.00  0.00    +0.000 A 
ATOM      5  C   UNL     1       4.726   4.219  15.185  0.00  0.00    +0.000 A 
ATOM      6  C   UNL     1       5.640   4.225  14.131  0.00  0.00    +0.000 A 
ATOM      7  C   UNL     1       6.951   4.627  14.334  0.00  0.00    +0.000 A 
ATOM      8  C   UNL     1       7.380   5.038  15.602  0.00  0.00    +0.000 A 
ATOM      9  C   UNL     1       6.483   5.047  16.694  0.00  0.00    +0.000 A 
ENDROOT
BRANCH   1  11
ATOM     10  C   UNL     1       8.226   7.318  18.562  0.00  0.00    +0.000 C 
ATOM     11  C   UNL     1       7.697   5.941  18.865  0.00  0.00    +0.000 C 
ATOM     12  O   UNL     1       8.202   5.289  19.782  0.00  0.00    +0.000 OA
ENDBRANCH   1  11
BRANCH   3  13
ATOM     13  C   UNL     1       3.050   4.523  17.856  0.00  0.00    +0.000 C 
BRANCH  13  14
ATOM     14  C   UNL     1       2.469   5.611  18.730  0.00  0.00    +0.000 A 
ATOM     15  C   UNL     1       2.476   6.948  18.306  0.00  0.00    +0.000 A 
ATOM     16  C   UNL     1       2.084   7.970  19.172  0.00  0.00    +0.000 A 
ATOM     17  C   UNL     1       1.671   7.667  20.473  0.00  0.00    +0.000 A 
ATOM     18  C   UNL     1       1.609   6.335  20.886  0.00  0.00    +0.000 A 
ATOM     19  C   UNL     1       2.004   5.312  20.020  0.00  0.00    +0.000 A 
BRANCH  17  20
ATOM     20  C   UNL     1       1.351   8.723  21.388  0.00  0.00    +0.000 C 
ATOM     21  N   UNL     1       1.112   9.582  22.131  0.00  0.00    +0.000 NA
ENDBRANCH  17  20
ENDBRANCH  13  14
ENDBRANCH   3  13
TORSDOF 4
ENDMDL
MODEL 7
REMARK VINA RESULT:      -7.1      2.868      6.595
REMARK  Name = 
REMARK  5 active torsions:
REMARK  status: ('A' for Active; 'I' for Inactive)
REMARK    1  A    between atoms: C_1  and  C_2
REMARK    2  A    between atoms: C_2  and  C_4
REMARK    3  A    between atoms: N_6  and  C_7
REMARK    4  A    between atoms: C_7  and  C_8
REMARK    5  A    between atoms: C_11  and  C_12
REMARK                            x       y       z     vdW  Elec       q    Type
REMARK                         _______ _______ _______ _____ _____    ______ ____
ROOT
ATOM      1  C   UNL     1       6.168   5.364  15.413  0.00  0.00    +0.000 A 
ATOM      2  C   UNL     1       4.973   6.056  15.518  0.00  0.00    +0.000 A 
ATOM      3  N   UNL     1       4.710   6.298  16.839  0.00  0.00    +0.000 N 
ATOM      4  C   UNL     1       5.767   5.861  17.613  0.00  0.00    +0.000 A 
ATOM      5  C   UNL     1       5.974   5.924  19.003  0.00  0.00    +0.000 A 
ATOM      6  C   UNL     1       7.142   5.369  19.529  0.00  0.00    +0.000 A 
ATOM      7  C   UNL     1       8.077   4.771  18.698  0.00  0.00    +0.000 A 
ATOM      8  C   UNL     1       7.864   4.711  17.315  0.00  0.00    +0.000 A 
ATOM      9  C   UNL     1       6.693   5.261  16.746  0.00  0.00    +0.000 A 
ENDROOT
BRANCH   1  11
ATOM     10  C   UNL     1       5.999   3.722  13.444  0.00  0.00    +0.000 C 
ATOM     11  C   UNL     1       6.682   4.874  14.130  0.00  0.00    +0.000 C 
ATOM     12  O   UNL     1       7.660   5.401  13.596  0.00  0.00    +0.000 OA
ENDBRANCH   1  11
BRANCH   3  13
ATOM     13  C   UNL     1       3.467   6.891  17.327  0.00  0.00    +0.000 C 
BRANCH  13  14
ATOM     14  C   UNL     1       2.801   5.970  18.325  0.00  0.00    +0.000 A 
ATOM     15  C   UNL     1       2.551   6.399  19.636  0.00  0.00    +0.000 A 
ATOM     16  C   UNL     1       2.081   5.504  20.599  0.00  0.00    +0.000 A 
ATOM     17  C   UNL     1       1.849   4.167  20.260  0.00  0.00    +0.000 A 
ATOM     18  C   UNL     1       2.044   3.743  18.943  0.00  0.00    +0.000 A 
ATOM     19  C   UNL     1       2.517   4.639  17.981  0.00  0.00    +0.000 A 
BRANCH  17  20
ATOM     20  C   UNL     1       1.450   3.231  21.269  0.00  0.00    +0.000 C 
ATOM     21  N   UNL     1       1.144   2.462  22.083  0.00  0.00    +0.000 NA
ENDBRANCH  17  20
ENDBRANCH  13  14
ENDBRANCH   3  13
TORSDOF 4
ENDMDL
MODEL 8
REMARK VINA RESULT:      -7.1      2.769      6.753
REMARK  Name = 
REMARK  5 active torsions:
REMARK  status: ('A' for Active; 'I' for Inactive)
REMARK    1  A    between atoms: C_1  and  C_2
REMARK    2  A    between atoms: C_2  and  C_4
REMARK    3  A    between atoms: N_6  and  C_7
REMARK    4  A    between atoms: C_7  and  C_8
REMARK    5  A    between atoms: C_11  and  C_12
REMARK                            x       y       z     vdW  Elec       q    Type
REMARK                         _______ _______ _______ _____ _____    ______ ____
ROOT
ATOM      1  C   UNL     1       5.868   4.695  15.613  0.00  0.00    +0.000 A 
ATOM      2  C   UNL     1       4.528   4.410  15.819  0.00  0.00    +0.000 A 
ATOM      3  N   UNL     1       4.265   4.439  17.162  0.00  0.00    +0.000 N 
ATOM      4  C   UNL     1       5.394   4.838  17.850  0.00  0.00    +0.000 A 
ATOM      5  C   UNL     1       5.603   5.050  19.225  0.00  0.00    +0.000 A 
ATOM      6  C   UNL     1       6.875   5.431  19.655  0.00  0.00    +0.000 A 
ATOM      7  C   UNL     1       7.908   5.598  18.746  0.00  0.00    +0.000 A 
ATOM      8  C   UNL     1       7.694   5.383  17.378  0.00  0.00    +0.000 A 
ATOM      9  C   UNL     1       6.420   4.996  16.905  0.00  0.00    +0.000 A 
ENDROOT
BRANCH   1  11
ATOM     10  C   UNL     1       5.933   3.725  13.235  0.00  0.00    +0.000 C 
ATOM     11  C   UNL     1       6.486   4.651  14.285  0.00  0.00    +0.000 C 
ATOM     12  O   UNL     1       7.446   5.374  14.007  0.00  0.00    +0.000 OA
ENDBRANCH   1  11
BRANCH   3  13
ATOM     13  C   UNL     1       2.983   4.056  17.749  0.00  0.00    +0.000 C 
BRANCH  13  14
ATOM     14  C   UNL     1       2.424   5.191  18.577  0.00  0.00    +0.000 A 
ATOM     15  C   UNL     1       2.434   6.505  18.087  0.00  0.00    +0.000 A 
ATOM     16  C   UNL     1       2.064   7.572  18.908  0.00  0.00    +0.000 A 
ATOM     17  C   UNL     1       1.671   7.337  20.229  0.00  0.00    +0.000 A 
ATOM     18  C   UNL     1       1.606   6.027  20.709  0.00  0.00    +0.000 A 
ATOM     19  C   UNL     1       1.980   4.960  19.888  0.00  0.00    +0.000 A 
BRANCH  17  20
ATOM     20  C   UNL     1       1.374   8.440  21.096  0.00  0.00    +0.000 C 
ATOM     21  N   UNL     1       1.115   9.331  21.792  0.00  0.00    +0.000 NA
ENDBRANCH  17  20
ENDBRANCH  13  14
ENDBRANCH   3  13
TORSDOF 4
ENDMDL
MODEL 9
REMARK VINA RESULT:      -7.0      2.718      6.699
REMARK  Name = 
REMARK  5 active torsions:
REMARK  status: ('A' for Active; 'I' for Inactive)
REMARK    1  A    between atoms: C_1  and  C_2
REMARK    2  A    between atoms: C_2  and  C_4
REMARK    3  A    between atoms: N_6  and  C_7
REMARK    4  A    between atoms: C_7  and  C_8
REMARK    5  A    between atoms: C_11  and  C_12
REMARK                            x       y       z     vdW  Elec       q    Type
REMARK                         _______ _______ _______ _____ _____    ______ ____
ROOT
ATOM      1  C   UNL     1       6.622   5.449  18.450  0.00  0.00    +0.000 A 
ATOM      2  C   UNL     1       5.385   5.410  19.072  0.00  0.00    +0.000 A 
ATOM      3  N   UNL     1       4.433   5.056  18.154  0.00  0.00    +0.000 N 
ATOM      4  C   UNL     1       5.035   4.762  16.947  0.00  0.00    +0.000 A 
ATOM      5  C   UNL     1       4.485   4.322  15.730  0.00  0.00    +0.000 A 
ATOM      6  C   UNL     1       5.339   4.125  14.644  0.00  0.00    +0.000 A 
ATOM      7  C   UNL     1       6.700   4.358  14.763  0.00  0.00    +0.000 A 
ATOM      8  C   UNL     1       7.242   4.799  15.978  0.00  0.00    +0.000 A 
ATOM      9  C   UNL     1       6.409   5.009  17.100  0.00  0.00    +0.000 A 
ENDROOT
BRANCH   1  11
ATOM     10  C   UNL     1       8.411   7.248  18.859  0.00  0.00    +0.000 C 
ATOM     11  C   UNL     1       7.837   5.886  19.145  0.00  0.00    +0.000 C 
ATOM     12  O   UNL     1       8.391   5.159  19.972  0.00  0.00    +0.000 OA
ENDBRANCH   1  11
BRANCH   3  13
ATOM     13  C   UNL     1       2.998   5.046  18.432  0.00  0.00    +0.000 C 
BRANCH  13  14
ATOM     14  C   UNL     1       2.538   6.420  18.865  0.00  0.00    +0.000 A 
ATOM     15  C   UNL     1       2.068   6.638  20.168  0.00  0.00    +0.000 A 
ATOM     16  C   UNL     1       1.499   7.862  20.523  0.00  0.00    +0.000 A 
ATOM     17  C   UNL     1       1.400   8.889  19.579  0.00  0.00    +0.000 A 
ATOM     18  C   UNL     1       1.914   8.700  18.294  0.00  0.00    +0.000 A 
ATOM     19  C   UNL     1       2.480   7.473  17.939  0.00  0.00    +0.000 A 
BRANCH  17  20
ATOM     20  C   UNL     1       0.738  10.114  19.919  0.00  0.00    +0.000 C 
ATOM     21  N   UNL     1       0.186  11.096  20.200  0.00  0.00    +0.000 NA
ENDBRANCH  17  20
ENDBRANCH  13  14
ENDBRANCH   3  13
TORSDOF 4
ENDMDL
