MODEL 1
REMARK VINA RESULT:      -7.3      0.000      0.000
REMARK  Name = 
REMARK  8 active torsions:
REMARK  status: ('A' for Active; 'I' for Inactive)
REMARK    1  A    between atoms: C_1  and  O_2
REMARK    2  A    between atoms: O_2  and  C_3
REMARK    3  A    between atoms: C_6  and  C_7
REMARK    4  A    between atoms: N_9  and  C_10
REMARK    5  A    between atoms: C_10  and  N_12
REMARK    6  A    between atoms: N_12  and  C_13
REMARK    7  A    between atoms: C_16  and  S_17
REMARK    8  A    between atoms: S_17  and  N_18
REMARK                            x       y       z     vdW  Elec       q    Type
REMARK                         _______ _______ _______ _____ _____    ______ ____
ROOT
ATOM      1  C   UNL     1       2.664   4.891  19.637  0.00  0.00    +0.000 C 
ATOM      2  S   UNL     1       1.598   3.768  20.250  0.00  0.00    +0.000 S 
ENDROOT
BRANCH   1   5
ATOM      3  C   UNL     1       4.874   5.018  18.459  0.00  0.00    +0.000 C 
ATOM      4  O   UNL     1       5.580   5.286  19.427  0.00  0.00    +0.000 OA
ATOM      5  N   UNL     1       3.518   4.745  18.551  0.00  0.00    +0.000 N 
ATOM      6  H   UNL     1       3.054   4.359  17.746  0.00  0.00    +0.000 HD
BRANCH   3  10
ATOM      7  C   UNL     1       6.545   4.456  14.514  0.00  0.00    +0.000 A 
ATOM      8  C   UNL     1       5.203   4.215  14.788  0.00  0.00    +0.000 A 
ATOM      9  C   UNL     1       4.695   4.418  16.071  0.00  0.00    +0.000 A 
ATOM     10  C   UNL     1       5.524   4.846  17.117  0.00  0.00    +0.000 A 
ATOM     11  C   UNL     1       6.880   5.082  16.840  0.00  0.00    +0.000 A 
ATOM     12  C   UNL     1       7.385   4.888  15.540  0.00  0.00    +0.000 A 
BRANCH   7  14
ATOM     13  C   UNL     1       6.012   3.426  12.449  0.00  0.00    +0.000 C 
ATOM     14  O   UNL     1       6.925   4.185  13.230  0.00  0.00    +0.000 OA
ENDBRANCH   7  14
ENDBRANCH   3  10
ENDBRANCH   1   5
BRANCH   1  15
ATOM     15  N   UNL     1       2.817   6.096  20.293  0.00  0.00    +0.000 N 
ATOM     16  H   UNL     1       3.196   6.035  21.234  0.00  0.00    +0.000 HD
BRANCH  15  17
ATOM     17  C   UNL     1       2.181   7.310  19.950  0.00  0.00    +0.000 A 
ATOM     18  C   UNL     1       2.260   7.851  18.658  0.00  0.00    +0.000 A 
ATOM     19  C   UNL     1       1.608   9.040  18.343  0.00  0.00    +0.000 A 
ATOM     20  C   UNL     1       0.853   9.681  19.321  0.00  0.00    +0.000 A 
ATOM     21  C   UNL     1       0.761   9.153  20.613  0.00  0.00    +0.000 A 
ATOM     22  C   UNL     1       1.408   7.951  20.919  0.00  0.00    +0.000 A 
BRANCH  20  23
ATOM     23  S   UNL     1       0.008  11.175  18.911  0.00  0.00    +0.000 S 
ATOM     24  O   UNL     1      -1.001  11.437  19.907  0.00  0.00    +0.000 OA
ATOM     25  O   UNL     1       0.974  12.167  18.501  0.00  0.00    +0.000 OA
BRANCH  23  26
ATOM     26  N   UNL     1      -0.810  10.712  17.521  0.00  0.00    +0.000 NA
ATOM     27  H   UNL     1      -0.165  10.308  16.846  0.00  0.00    +0.000 HD
ATOM     28  H   UNL     1      -1.601  10.113  17.753  0.00  0.00    +0.000 HD
ENDBRANCH  23  26
ENDBRANCH  20  23
ENDBRANCH  15  17
ENDBRANCH   1  15
TORSDOF 7
ENDMDL
MODEL 2
REMARK VINA RESULT:      -7.3      0.236      1.016
REMARK  Name = 
REMARK  8 active torsions:
REMARK  status: ('A' for Active; 'I' for Inactive)
REMARK    1  A    between atoms: C_1  and  O_2
REMARK    2  A    between atoms: O_2  and  C_3
REMARK    3  A    between atoms: C_6  and  C_7
REMARK    4  A    between atoms: N_9  and  C_10
REMARK    5  A    between atoms: C_10  and  N_12
REMARK    6  A    between atoms: N_12  and  C_13
REMARK    7  A    between atoms: C_16  and  S_17
REMARK    8  A    between atoms: S_17  and  N_18
REMARK                            x       y       z     vdW  Elec       q    Type
REMARK                         _______ _______ _______ _____ _____    ______ ____
ROOT
ATOM      1  C   UNL     1       2.641   5.073  19.383  0.00  0.00    +0.000 C 
ATOM      2  S   UNL     1       1.527   3.977  19.959  0.00  0.00    +0.000 S 
ENDROOT
BRANCH   1   5
ATOM      3  C   UNL     1       4.901   4.999  18.299  0.00  0.00    +0.000 C 
ATOM      4  O   UNL     1       5.589   5.071  19.312  0.00  0.00    +0.000 OA
ATOM      5  N   UNL     1       3.517   4.912  18.318  0.00  0.00    +0.000 N 
ATOM      6  H   UNL     1       3.043   4.673  17.463  0.00  0.00    +0.000 HD
BRANCH   3  10
ATOM      7  C   UNL     1       6.670   4.543  14.383  0.00  0.00    +0.000 A 
ATOM      8  C   UNL     1       5.324   4.280  14.621  0.00  0.00    +0.000 A 
ATOM      9  C   UNL     1       4.784   4.449  15.896  0.00  0.00    +0.000 A 
ATOM     10  C   UNL     1       5.584   4.864  16.970  0.00  0.00    +0.000 A 
ATOM     11  C   UNL     1       6.942   5.122  16.729  0.00  0.00    +0.000 A 
ATOM     12  C   UNL     1       7.480   4.963  15.438  0.00  0.00    +0.000 A 
BRANCH   7  14
ATOM     13  C   UNL     1       6.275   3.425  12.333  0.00  0.00    +0.000 C 
ATOM     14  O   UNL     1       7.082   4.306  13.103  0.00  0.00    +0.000 OA
ENDBRANCH   7  14
ENDBRANCH   3  10
ENDBRANCH   1   5
BRANCH   1  15
ATOM     15  N   UNL     1       2.812   6.268  20.055  0.00  0.00    +0.000 N 
ATOM     16  H   UNL     1       3.294   6.200  20.948  0.00  0.00    +0.000 HD
BRANCH  15  17
ATOM     17  C   UNL     1       2.092   7.459  19.819  0.00  0.00    +0.000 A 
ATOM     18  C   UNL     1       1.350   8.092  20.829  0.00  0.00    +0.000 A 
ATOM     19  C   UNL     1       0.665   9.276  20.573  0.00  0.00    +0.000 A 
ATOM     20  C   UNL     1       0.741   9.845  19.304  0.00  0.00    +0.000 A 
ATOM     21  C   UNL     1       1.479   9.230  18.288  0.00  0.00    +0.000 A 
ATOM     22  C   UNL     1       2.175   8.046  18.556  0.00  0.00    +0.000 A 
BRANCH  20  23
ATOM     23  S   UNL     1      -0.110  11.359  18.991  0.00  0.00    +0.000 S 
ATOM     24  O   UNL     1      -1.092  11.573  20.026  0.00  0.00    +0.000 OA
ATOM     25  O   UNL     1       0.847  12.368  18.605  0.00  0.00    +0.000 OA
BRANCH  23  26
ATOM     26  N   UNL     1      -0.966  10.967  17.603  0.00  0.00    +0.000 NA
ATOM     27  H   UNL     1      -1.834  11.495  17.559  0.00  0.00    +0.000 HD
ATOM     28  H   UNL     1      -0.376  11.064  16.777  0.00  0.00    +0.000 HD
ENDBRANCH  23  26
ENDBRANCH  20  23
ENDBRANCH  15  17
ENDBRANCH   1  15
TORSDOF 7
ENDMDL
MODEL 3
REMARK VINA RESULT:      -7.2      2.968      8.559
REMARK  Name = 
REMARK  8 active torsions:
REMARK  status: ('A' for Active; 'I' for Inactive)
REMARK    1  A    between atoms: C_1  and  O_2
REMARK    2  A    between atoms: O_2  and  C_3
REMARK    3  A    between atoms: C_6  and  C_7
REMARK    4  A    between atoms: N_9  and  C_10
REMARK    5  A    between atoms: C_10  and  N_12
REMARK    6  A    between atoms: N_12  and  C_13
REMARK    7  A    between atoms: C_16  and  S_17
REMARK    8  A    between atoms: S_17  and  N_18
REMARK                            x       y       z     vdW  Elec       q    Type
REMARK                         _______ _______ _______ _____ _____    ______ ____
ROOT
ATOM      1  C   UNL     1       1.788   5.035  20.571  0.00  0.00    +0.000 C 
ATOM      2  S   UNL     1       2.191   3.746  21.546  0.00  0.00    +0.000 S 
ENDROOT
BRANCH   1   5
ATOM      3  C   UNL     1       1.512   7.526  20.513  0.00  0.00    +0.000 C 
ATOM      4  O   UNL     1       2.235   7.766  19.551  0.00  0.00    +0.000 OA
ATOM      5  N   UNL     1       1.223   6.244  20.953  0.00  0.00    +0.000 N 
ATOM      6  H   UNL     1       0.484   6.126  21.626  0.00  0.00    +0.000 HD
BRANCH   3  10
ATOM      7  C   UNL     1      -0.527  10.924  22.235  0.00  0.00    +0.000 A 
ATOM      8  C   UNL     1      -0.026  10.944  20.937  0.00  0.00    +0.000 A 
ATOM      9  C   UNL     1       0.618   9.824  20.410  0.00  0.00    +0.000 A 
ATOM     10  C   UNL     1       0.794   8.664  21.177  0.00  0.00    +0.000 A 
ATOM     11  C   UNL     1       0.293   8.649  22.488  0.00  0.00    +0.000 A 
ATOM     12  C   UNL     1      -0.367   9.777  23.012  0.00  0.00    +0.000 A 
BRANCH   7  14
ATOM     13  C   UNL     1      -2.368  11.984  23.282  0.00  0.00    +0.000 C 
ATOM     14  O   UNL     1      -1.103  12.093  22.644  0.00  0.00    +0.000 OA
ENDBRANCH   7  14
ENDBRANCH   3  10
ENDBRANCH   1   5
BRANCH   1  15
ATOM     15  N   UNL     1       1.938   4.910  19.203  0.00  0.00    +0.000 N 
ATOM     16  H   UNL     1       1.117   4.582  18.703  0.00  0.00    +0.000 HD
BRANCH  15  17
ATOM     17  C   UNL     1       3.167   4.836  18.510  0.00  0.00    +0.000 A 
ATOM     18  C   UNL     1       3.300   4.124  17.308  0.00  0.00    +0.000 A 
ATOM     19  C   UNL     1       4.519   4.084  16.636  0.00  0.00    +0.000 A 
ATOM     20  C   UNL     1       5.606   4.779  17.158  0.00  0.00    +0.000 A 
ATOM     21  C   UNL     1       5.489   5.496  18.353  0.00  0.00    +0.000 A 
ATOM     22  C   UNL     1       4.258   5.543  19.016  0.00  0.00    +0.000 A 
BRANCH  20  23
ATOM     23  S   UNL     1       7.142   4.745  16.291  0.00  0.00    +0.000 S 
ATOM     24  O   UNL     1       8.147   4.141  17.131  0.00  0.00    +0.000 OA
ATOM     25  O   UNL     1       6.909   4.322  14.930  0.00  0.00    +0.000 OA
BRANCH  23  26
ATOM     26  N   UNL     1       7.509   6.380  16.219  0.00  0.00    +0.000 NA
ATOM     27  H   UNL     1       6.994   6.828  15.465  0.00  0.00    +0.000 HD
ATOM     28  H   UNL     1       7.379   6.818  17.131  0.00  0.00    +0.000 HD
ENDBRANCH  23  26
ENDBRANCH  20  23
ENDBRANCH  15  17
ENDBRANCH   1  15
TORSDOF 7
ENDMDL
MODEL 4
REMARK VINA RESULT:      -7.2      4.207      5.324
REMARK  Name = 
REMARK  8 active torsions:
REMARK  status: ('A' for Active; 'I' for Inactive)
REMARK    1  A    between atoms: C_1  and  O_2
REMARK    2  A    between atoms: O_2  and  C_3
REMARK    3  A    between atoms: C_6  and  C_7
REMARK    4  A    between atoms: N_9  and  C_10
REMARK    5  A    between atoms: C_10  and  N_12
REMARK    6  A    between atoms: N_12  and  C_13
REMARK    7  A    between atoms: C_16  and  S_17
REMARK    8  A    between atoms: S_17  and  N_18
REMARK                            x       y       z     vdW  Elec       q    Type
REMARK                         _______ _______ _______ _____ _____    ______ ____
ROOT
ATOM      1  C   UNL     1       6.945   6.881  17.524  0.00  0.00    +0.000 C 
ATOM      2  S   UNL     1       7.771   8.323  17.641  0.00  0.00    +0.000 S 
ENDROOT
BRANCH   1   5
ATOM      3  C   UNL     1       7.189   4.997  15.888  0.00  0.00    +0.000 C 
ATOM      4  O   UNL     1       7.962   4.296  16.534  0.00  0.00    +0.000 OA
ATOM      5  N   UNL     1       6.635   6.172  16.372  0.00  0.00    +0.000 N 
ATOM      6  H   UNL     1       5.876   6.588  15.857  0.00  0.00    +0.000 HD
BRANCH   3  10
ATOM      7  C   UNL     1       5.616   3.510  12.149  0.00  0.00    +0.000 A 
ATOM      8  C   UNL     1       4.891   3.439  13.335  0.00  0.00    +0.000 A 
ATOM      9  C   UNL     1       5.426   3.940  14.522  0.00  0.00    +0.000 A 
ATOM     10  C   UNL     1       6.710   4.504  14.554  0.00  0.00    +0.000 A 
ATOM     11  C   UNL     1       7.441   4.567  13.358  0.00  0.00    +0.000 A 
ATOM     12  C   UNL     1       6.892   4.073  12.160  0.00  0.00    +0.000 A 
BRANCH   7  14
ATOM     13  C   UNL     1       3.695   3.438  10.766  0.00  0.00    +0.000 C 
ATOM     14  O   UNL     1       4.996   2.953  11.066  0.00  0.00    +0.000 OA
ENDBRANCH   7  14
ENDBRANCH   3  10
ENDBRANCH   1   5
BRANCH   1  15
ATOM     15  N   UNL     1       6.415   6.321  18.670  0.00  0.00    +0.000 N 
ATOM     16  H   UNL     1       7.049   6.266  19.462  0.00  0.00    +0.000 HD
BRANCH  15  17
ATOM     17  C   UNL     1       5.257   5.514  18.736  0.00  0.00    +0.000 A 
ATOM     18  C   UNL     1       5.319   4.149  19.057  0.00  0.00    +0.000 A 
ATOM     19  C   UNL     1       4.159   3.383  19.133  0.00  0.00    +0.000 A 
ATOM     20  C   UNL     1       2.927   3.990  18.910  0.00  0.00    +0.000 A 
ATOM     21  C   UNL     1       2.847   5.350  18.594  0.00  0.00    +0.000 A 
ATOM     22  C   UNL     1       4.015   6.118  18.532  0.00  0.00    +0.000 A 
BRANCH  20  23
ATOM     23  S   UNL     1       1.458   3.020  19.032  0.00  0.00    +0.000 S 
ATOM     24  O   UNL     1       0.621   3.284  17.887  0.00  0.00    +0.000 OA
ATOM     25  O   UNL     1       1.807   1.684  19.450  0.00  0.00    +0.000 OA
BRANCH  23  26
ATOM     26  N   UNL     1       0.702   3.742  20.344  0.00  0.00    +0.000 NA
ATOM     27  H   UNL     1      -0.203   3.311  20.514  0.00  0.00    +0.000 HD
ATOM     28  H   UNL     1       1.320   3.751  21.155  0.00  0.00    +0.000 HD
ENDBRANCH  23  26
ENDBRANCH  20  23
ENDBRANCH  15  17
ENDBRANCH   1  15
TORSDOF 7
ENDMDL
MODEL 5
REMARK VINA RESULT:      -7.1      4.314      5.450
REMARK  Name = 
REMARK  8 active torsions:
REMARK  status: ('A' for Active; 'I' for Inactive)
REMARK    1  A    between atoms: C_1  and  O_2
REMARK    2  A    between atoms: O_2  and  C_3
REMARK    3  A    between atoms: C_6  and  C_7
REMARK    4  A    between atoms: N_9  and  C_10
REMARK    5  A    between atoms: C_10  and  N_12
REMARK    6  A    between atoms: N_12  and  C_13
REMARK    7  A    between atoms: C_16  and  S_17
REMARK    8  A    between atoms: S_17  and  N_18
REMARK                            x       y       z     vdW  Elec       q    Type
REMARK                         _______ _______ _______ _____ _____    ______ ____
ROOT
ATOM      1  C   UNL     1       6.539   7.083  17.282  0.00  0.00    +0.000 C 
ATOM      2  S   UNL     1       7.865   8.044  17.590  0.00  0.00    +0.000 S 
ENDROOT
BRANCH   1   5
ATOM      3  C   UNL     1       7.014   5.177  15.724  0.00  0.00    +0.000 C 
ATOM      4  O   UNL     1       7.887   4.620  16.382  0.00  0.00    +0.000 OA
ATOM      5  N   UNL     1       6.310   6.285  16.169  0.00  0.00    +0.000 N 
ATOM      6  H   UNL     1       5.492   6.569  15.655  0.00  0.00    +0.000 HD
BRANCH   3  10
ATOM      7  C   UNL     1       5.576   3.356  12.079  0.00  0.00    +0.000 A 
ATOM      8  C   UNL     1       4.785   3.447  13.221  0.00  0.00    +0.000 A 
ATOM      9  C   UNL     1       5.279   4.052  14.377  0.00  0.00    +0.000 A 
ATOM     10  C   UNL     1       6.584   4.561  14.425  0.00  0.00    +0.000 A 
ATOM     11  C   UNL     1       7.382   4.462  13.275  0.00  0.00    +0.000 A 
ATOM     12  C   UNL     1       6.875   3.862  12.106  0.00  0.00    +0.000 A 
BRANCH   7  14
ATOM     13  C   UNL     1       3.650   3.077  10.730  0.00  0.00    +0.000 C 
ATOM     14  O   UNL     1       4.990   2.711  11.028  0.00  0.00    +0.000 OA
ENDBRANCH   7  14
ENDBRANCH   3  10
ENDBRANCH   1   5
BRANCH   1  15
ATOM     15  N   UNL     1       5.477   7.108  18.165  0.00  0.00    +0.000 N 
ATOM     16  H   UNL     1       5.517   7.834  18.874  0.00  0.00    +0.000 HD
BRANCH  15  17
ATOM     17  C   UNL     1       4.576   6.046  18.403  0.00  0.00    +0.000 A 
ATOM     18  C   UNL     1       3.269   6.052  17.892  0.00  0.00    +0.000 A 
ATOM     19  C   UNL     1       2.408   4.983  18.127  0.00  0.00    +0.000 A 
ATOM     20  C   UNL     1       2.865   3.891  18.859  0.00  0.00    +0.000 A 
ATOM     21  C   UNL     1       4.165   3.868  19.372  0.00  0.00    +0.000 A 
ATOM     22  C   UNL     1       5.029   4.939  19.121  0.00  0.00    +0.000 A 
BRANCH  20  23
ATOM     23  S   UNL     1       1.778   2.528  19.133  0.00  0.00    +0.000 S 
ATOM     24  O   UNL     1       1.638   2.313  20.553  0.00  0.00    +0.000 OA
ATOM     25  O   UNL     1       0.644   2.641  18.248  0.00  0.00    +0.000 OA
BRANCH  23  26
ATOM     26  N   UNL     1       2.704   1.255  18.553  0.00  0.00    +0.000 NA
ATOM     27  H   UNL     1       3.634   1.579  18.298  0.00  0.00    +0.000 HD
ATOM     28  H   UNL     1       2.699   0.478  19.213  0.00  0.00    +0.000 HD
ENDBRANCH  23  26
ENDBRANCH  20  23
ENDBRANCH  15  17
ENDBRANCH   1  15
TORSDOF 7
ENDMDL
MODEL 6
REMARK VINA RESULT:      -7.1      2.896      8.711
REMARK  Name = 
REMARK  8 active torsions:
REMARK  status: ('A' for Active; 'I' for Inactive)
REMARK    1  A    between atoms: C_1  and  O_2
REMARK    2  A    between atoms: O_2  and  C_3
REMARK    3  A    between atoms: C_6  and  C_7
REMARK    4  A    between atoms: N_9  and  C_10
REMARK    5  A    between atoms: C_10  and  N_12
REMARK    6  A    between atoms: N_12  and  C_13
REMARK    7  A    between atoms: C_16  and  S_17
REMARK    8  A    between atoms: S_17  and  N_18
REMARK                            x       y       z     vdW  Elec       q    Type
REMARK                         _______ _______ _______ _____ _____    ______ ____
ROOT
ATOM      1  C   UNL     1       1.861   5.621  20.326  0.00  0.00    +0.000 C 
ATOM      2  S   UNL     1       2.398   4.334  21.237  0.00  0.00    +0.000 S 
ENDROOT
BRANCH   1   5
ATOM      3  C   UNL     1       1.491   8.100  20.337  0.00  0.00    +0.000 C 
ATOM      4  O   UNL     1       2.109   8.379  19.314  0.00  0.00    +0.000 OA
ATOM      5  N   UNL     1       1.292   6.802  20.781  0.00  0.00    +0.000 N 
ATOM      6  H   UNL     1       0.626   6.648  21.520  0.00  0.00    +0.000 HD
BRANCH   3  10
ATOM      7  C   UNL     1      -0.557  11.120  22.652  0.00  0.00    +0.000 A 
ATOM      8  C   UNL     1      -0.470   9.797  23.076  0.00  0.00    +0.000 A 
ATOM      9  C   UNL     1       0.209   8.851  22.308  0.00  0.00    +0.000 A 
ATOM     10  C   UNL     1       0.799   9.202  21.085  0.00  0.00    +0.000 A 
ATOM     11  C   UNL     1       0.704  10.535  20.657  0.00  0.00    +0.000 A 
ATOM     12  C   UNL     1       0.029  11.489  21.441  0.00  0.00    +0.000 A 
BRANCH   7  14
ATOM     13  C   UNL     1      -2.638  12.147  23.122  0.00  0.00    +0.000 C 
ATOM     14  O   UNL     1      -1.278  11.938  23.474  0.00  0.00    +0.000 OA
ENDBRANCH   7  14
ENDBRANCH   3  10
ENDBRANCH   1   5
BRANCH   1  15
ATOM     15  N   UNL     1       1.888   5.521  18.949  0.00  0.00    +0.000 N 
ATOM     16  H   UNL     1       0.993   5.327  18.509  0.00  0.00    +0.000 HD
BRANCH  15  17
ATOM     17  C   UNL     1       3.037   5.300  18.158  0.00  0.00    +0.000 A 
ATOM     18  C   UNL     1       3.294   4.062  17.551  0.00  0.00    +0.000 A 
ATOM     19  C   UNL     1       4.426   3.878  16.761  0.00  0.00    +0.000 A 
ATOM     20  C   UNL     1       5.295   4.947  16.559  0.00  0.00    +0.000 A 
ATOM     21  C   UNL     1       5.051   6.188  17.154  0.00  0.00    +0.000 A 
ATOM     22  C   UNL     1       3.905   6.370  17.935  0.00  0.00    +0.000 A 
BRANCH  20  23
ATOM     23  S   UNL     1       6.715   4.716  15.537  0.00  0.00    +0.000 S 
ATOM     24  O   UNL     1       6.720   5.719  14.501  0.00  0.00    +0.000 OA
ATOM     25  O   UNL     1       7.862   4.455  16.374  0.00  0.00    +0.000 OA
BRANCH  23  26
ATOM     26  N   UNL     1       6.340   3.264  14.786  0.00  0.00    +0.000 NA
ATOM     27  H   UNL     1       6.899   2.507  15.173  0.00  0.00    +0.000 HD
ATOM     28  H   UNL     1       5.335   3.095  14.811  0.00  0.00    +0.000 HD
ENDBRANCH  23  26
ENDBRANCH  20  23
ENDBRANCH  15  17
ENDBRANCH   1  15
TORSDOF 7
ENDMDL
MODEL 7
REMARK VINA RESULT:      -7.1      0.867      1.437
REMARK  Name = 
REMARK  8 active torsions:
REMARK  status: ('A' for Active; 'I' for Inactive)
REMARK    1  A    between atoms: C_1  and  O_2
REMARK    2  A    between atoms: O_2  and  C_3
REMARK    3  A    between atoms: C_6  and  C_7
REMARK    4  A    between atoms: N_9  and  C_10
REMARK    5  A    between atoms: C_10  and  N_12
REMARK    6  A    between atoms: N_12  and  C_13
REMARK    7  A    between atoms: C_16  and  S_17
REMARK    8  A    between atoms: S_17  and  N_18
REMARK                            x       y       z     vdW  Elec       q    Type
REMARK                         _______ _______ _______ _____ _____    ______ ____
ROOT
ATOM      1  C   UNL     1       2.897   4.464  19.562  0.00  0.00    +0.000 C 
ATOM      2  S   UNL     1       1.922   3.250  20.154  0.00  0.00    +0.000 S 
ENDROOT
BRANCH   1   5
ATOM      3  C   UNL     1       5.092   4.514  18.352  0.00  0.00    +0.000 C 
ATOM      4  O   UNL     1       5.837   4.470  19.326  0.00  0.00    +0.000 OA
ATOM      5  N   UNL     1       3.711   4.426  18.438  0.00  0.00    +0.000 N 
ATOM      6  H   UNL     1       3.188   4.286  17.589  0.00  0.00    +0.000 HD
BRANCH   3  10
ATOM      7  C   UNL     1       6.647   4.480  14.321  0.00  0.00    +0.000 A 
ATOM      8  C   UNL     1       5.362   4.038  14.620  0.00  0.00    +0.000 A 
ATOM      9  C   UNL     1       4.889   4.073  15.931  0.00  0.00    +0.000 A 
ATOM     10  C   UNL     1       5.699   4.533  16.980  0.00  0.00    +0.000 A 
ATOM     11  C   UNL     1       6.997   4.972  16.676  0.00  0.00    +0.000 A 
ATOM     12  C   UNL     1       7.466   4.947  15.349  0.00  0.00    +0.000 A 
BRANCH   7  14
ATOM     13  C   UNL     1       6.285   3.399  12.245  0.00  0.00    +0.000 C 
ATOM     14  O   UNL     1       7.002   4.360  13.007  0.00  0.00    +0.000 OA
ENDBRANCH   7  14
ENDBRANCH   3  10
ENDBRANCH   1   5
BRANCH   1  15
ATOM     15  N   UNL     1       3.008   5.640  20.278  0.00  0.00    +0.000 N 
ATOM     16  H   UNL     1       3.376   5.543  21.221  0.00  0.00    +0.000 HD
BRANCH  15  17
ATOM     17  C   UNL     1       2.347   6.853  19.983  0.00  0.00    +0.000 A 
ATOM     18  C   UNL     1       1.600   7.545  20.949  0.00  0.00    +0.000 A 
ATOM     19  C   UNL     1       0.974   8.749  20.636  0.00  0.00    +0.000 A 
ATOM     20  C   UNL     1       1.114   9.275  19.355  0.00  0.00    +0.000 A 
ATOM     21  C   UNL     1       1.858   8.599  18.382  0.00  0.00    +0.000 A 
ATOM     22  C   UNL     1       2.495   7.397  18.707  0.00  0.00    +0.000 A 
BRANCH  20  23
ATOM     23  S   UNL     1       0.339  10.812  18.970  0.00  0.00    +0.000 S 
ATOM     24  O   UNL     1       1.354  11.813  18.752  0.00  0.00    +0.000 OA
ATOM     25  O   UNL     1      -0.737  10.579  18.035  0.00  0.00    +0.000 OA
BRANCH  23  26
ATOM     26  N   UNL     1      -0.385  11.185  20.436  0.00  0.00    +0.000 NA
ATOM     27  H   UNL     1      -0.509  10.345  20.996  0.00  0.00    +0.000 HD
ATOM     28  H   UNL     1       0.126  11.930  20.909  0.00  0.00    +0.000 HD
ENDBRANCH  23  26
ENDBRANCH  20  23
ENDBRANCH  15  17
ENDBRANCH   1  15
TORSDOF 7
ENDMDL
MODEL 8
REMARK VINA RESULT:      -7.1      1.172      1.797
REMARK  Name = 
REMARK  8 active torsions:
REMARK  status: ('A' for Active; 'I' for Inactive)
REMARK    1  A    between atoms: C_1  and  O_2
REMARK    2  A    between atoms: O_2  and  C_3
REMARK    3  A    between atoms: C_6  and  C_7
REMARK    4  A    between atoms: N_9  and  C_10
REMARK    5  A    between atoms: C_10  and  N_12
REMARK    6  A    between atoms: N_12  and  C_13
REMARK    7  A    between atoms: C_16  and  S_17
REMARK    8  A    between atoms: S_17  and  N_18
REMARK                            x       y       z     vdW  Elec       q    Type
REMARK                         _______ _______ _______ _____ _____    ______ ____
ROOT
ATOM      1  C   UNL     1       2.279   4.767  19.877  0.00  0.00    +0.000 C 
ATOM      2  S   UNL     1       1.220   3.554  20.301  0.00  0.00    +0.000 S 
ENDROOT
BRANCH   1   5
ATOM      3  C   UNL     1       4.465   4.168  18.804  0.00  0.00    +0.000 C 
ATOM      4  O   UNL     1       4.878   3.389  19.659  0.00  0.00    +0.000 OA
ATOM      5  N   UNL     1       3.211   4.757  18.848  0.00  0.00    +0.000 N 
ATOM      6  H   UNL     1       2.880   5.234  18.025  0.00  0.00    +0.000 HD
BRANCH   3  10
ATOM      7  C   UNL     1       6.980   4.994  15.390  0.00  0.00    +0.000 A 
ATOM      8  C   UNL     1       7.154   5.643  16.609  0.00  0.00    +0.000 A 
ATOM      9  C   UNL     1       6.330   5.342  17.693  0.00  0.00    +0.000 A 
ATOM     10  C   UNL     1       5.297   4.401  17.578  0.00  0.00    +0.000 A 
ATOM     11  C   UNL     1       5.120   3.753  16.345  0.00  0.00    +0.000 A 
ATOM     12  C   UNL     1       5.962   4.050  15.257  0.00  0.00    +0.000 A 
BRANCH   7  14
ATOM     13  C   UNL     1       7.512   4.971  13.082  0.00  0.00    +0.000 C 
ATOM     14  O   UNL     1       7.827   5.403  14.399  0.00  0.00    +0.000 OA
ENDBRANCH   7  14
ENDBRANCH   3  10
ENDBRANCH   1   5
BRANCH   1  15
ATOM     15  N   UNL     1       2.337   5.906  20.655  0.00  0.00    +0.000 N 
ATOM     16  H   UNL     1       2.464   5.748  21.651  0.00  0.00    +0.000 HD
BRANCH  15  17
ATOM     17  C   UNL     1       1.884   7.190  20.277  0.00  0.00    +0.000 A 
ATOM     18  C   UNL     1       1.161   8.011  21.155  0.00  0.00    +0.000 A 
ATOM     19  C   UNL     1       0.744   9.280  20.762  0.00  0.00    +0.000 A 
ATOM     20  C   UNL     1       1.071   9.739  19.490  0.00  0.00    +0.000 A 
ATOM     21  C   UNL     1       1.795   8.935  18.604  0.00  0.00    +0.000 A 
ATOM     22  C   UNL     1       2.223   7.666  19.010  0.00  0.00    +0.000 A 
BRANCH  20  23
ATOM     23  S   UNL     1       0.561  11.357  19.004  0.00  0.00    +0.000 S 
ATOM     24  O   UNL     1      -0.667  11.260  18.252  0.00  0.00    +0.000 OA
ATOM     25  O   UNL     1       0.722  12.259  20.119  0.00  0.00    +0.000 OA
BRANCH  23  26
ATOM     26  N   UNL     1       1.759  11.756  17.899  0.00  0.00    +0.000 NA
ATOM     27  H   UNL     1       2.502  12.281  18.355  0.00  0.00    +0.000 HD
ATOM     28  H   UNL     1       2.079  10.926  17.402  0.00  0.00    +0.000 HD
ENDBRANCH  23  26
ENDBRANCH  20  23
ENDBRANCH  15  17
ENDBRANCH   1  15
TORSDOF 7
ENDMDL
MODEL 9
REMARK VINA RESULT:      -7.0      1.184      1.204
REMARK  Name = 
REMARK  8 active torsions:
REMARK  status: ('A' for Active; 'I' for Inactive)
REMARK    1  A    between atoms: C_1  and  O_2
REMARK    2  A    between atoms: O_2  and  C_3
REMARK    3  A    between atoms: C_6  and  C_7
REMARK    4  A    between atoms: N_9  and  C_10
REMARK    5  A    between atoms: C_10  and  N_12
REMARK    6  A    between atoms: N_12  and  C_13
REMARK    7  A    between atoms: C_16  and  S_17
REMARK    8  A    between atoms: S_17  and  N_18
REMARK                            x       y       z     vdW  Elec       q    Type
REMARK                         _______ _______ _______ _____ _____    ______ ____
ROOT
ATOM      1  C   UNL     1       2.418   4.421  20.283  0.00  0.00    +0.000 C 
ATOM      2  S   UNL     1       1.550   3.095  20.796  0.00  0.00    +0.000 S 
ENDROOT
BRANCH   1   5
ATOM      3  C   UNL     1       4.536   3.873  19.057  0.00  0.00    +0.000 C 
ATOM      4  O   UNL     1       4.956   2.996  19.806  0.00  0.00    +0.000 OA
ATOM      5  N   UNL     1       3.307   4.493  19.218  0.00  0.00    +0.000 N 
ATOM      6  H   UNL     1       2.959   5.065  18.466  0.00  0.00    +0.000 HD
BRANCH   3  10
ATOM      7  C   UNL     1       6.622   4.806  15.390  0.00  0.00    +0.000 A 
ATOM      8  C   UNL     1       5.278   4.448  15.404  0.00  0.00    +0.000 A 
ATOM      9  C   UNL     1       4.633   4.164  16.608  0.00  0.00    +0.000 A 
ATOM     10  C   UNL     1       5.325   4.211  17.827  0.00  0.00    +0.000 A 
ATOM     11  C   UNL     1       6.683   4.566  17.809  0.00  0.00    +0.000 A 
ATOM     12  C   UNL     1       7.326   4.864  16.593  0.00  0.00    +0.000 A 
BRANCH   7  14
ATOM     13  C   UNL     1       6.706   4.147  13.117  0.00  0.00    +0.000 C 
ATOM     14  O   UNL     1       7.144   5.023  14.147  0.00  0.00    +0.000 OA
ENDBRANCH   7  14
ENDBRANCH   3  10
ENDBRANCH   1   5
BRANCH   1  15
ATOM     15  N   UNL     1       2.346   5.591  21.014  0.00  0.00    +0.000 N 
ATOM     16  H   UNL     1       2.288   5.472  22.022  0.00  0.00    +0.000 HD
BRANCH  15  17
ATOM     17  C   UNL     1       1.983   6.859  20.510  0.00  0.00    +0.000 A 
ATOM     18  C   UNL     1       2.335   7.273  19.216  0.00  0.00    +0.000 A 
ATOM     19  C   UNL     1       1.949   8.522  18.738  0.00  0.00    +0.000 A 
ATOM     20  C   UNL     1       1.185   9.355  19.551  0.00  0.00    +0.000 A 
ATOM     21  C   UNL     1       0.822   8.956  20.842  0.00  0.00    +0.000 A 
ATOM     22  C   UNL     1       1.203   7.694  21.311  0.00  0.00    +0.000 A 
BRANCH  20  23
ATOM     23  S   UNL     1       0.677  10.927  18.933  0.00  0.00    +0.000 S 
ATOM     24  O   UNL     1      -0.553  10.770  18.196  0.00  0.00    +0.000 OA
ATOM     25  O   UNL     1       0.843  11.919  19.968  0.00  0.00    +0.000 OA
BRANCH  23  26
ATOM     26  N   UNL     1       1.872  11.229  17.796  0.00  0.00    +0.000 NA
ATOM     27  H   UNL     1       1.474  11.260  16.860  0.00  0.00    +0.000 HD
ATOM     28  H   UNL     1       2.408  12.058  18.049  0.00  0.00    +0.000 HD
ENDBRANCH  23  26
ENDBRANCH  20  23
ENDBRANCH  15  17
ENDBRANCH   1  15
TORSDOF 7
ENDMDL
