MODEL 1
REMARK VINA RESULT:      -8.9      0.000      0.000
REMARK  Name = 
REMARK  7 active torsions:
REMARK  status: ('A' for Active; 'I' for Inactive)
REMARK    1  A    between atoms: C_1  and  C_2
REMARK    2  A    between atoms: C_2  and  C_3
REMARK    3  A    between atoms: C_16  and  C_17
REMARK    4  A    between atoms: N_19  and  C_20
REMARK    5  A    between atoms: C_20  and  C_21
REMARK    6  A    between atoms: C_27  and  C_28
REMARK    7  A    between atoms: C_28  and  O_29
REMARK                            x       y       z     vdW  Elec       q    Type
REMARK                         _______ _______ _______ _____ _____    ______ ____
ROOT
ATOM      1  C   UNL     1       2.401   6.504  18.959  0.00  0.00    +0.000 C 
ATOM      2  O   UNL     1       1.880   6.252  20.044  0.00  0.00    +0.000 OA
ATOM      3  N   UNL     1       3.333   5.666  18.391  0.00  0.00    +0.000 N 
ATOM      4  C   UNL     1       3.823   4.434  19.001  0.00  0.00    +0.000 C 
ATOM      5  C   UNL     1       5.162   4.728  19.708  0.00  0.00    +0.000 C 
ATOM      6  N   UNL     1       6.044   5.630  18.943  0.00  0.00    +0.000 N 
ATOM      7  C   UNL     1       5.571   6.284  17.801  0.00  0.00    +0.000 A 
ATOM      8  C   UNL     1       6.369   7.136  17.140  0.00  0.00    +0.000 A 
ATOM      9  C   UNL     1       7.728   7.340  17.565  0.00  0.00    +0.000 A 
ATOM     10  C   UNL     1       8.212   6.702  18.636  0.00  0.00    +0.000 A 
ATOM     11  C   UNL     1       7.339   5.792  19.419  0.00  0.00    +0.000 A 
ATOM     12  O   UNL     1       7.796   5.230  20.417  0.00  0.00    +0.000 OA
ATOM     13  C   UNL     1       4.199   5.910  17.250  0.00  0.00    +0.000 C 
ATOM     14  C   UNL     1       4.252   4.530  16.579  0.00  0.00    +0.000 C 
ATOM     15  C   UNL     1       4.088   3.532  17.766  0.00  0.00    +0.000 C 
ENDROOT
BRANCH  14  16
ATOM     16  C   UNL     1       5.511   4.251  15.765  0.00  0.00    +0.000 C 
ATOM     17  O   UNL     1       6.463   3.612  16.197  0.00  0.00    +0.000 OA
ATOM     18  N   UNL     1       5.497   4.803  14.505  0.00  0.00    +0.000 N 
ATOM     19  H   UNL     1       4.648   5.209  14.138  0.00  0.00    +0.000 HD
BRANCH  18  20
ATOM     20  C   UNL     1       6.624   4.703  13.603  0.00  0.00    +0.000 C 
BRANCH  20  21
ATOM     21  C   UNL     1       6.392   3.601  12.604  0.00  0.00    +0.000 A 
ATOM     22  C   UNL     1       7.478   2.950  12.003  0.00  0.00    +0.000 A 
ATOM     23  C   UNL     1       7.267   1.882  11.131  0.00  0.00    +0.000 A 
ATOM     24  C   UNL     1       5.969   1.525  10.768  0.00  0.00    +0.000 A 
ATOM     25  C   UNL     1       4.882   2.209  11.309  0.00  0.00    +0.000 A 
ATOM     26  C   UNL     1       5.091   3.219  12.249  0.00  0.00    +0.000 A 
ENDBRANCH  20  21
ENDBRANCH  18  20
ENDBRANCH  14  16
BRANCH   1  28
ATOM     27  C   UNL     1       1.718   8.964  18.942  0.00  0.00    +0.000 C 
ATOM     28  C   UNL     1       1.984   7.706  18.117  0.00  0.00    +0.000 C 
ENDBRANCH   1  28
BRANCH  15  29
ATOM     29  C   UNL     1       2.935   2.575  17.472  0.00  0.00    +0.000 C 
BRANCH  29  30
ATOM     30  O   UNL     1       3.096   1.338  18.153  0.00  0.00    +0.000 OA
ATOM     31  H   UNL     1       3.955   1.360  18.614  0.00  0.00    +0.000 HD
ENDBRANCH  29  30
ENDBRANCH  15  29
TORSDOF 6
ENDMDL
MODEL 2
REMARK VINA RESULT:      -8.5      2.439      6.321
REMARK  Name = 
REMARK  7 active torsions:
REMARK  status: ('A' for Active; 'I' for Inactive)
REMARK    1  A    between atoms: C_1  and  C_2
REMARK    2  A    between atoms: C_2  and  C_3
REMARK    3  A    between atoms: C_16  and  C_17
REMARK    4  A    between atoms: N_19  and  C_20
REMARK    5  A    between atoms: C_20  and  C_21
REMARK    6  A    between atoms: C_27  and  C_28
REMARK    7  A    between atoms: C_28  and  O_29
REMARK                            x       y       z     vdW  Elec       q    Type
REMARK                         _______ _______ _______ _____ _____    ______ ____
ROOT
ATOM      1  C   UNL     1       7.516   7.237  17.710  0.00  0.00    +0.000 C 
ATOM      2  O   UNL     1       7.888   8.240  17.103  0.00  0.00    +0.000 OA
ATOM      3  N   UNL     1       6.461   6.473  17.268  0.00  0.00    +0.000 N 
ATOM      4  C   UNL     1       5.661   6.767  16.082  0.00  0.00    +0.000 C 
ATOM      5  C   UNL     1       4.378   7.503  16.518  0.00  0.00    +0.000 C 
ATOM      6  N   UNL     1       3.780   6.959  17.753  0.00  0.00    +0.000 N 
ATOM      7  C   UNL     1       4.469   6.011  18.517  0.00  0.00    +0.000 A 
ATOM      8  C   UNL     1       3.934   5.558  19.660  0.00  0.00    +0.000 A 
ATOM      9  C   UNL     1       2.630   5.997  20.079  0.00  0.00    +0.000 A 
ATOM     10  C   UNL     1       1.940   6.880  19.349  0.00  0.00    +0.000 A 
ATOM     11  C   UNL     1       2.525   7.439  18.105  0.00  0.00    +0.000 A 
ATOM     12  O   UNL     1       1.883   8.269  17.457  0.00  0.00    +0.000 OA
ATOM     13  C   UNL     1       5.756   5.408  17.961  0.00  0.00    +0.000 C 
ATOM     14  C   UNL     1       5.438   4.430  16.822  0.00  0.00    +0.000 C 
ATOM     15  C   UNL     1       5.287   5.350  15.571  0.00  0.00    +0.000 C 
ENDROOT
BRANCH  14  16
ATOM     16  C   UNL     1       4.210   3.553  17.041  0.00  0.00    +0.000 C 
ATOM     17  O   UNL     1       3.104   3.820  16.585  0.00  0.00    +0.000 OA
ATOM     18  N   UNL     1       4.444   2.444  17.821  0.00  0.00    +0.000 N 
ATOM     19  H   UNL     1       5.390   2.189  18.069  0.00  0.00    +0.000 HD
BRANCH  18  20
ATOM     20  C   UNL     1       3.392   1.524  18.195  0.00  0.00    +0.000 C 
BRANCH  20  21
ATOM     21  C   UNL     1       2.616   2.072  19.364  0.00  0.00    +0.000 A 
ATOM     22  C   UNL     1       3.204   2.137  20.634  0.00  0.00    +0.000 A 
ATOM     23  C   UNL     1       2.513   2.709  21.703  0.00  0.00    +0.000 A 
ATOM     24  C   UNL     1       1.192   3.120  21.539  0.00  0.00    +0.000 A 
ATOM     25  C   UNL     1       0.574   2.998  20.295  0.00  0.00    +0.000 A 
ATOM     26  C   UNL     1       1.294   2.508  19.204  0.00  0.00    +0.000 A 
ENDBRANCH  20  21
ENDBRANCH  18  20
ENDBRANCH  14  16
BRANCH   1  28
ATOM     27  C   UNL     1       8.279   5.184  19.022  0.00  0.00    +0.000 C 
ATOM     28  C   UNL     1       8.253   6.709  18.937  0.00  0.00    +0.000 C 
ENDBRANCH   1  28
BRANCH  15  29
ATOM     29  C   UNL     1       6.211   4.856  14.460  0.00  0.00    +0.000 C 
BRANCH  29  30
ATOM     30  O   UNL     1       7.554   5.268  14.676  0.00  0.00    +0.000 OA
ATOM     31  H   UNL     1       7.644   6.180  14.344  0.00  0.00    +0.000 HD
ENDBRANCH  29  30
ENDBRANCH  15  29
TORSDOF 6
ENDMDL
MODEL 3
REMARK VINA RESULT:      -7.7      2.141      6.896
REMARK  Name = 
REMARK  7 active torsions:
REMARK  status: ('A' for Active; 'I' for Inactive)
REMARK    1  A    between atoms: C_1  and  C_2
REMARK    2  A    between atoms: C_2  and  C_3
REMARK    3  A    between atoms: C_16  and  C_17
REMARK    4  A    between atoms: N_19  and  C_20
REMARK    5  A    between atoms: C_20  and  C_21
REMARK    6  A    between atoms: C_27  and  C_28
REMARK    7  A    between atoms: C_28  and  O_29
REMARK                            x       y       z     vdW  Elec       q    Type
REMARK                         _______ _______ _______ _____ _____    ______ ____
ROOT
ATOM      1  C   UNL     1       6.816   4.843  14.943  0.00  0.00    +0.000 C 
ATOM      2  O   UNL     1       8.021   4.606  15.017  0.00  0.00    +0.000 OA
ATOM      3  N   UNL     1       6.096   5.282  16.029  0.00  0.00    +0.000 N 
ATOM      4  C   UNL     1       6.649   5.486  17.365  0.00  0.00    +0.000 C 
ATOM      5  C   UNL     1       6.348   4.239  18.222  0.00  0.00    +0.000 C 
ATOM      6  N   UNL     1       4.995   3.692  18.008  0.00  0.00    +0.000 N 
ATOM      7  C   UNL     1       4.192   4.173  16.968  0.00  0.00    +0.000 A 
ATOM      8  C   UNL     1       2.981   3.635  16.757  0.00  0.00    +0.000 A 
ATOM      9  C   UNL     1       2.478   2.607  17.626  0.00  0.00    +0.000 A 
ATOM     10  C   UNL     1       3.215   2.153  18.645  0.00  0.00    +0.000 A 
ATOM     11  C   UNL     1       4.579   2.690  18.876  0.00  0.00    +0.000 A 
ATOM     12  O   UNL     1       5.254   2.243  19.806  0.00  0.00    +0.000 OA
ATOM     13  C   UNL     1       4.656   5.394  16.181  0.00  0.00    +0.000 C 
ATOM     14  C   UNL     1       4.513   6.663  17.033  0.00  0.00    +0.000 C 
ATOM     15  C   UNL     1       5.813   6.681  17.895  0.00  0.00    +0.000 C 
ENDROOT
BRANCH  14  16
ATOM     16  C   UNL     1       3.254   6.733  17.891  0.00  0.00    +0.000 C 
ATOM     17  O   UNL     1       2.153   7.032  17.443  0.00  0.00    +0.000 OA
ATOM     18  N   UNL     1       3.465   6.454  19.221  0.00  0.00    +0.000 N 
ATOM     19  H   UNL     1       4.355   6.085  19.527  0.00  0.00    +0.000 HD
BRANCH  18  20
ATOM     20  C   UNL     1       2.407   6.529  20.205  0.00  0.00    +0.000 C 
BRANCH  20  21
ATOM     21  C   UNL     1       1.976   5.143  20.607  0.00  0.00    +0.000 A 
ATOM     22  C   UNL     1       0.822   4.572  20.052  0.00  0.00    +0.000 A 
ATOM     23  C   UNL     1       0.459   3.263  20.369  0.00  0.00    +0.000 A 
ATOM     24  C   UNL     1       1.182   2.552  21.325  0.00  0.00    +0.000 A 
ATOM     25  C   UNL     1       2.293   3.134  21.934  0.00  0.00    +0.000 A 
ATOM     26  C   UNL     1       2.708   4.411  21.552  0.00  0.00    +0.000 A 
ENDBRANCH  20  21
ENDBRANCH  18  20
ENDBRANCH  14  16
BRANCH   1  28
ATOM     27  C   UNL     1       6.039   3.362  13.013  0.00  0.00    +0.000 C 
ATOM     28  C   UNL     1       6.051   4.762  13.625  0.00  0.00    +0.000 C 
ENDBRANCH   1  28
BRANCH  15  29
ATOM     29  C   UNL     1       6.521   8.023  17.723  0.00  0.00    +0.000 C 
BRANCH  29  30
ATOM     30  O   UNL     1       7.751   7.879  17.026  0.00  0.00    +0.000 OA
ATOM     31  H   UNL     1       7.696   8.409  16.209  0.00  0.00    +0.000 HD
ENDBRANCH  29  30
ENDBRANCH  15  29
TORSDOF 6
ENDMDL
MODEL 4
REMARK VINA RESULT:      -7.3      1.171      1.208
REMARK  Name = 
REMARK  7 active torsions:
REMARK  status: ('A' for Active; 'I' for Inactive)
REMARK    1  A    between atoms: C_1  and  C_2
REMARK    2  A    between atoms: C_2  and  C_3
REMARK    3  A    between atoms: C_16  and  C_17
REMARK    4  A    between atoms: N_19  and  C_20
REMARK    5  A    between atoms: C_20  and  C_21
REMARK    6  A    between atoms: C_27  and  C_28
REMARK    7  A    between atoms: C_28  and  O_29
REMARK                            x       y       z     vdW  Elec       q    Type
REMARK                         _______ _______ _______ _____ _____    ______ ____
ROOT
ATOM      1  C   UNL     1       2.740   6.138  19.882  0.00  0.00    +0.000 C 
ATOM      2  O   UNL     1       2.496   5.492  20.899  0.00  0.00    +0.000 OA
ATOM      3  N   UNL     1       3.536   5.637  18.878  0.00  0.00    +0.000 N 
ATOM      4  C   UNL     1       4.191   4.333  18.910  0.00  0.00    +0.000 C 
ATOM      5  C   UNL     1       5.650   4.522  19.376  0.00  0.00    +0.000 C 
ATOM      6  N   UNL     1       6.301   5.714  18.798  0.00  0.00    +0.000 N 
ATOM      7  C   UNL     1       5.554   6.650  18.076  0.00  0.00    +0.000 A 
ATOM      8  C   UNL     1       6.149   7.752  17.595  0.00  0.00    +0.000 A 
ATOM      9  C   UNL     1       7.563   7.950  17.766  0.00  0.00    +0.000 A 
ATOM     10  C   UNL     1       8.303   7.052  18.425  0.00  0.00    +0.000 A 
ATOM     11  C   UNL     1       7.666   5.848  19.014  0.00  0.00    +0.000 A 
ATOM     12  O   UNL     1       8.361   5.044  19.640  0.00  0.00    +0.000 OA
ATOM     13  C   UNL     1       4.102   6.331  17.734  0.00  0.00    +0.000 C 
ATOM     14  C   UNL     1       4.036   5.260  16.636  0.00  0.00    +0.000 C 
ATOM     15  C   UNL     1       4.184   3.918  17.415  0.00  0.00    +0.000 C 
ENDROOT
BRANCH  14  16
ATOM     16  C   UNL     1       5.075   5.400  15.529  0.00  0.00    +0.000 C 
ATOM     17  O   UNL     1       5.297   6.455  14.945  0.00  0.00    +0.000 OA
ATOM     18  N   UNL     1       5.728   4.229  15.221  0.00  0.00    +0.000 N 
ATOM     19  H   UNL     1       5.614   3.415  15.809  0.00  0.00    +0.000 HD
BRANCH  18  20
ATOM     20  C   UNL     1       6.704   4.143  14.157  0.00  0.00    +0.000 C 
BRANCH  20  21
ATOM     21  C   UNL     1       6.097   3.479  12.950  0.00  0.00    +0.000 A 
ATOM     22  C   UNL     1       6.844   2.566  12.193  0.00  0.00    +0.000 A 
ATOM     23  C   UNL     1       6.262   1.896  11.117  0.00  0.00    +0.000 A 
ATOM     24  C   UNL     1       4.963   2.212  10.720  0.00  0.00    +0.000 A 
ATOM     25  C   UNL     1       4.233   3.168  11.425  0.00  0.00    +0.000 A 
ATOM     26  C   UNL     1       4.784   3.774  12.555  0.00  0.00    +0.000 A 
ENDBRANCH  20  21
ENDBRANCH  18  20
ENDBRANCH  14  16
BRANCH   1  28
ATOM     27  C   UNL     1       1.392   8.090  20.827  0.00  0.00    +0.000 C 
ATOM     28  C   UNL     1       2.102   7.498  19.611  0.00  0.00    +0.000 C 
ENDBRANCH   1  28
BRANCH  15  29
ATOM     29  C   UNL     1       3.023   2.992  17.062  0.00  0.00    +0.000 C 
BRANCH  29  30
ATOM     30  O   UNL     1       1.779   3.679  17.090  0.00  0.00    +0.000 OA
ATOM     31  H   UNL     1       1.617   3.967  18.008  0.00  0.00    +0.000 HD
ENDBRANCH  29  30
ENDBRANCH  15  29
TORSDOF 6
ENDMDL
MODEL 5
REMARK VINA RESULT:      -7.2      1.957      7.437
REMARK  Name = 
REMARK  7 active torsions:
REMARK  status: ('A' for Active; 'I' for Inactive)
REMARK    1  A    between atoms: C_1  and  C_2
REMARK    2  A    between atoms: C_2  and  C_3
REMARK    3  A    between atoms: C_16  and  C_17
REMARK    4  A    between atoms: N_19  and  C_20
REMARK    5  A    between atoms: C_20  and  C_21
REMARK    6  A    between atoms: C_27  and  C_28
REMARK    7  A    between atoms: C_28  and  O_29
REMARK                            x       y       z     vdW  Elec       q    Type
REMARK                         _______ _______ _______ _____ _____    ______ ____
ROOT
ATOM      1  C   UNL     1       6.413   4.404  15.085  0.00  0.00    +0.000 C 
ATOM      2  O   UNL     1       7.568   3.981  15.099  0.00  0.00    +0.000 OA
ATOM      3  N   UNL     1       5.864   5.049  16.169  0.00  0.00    +0.000 N 
ATOM      4  C   UNL     1       6.552   5.276  17.436  0.00  0.00    +0.000 C 
ATOM      5  C   UNL     1       6.133   4.176  18.433  0.00  0.00    +0.000 C 
ATOM      6  N   UNL     1       4.698   3.840  18.368  0.00  0.00    +0.000 N 
ATOM      7  C   UNL     1       3.895   4.352  17.343  0.00  0.00    +0.000 A 
ATOM      8  C   UNL     1       2.602   4.004  17.271  0.00  0.00    +0.000 A 
ATOM      9  C   UNL     1       2.019   3.151  18.272  0.00  0.00    +0.000 A 
ATOM     10  C   UNL     1       2.760   2.675  19.278  0.00  0.00    +0.000 A 
ATOM     11  C   UNL     1       4.206   3.001  19.359  0.00  0.00    +0.000 A 
ATOM     12  O   UNL     1       4.878   2.533  20.281  0.00  0.00    +0.000 OA
ATOM     13  C   UNL     1       4.476   5.407  16.407  0.00  0.00    +0.000 C 
ATOM     14  C   UNL     1       4.606   6.753  17.135  0.00  0.00    +0.000 C 
ATOM     15  C   UNL     1       5.960   6.634  17.900  0.00  0.00    +0.000 C 
ENDROOT
BRANCH  14  16
ATOM     16  C   UNL     1       3.450   7.102  18.066  0.00  0.00    +0.000 C 
ATOM     17  O   UNL     1       3.339   6.648  19.200  0.00  0.00    +0.000 OA
ATOM     18  N   UNL     1       2.523   7.956  17.514  0.00  0.00    +0.000 N 
ATOM     19  H   UNL     1       2.714   8.410  16.632  0.00  0.00    +0.000 HD
BRANCH  18  20
ATOM     20  C   UNL     1       1.323   8.355  18.216  0.00  0.00    +0.000 C 
BRANCH  20  21
ATOM     21  C   UNL     1       1.429   9.795  18.644  0.00  0.00    +0.000 A 
ATOM     22  C   UNL     1       2.217  10.694  17.914  0.00  0.00    +0.000 A 
ATOM     23  C   UNL     1       2.261  12.043  18.267  0.00  0.00    +0.000 A 
ATOM     24  C   UNL     1       1.606  12.485  19.415  0.00  0.00    +0.000 A 
ATOM     25  C   UNL     1       0.872  11.585  20.187  0.00  0.00    +0.000 A 
ATOM     26  C   UNL     1       0.757  10.253  19.786  0.00  0.00    +0.000 A 
ENDBRANCH  20  21
ENDBRANCH  18  20
ENDBRANCH  14  16
BRANCH   1  28
ATOM     27  C   UNL     1       6.206   3.621  12.663  0.00  0.00    +0.000 C 
ATOM     28  C   UNL     1       5.537   4.333  13.837  0.00  0.00    +0.000 C 
ENDBRANCH   1  28
BRANCH  15  29
ATOM     29  C   UNL     1       6.852   7.822  17.545  0.00  0.00    +0.000 C 
BRANCH  29  30
ATOM     30  O   UNL     1       7.928   7.434  16.702  0.00  0.00    +0.000 OA
ATOM     31  H   UNL     1       8.084   6.481  16.836  0.00  0.00    +0.000 HD
ENDBRANCH  29  30
ENDBRANCH  15  29
TORSDOF 6
ENDMDL
MODEL 6
REMARK VINA RESULT:      -7.2      1.903      7.539
REMARK  Name = 
REMARK  7 active torsions:
REMARK  status: ('A' for Active; 'I' for Inactive)
REMARK    1  A    between atoms: C_1  and  C_2
REMARK    2  A    between atoms: C_2  and  C_3
REMARK    3  A    between atoms: C_16  and  C_17
REMARK    4  A    between atoms: N_19  and  C_20
REMARK    5  A    between atoms: C_20  and  C_21
REMARK    6  A    between atoms: C_27  and  C_28
REMARK    7  A    between atoms: C_28  and  O_29
REMARK                            x       y       z     vdW  Elec       q    Type
REMARK                         _______ _______ _______ _____ _____    ______ ____
ROOT
ATOM      1  C   UNL     1       6.397   4.396  15.308  0.00  0.00    +0.000 C 
ATOM      2  O   UNL     1       7.619   4.271  15.377  0.00  0.00    +0.000 OA
ATOM      3  N   UNL     1       5.658   4.875  16.365  0.00  0.00    +0.000 N 
ATOM      4  C   UNL     1       6.210   5.251  17.663  0.00  0.00    +0.000 C 
ATOM      5  C   UNL     1       6.030   4.070  18.639  0.00  0.00    +0.000 C 
ATOM      6  N   UNL     1       4.726   3.393  18.508  0.00  0.00    +0.000 N 
ATOM      7  C   UNL     1       3.869   3.703  17.446  0.00  0.00    +0.000 A 
ATOM      8  C   UNL     1       2.707   3.047  17.313  0.00  0.00    +0.000 A 
ATOM      9  C   UNL     1       2.306   2.067  18.286  0.00  0.00    +0.000 A 
ATOM     10  C   UNL     1       3.095   1.777  19.326  0.00  0.00    +0.000 A 
ATOM     11  C   UNL     1       4.411   2.447  19.475  0.00  0.00    +0.000 A 
ATOM     12  O   UNL     1       5.134   2.149  20.428  0.00  0.00    +0.000 OA
ATOM     13  C   UNL     1       4.215   4.878  16.537  0.00  0.00    +0.000 C 
ATOM     14  C   UNL     1       3.976   6.206  17.270  0.00  0.00    +0.000 C 
ATOM     15  C   UNL     1       5.281   6.416  18.097  0.00  0.00    +0.000 C 
ENDROOT
BRANCH  14  16
ATOM     16  C   UNL     1       2.728   6.250  18.145  0.00  0.00    +0.000 C 
ATOM     17  O   UNL     1       1.603   6.008  17.723  0.00  0.00    +0.000 OA
ATOM     18  N   UNL     1       2.970   6.613  19.450  0.00  0.00    +0.000 N 
ATOM     19  H   UNL     1       3.919   6.677  19.791  0.00  0.00    +0.000 HD
BRANCH  18  20
ATOM     20  C   UNL     1       1.908   6.772  20.419  0.00  0.00    +0.000 C 
BRANCH  20  21
ATOM     21  C   UNL     1       1.468   8.211  20.474  0.00  0.00    +0.000 A 
ATOM     22  C   UNL     1       1.475   8.998  19.314  0.00  0.00    +0.000 A 
ATOM     23  C   UNL     1       1.003  10.310  19.347  0.00  0.00    +0.000 A 
ATOM     24  C   UNL     1       0.621  10.882  20.560  0.00  0.00    +0.000 A 
ATOM     25  C   UNL     1       0.673  10.129  21.732  0.00  0.00    +0.000 A 
ATOM     26  C   UNL     1       1.062   8.790  21.684  0.00  0.00    +0.000 A 
ENDBRANCH  20  21
ENDBRANCH  18  20
ENDBRANCH  14  16
BRANCH   1  28
ATOM     27  C   UNL     1       6.518   3.751  12.841  0.00  0.00    +0.000 C 
ATOM     28  C   UNL     1       5.623   4.126  14.021  0.00  0.00    +0.000 C 
ENDBRANCH   1  28
BRANCH  15  29
ATOM     29  C   UNL     1       5.868   7.790  17.784  0.00  0.00    +0.000 C 
BRANCH  29  30
ATOM     30  O   UNL     1       7.107   7.685  17.095  0.00  0.00    +0.000 OA
ATOM     31  H   UNL     1       7.761   8.229  17.572  0.00  0.00    +0.000 HD
ENDBRANCH  29  30
ENDBRANCH  15  29
TORSDOF 6
ENDMDL
MODEL 7
REMARK VINA RESULT:      -7.2      1.039      1.378
REMARK  Name = 
REMARK  7 active torsions:
REMARK  status: ('A' for Active; 'I' for Inactive)
REMARK    1  A    between atoms: C_1  and  C_2
REMARK    2  A    between atoms: C_2  and  C_3
REMARK    3  A    between atoms: C_16  and  C_17
REMARK    4  A    between atoms: N_19  and  C_20
REMARK    5  A    between atoms: C_20  and  C_21
REMARK    6  A    between atoms: C_27  and  C_28
REMARK    7  A    between atoms: C_28  and  O_29
REMARK                            x       y       z     vdW  Elec       q    Type
REMARK                         _______ _______ _______ _____ _____    ______ ____
ROOT
ATOM      1  C   UNL     1       2.709   6.114  19.859  0.00  0.00    +0.000 C 
ATOM      2  O   UNL     1       2.464   5.467  20.875  0.00  0.00    +0.000 OA
ATOM      3  N   UNL     1       3.506   5.612  18.856  0.00  0.00    +0.000 N 
ATOM      4  C   UNL     1       4.160   4.308  18.888  0.00  0.00    +0.000 C 
ATOM      5  C   UNL     1       5.618   4.495  19.355  0.00  0.00    +0.000 C 
ATOM      6  N   UNL     1       6.271   5.686  18.779  0.00  0.00    +0.000 N 
ATOM      7  C   UNL     1       5.526   6.624  18.056  0.00  0.00    +0.000 A 
ATOM      8  C   UNL     1       6.122   7.725  17.576  0.00  0.00    +0.000 A 
ATOM      9  C   UNL     1       7.536   7.922  17.748  0.00  0.00    +0.000 A 
ATOM     10  C   UNL     1       8.275   7.023  18.408  0.00  0.00    +0.000 A 
ATOM     11  C   UNL     1       7.636   5.820  18.996  0.00  0.00    +0.000 A 
ATOM     12  O   UNL     1       8.330   5.015  19.622  0.00  0.00    +0.000 OA
ATOM     13  C   UNL     1       4.074   6.306  17.712  0.00  0.00    +0.000 C 
ATOM     14  C   UNL     1       4.008   5.236  16.614  0.00  0.00    +0.000 C 
ATOM     15  C   UNL     1       4.154   3.893  17.393  0.00  0.00    +0.000 C 
ENDROOT
BRANCH  14  16
ATOM     16  C   UNL     1       5.048   5.374  15.508  0.00  0.00    +0.000 C 
ATOM     17  O   UNL     1       5.289   6.435  14.941  0.00  0.00    +0.000 OA
ATOM     18  N   UNL     1       5.680   4.197  15.181  0.00  0.00    +0.000 N 
ATOM     19  H   UNL     1       5.551   3.376  15.755  0.00  0.00    +0.000 HD
BRANCH  18  20
ATOM     20  C   UNL     1       6.653   4.111  14.114  0.00  0.00    +0.000 C 
BRANCH  20  21
ATOM     21  C   UNL     1       6.047   3.433  12.913  0.00  0.00    +0.000 A 
ATOM     22  C   UNL     1       4.747   3.755  12.501  0.00  0.00    +0.000 A 
ATOM     23  C   UNL     1       4.208   3.180  11.349  0.00  0.00    +0.000 A 
ATOM     24  C   UNL     1       4.922   2.200  10.660  0.00  0.00    +0.000 A 
ATOM     25  C   UNL     1       6.190   1.824  11.100  0.00  0.00    +0.000 A 
ATOM     26  C   UNL     1       6.764   2.462  12.202  0.00  0.00    +0.000 A 
ENDBRANCH  20  21
ENDBRANCH  18  20
ENDBRANCH  14  16
BRANCH   1  28
ATOM     27  C   UNL     1       1.510   8.143  20.840  0.00  0.00    +0.000 C 
ATOM     28  C   UNL     1       2.073   7.474  19.587  0.00  0.00    +0.000 C 
ENDBRANCH   1  28
BRANCH  15  29
ATOM     29  C   UNL     1       2.992   2.968  17.039  0.00  0.00    +0.000 C 
BRANCH  29  30
ATOM     30  O   UNL     1       3.112   1.707  17.684  0.00  0.00    +0.000 OA
ATOM     31  H   UNL     1       2.938   1.840  18.634  0.00  0.00    +0.000 HD
ENDBRANCH  29  30
ENDBRANCH  15  29
TORSDOF 6
ENDMDL
MODEL 8
REMARK VINA RESULT:      -7.0      9.184     13.113
REMARK  Name = 
REMARK  7 active torsions:
REMARK  status: ('A' for Active; 'I' for Inactive)
REMARK    1  A    between atoms: C_1  and  C_2
REMARK    2  A    between atoms: C_2  and  C_3
REMARK    3  A    between atoms: C_16  and  C_17
REMARK    4  A    between atoms: N_19  and  C_20
REMARK    5  A    between atoms: C_20  and  C_21
REMARK    6  A    between atoms: C_27  and  C_28
REMARK    7  A    between atoms: C_28  and  O_29
REMARK                            x       y       z     vdW  Elec       q    Type
REMARK                         _______ _______ _______ _____ _____    ______ ____
ROOT
ATOM      1  C   UNL     1      -1.284  10.532  17.740  0.00  0.00    +0.000 C 
ATOM      2  O   UNL     1      -0.622   9.527  17.486  0.00  0.00    +0.000 OA
ATOM      3  N   UNL     1      -0.812  11.519  18.573  0.00  0.00    +0.000 N 
ATOM      4  C   UNL     1       0.476  11.482  19.259  0.00  0.00    +0.000 C 
ATOM      5  C   UNL     1       0.257  10.977  20.700  0.00  0.00    +0.000 C 
ATOM      6  N   UNL     1      -0.954  11.526  21.337  0.00  0.00    +0.000 N 
ATOM      7  C   UNL     1      -1.881  12.259  20.586  0.00  0.00    +0.000 A 
ATOM      8  C   UNL     1      -3.000  12.714  21.167  0.00  0.00    +0.000 A 
ATOM      9  C   UNL     1      -3.230  12.505  22.571  0.00  0.00    +0.000 A 
ATOM     10  C   UNL     1      -2.344  11.834  23.316  0.00  0.00    +0.000 A 
ATOM     11  C   UNL     1      -1.119  11.273  22.693  0.00  0.00    +0.000 A 
ATOM     12  O   UNL     1      -0.325  10.638  23.390  0.00  0.00    +0.000 OA
ATOM     13  C   UNL     1      -1.531  12.642  19.152  0.00  0.00    +0.000 C 
ATOM     14  C   UNL     1      -0.469  13.751  19.140  0.00  0.00    +0.000 C 
ATOM     15  C   UNL     1       0.877  12.981  19.300  0.00  0.00    +0.000 C 
ENDROOT
BRANCH  14  16
ATOM     16  C   UNL     1      -0.644  14.829  20.203  0.00  0.00    +0.000 C 
ATOM     17  O   UNL     1       0.015  14.867  21.236  0.00  0.00    +0.000 OA
ATOM     18  N   UNL     1      -1.627  15.747  19.915  0.00  0.00    +0.000 N 
ATOM     19  H   UNL     1      -2.056  15.761  19.001  0.00  0.00    +0.000 HD
BRANCH  18  20
ATOM     20  C   UNL     1      -1.986  16.810  20.829  0.00  0.00    +0.000 C 
BRANCH  20  21
ATOM     21  C   UNL     1      -3.116  16.366  21.721  0.00  0.00    +0.000 A 
ATOM     22  C   UNL     1      -2.909  16.201  23.097  0.00  0.00    +0.000 A 
ATOM     23  C   UNL     1      -3.970  15.858  23.935  0.00  0.00    +0.000 A 
ATOM     24  C   UNL     1      -5.222  15.572  23.393  0.00  0.00    +0.000 A 
ATOM     25  C   UNL     1      -5.423  15.669  22.016  0.00  0.00    +0.000 A 
ATOM     26  C   UNL     1      -4.384  16.096  21.188  0.00  0.00    +0.000 A 
ENDBRANCH  20  21
ENDBRANCH  18  20
ENDBRANCH  14  16
BRANCH   1  28
ATOM     27  C   UNL     1      -2.727  10.271  15.649  0.00  0.00    +0.000 C 
ATOM     28  C   UNL     1      -2.631  10.807  17.077  0.00  0.00    +0.000 C 
ENDBRANCH   1  28
BRANCH  15  29
ATOM     29  C   UNL     1       1.827  13.372  18.170  0.00  0.00    +0.000 C 
BRANCH  29  30
ATOM     30  O   UNL     1       2.384  12.229  17.536  0.00  0.00    +0.000 OA
ATOM     31  H   UNL     1       2.362  12.380  16.573  0.00  0.00    +0.000 HD
ENDBRANCH  29  30
ENDBRANCH  15  29
TORSDOF 6
ENDMDL
MODEL 9
REMARK VINA RESULT:      -6.8      8.811     12.555
REMARK  Name = 
REMARK  7 active torsions:
REMARK  status: ('A' for Active; 'I' for Inactive)
REMARK    1  A    between atoms: C_1  and  C_2
REMARK    2  A    between atoms: C_2  and  C_3
REMARK    3  A    between atoms: C_16  and  C_17
REMARK    4  A    between atoms: N_19  and  C_20
REMARK    5  A    between atoms: C_20  and  C_21
REMARK    6  A    between atoms: C_27  and  C_28
REMARK    7  A    between atoms: C_28  and  O_29
REMARK                            x       y       z     vdW  Elec       q    Type
REMARK                         _______ _______ _______ _____ _____    ______ ____
ROOT
ATOM      1  C   UNL     1      -1.412  10.676  17.663  0.00  0.00    +0.000 C 
ATOM      2  O   UNL     1      -1.052   9.618  17.149  0.00  0.00    +0.000 OA
ATOM      3  N   UNL     1      -0.632  11.336  18.583  0.00  0.00    +0.000 N 
ATOM      4  C   UNL     1       0.661  10.862  19.069  0.00  0.00    +0.000 C 
ATOM      5  C   UNL     1       0.450  10.140  20.416  0.00  0.00    +0.000 C 
ATOM      6  N   UNL     1      -0.520  10.815  21.299  0.00  0.00    +0.000 N 
ATOM      7  C   UNL     1      -1.293  11.879  20.822  0.00  0.00    +0.000 A 
ATOM      8  C   UNL     1      -2.203  12.455  21.621  0.00  0.00    +0.000 A 
ATOM      9  C   UNL     1      -2.353  12.024  22.985  0.00  0.00    +0.000 A 
ATOM     10  C   UNL     1      -1.603  11.029  23.472  0.00  0.00    +0.000 A 
ATOM     11  C   UNL     1      -0.623  10.337  22.599  0.00  0.00    +0.000 A 
ATOM     12  O   UNL     1       0.042   9.406  23.060  0.00  0.00    +0.000 OA
ATOM     13  C   UNL     1      -0.986  12.453  19.442  0.00  0.00    +0.000 C 
ATOM     14  C   UNL     1       0.317  13.264  19.480  0.00  0.00    +0.000 C 
ATOM     15  C   UNL     1       1.432  12.186  19.317  0.00  0.00    +0.000 C 
ENDROOT
BRANCH  14  16
ATOM     16  C   UNL     1       0.518  14.114  20.729  0.00  0.00    +0.000 C 
ATOM     17  O   UNL     1       1.245  13.781  21.658  0.00  0.00    +0.000 OA
ATOM     18  N   UNL     1      -0.210  15.281  20.737  0.00  0.00    +0.000 N 
ATOM     19  H   UNL     1      -0.693  15.583  19.903  0.00  0.00    +0.000 HD
BRANCH  18  20
ATOM     20  C   UNL     1      -0.203  16.191  21.862  0.00  0.00    +0.000 C 
BRANCH  20  21
ATOM     21  C   UNL     1      -1.315  15.845  22.815  0.00  0.00    +0.000 A 
ATOM     22  C   UNL     1      -1.024  15.355  24.095  0.00  0.00    +0.000 A 
ATOM     23  C   UNL     1      -2.050  15.099  25.005  0.00  0.00    +0.000 A 
ATOM     24  C   UNL     1      -3.380  15.228  24.609  0.00  0.00    +0.000 A 
ATOM     25  C   UNL     1      -3.684  15.651  23.316  0.00  0.00    +0.000 A 
ATOM     26  C   UNL     1      -2.656  15.990  22.434  0.00  0.00    +0.000 A 
ENDBRANCH  20  21
ENDBRANCH  18  20
ENDBRANCH  14  16
BRANCH   1  28
ATOM     27  C   UNL     1      -3.960  10.737  17.815  0.00  0.00    +0.000 C 
ATOM     28  C   UNL     1      -2.698  11.385  17.249  0.00  0.00    +0.000 C 
ENDBRANCH   1  28
BRANCH  15  29
ATOM     29  C   UNL     1       2.345  12.567  18.154  0.00  0.00    +0.000 C 
BRANCH  29  30
ATOM     30  O   UNL     1       2.550  11.473  17.271  0.00  0.00    +0.000 OA
ATOM     31  H   UNL     1       2.054  11.653  16.451  0.00  0.00    +0.000 HD
ENDBRANCH  29  30
ENDBRANCH  15  29
TORSDOF 6
ENDMDL
