MODEL 1
REMARK VINA RESULT:      -7.9      0.000      0.000
REMARK  Name = 
REMARK  5 active torsions:
REMARK  status: ('A' for Active; 'I' for Inactive)
REMARK    1  A    between atoms: C_2  and  C_3
REMARK    2  A    between atoms: C_7  and  C_8
REMARK    3  A    between atoms: C_8  and  N_9
REMARK    4  A    between atoms: N_12  and  C_13
REMARK    5  A    between atoms: C_13  and  C_14
REMARK                            x       y       z     vdW  Elec       q    Type
REMARK                         _______ _______ _______ _____ _____    ______ ____
ROOT
ATOM      1  N   UNL     1       3.494   5.030  17.833  0.00  0.00    +0.000 N 
ATOM      2  C   UNL     1       2.736   6.133  18.347  0.00  0.00    +0.000 C 
ATOM      3  O   UNL     1       2.729   7.175  17.715  0.00  0.00    +0.000 OA
ATOM      4  N   UNL     1       2.250   6.023  19.643  0.00  0.00    +0.000 N 
ATOM      5  S   UNL     1       1.679   4.563  20.186  0.00  0.00    +0.000 S 
ATOM      6  O   UNL     1       2.124   4.345  21.546  0.00  0.00    +0.000 OA
ATOM      7  O   UNL     1       0.291   4.438  19.805  0.00  0.00    +0.000 OA
ATOM      8  N   UNL     1       2.454   3.374  19.309  0.00  0.00    +0.000 N 
ATOM      9  C   UNL     1       2.407   2.027  19.496  0.00  0.00    +0.000 A 
ATOM     10  C   UNL     1       3.266   1.483  18.557  0.00  0.00    +0.000 A 
ATOM     11  C   UNL     1       3.813   2.561  17.799  0.00  0.00    +0.000 A 
ATOM     12  C   UNL     1       3.270   3.734  18.287  0.00  0.00    +0.000 A 
ENDROOT
BRANCH   1  13
ATOM     13  C   UNL     1       4.522   5.363  16.823  0.00  0.00    +0.000 C 
BRANCH  13  18
ATOM     14  C   UNL     1       7.513   7.550  17.925  0.00  0.00    +0.000 A 
ATOM     15  C   UNL     1       8.275   6.608  18.618  0.00  0.00    +0.000 A 
ATOM     16  C   UNL     1       7.826   5.294  18.719  0.00  0.00    +0.000 A 
ATOM     17  C   UNL     1       6.610   4.920  18.144  0.00  0.00    +0.000 A 
ATOM     18  C   UNL     1       5.811   5.853  17.463  0.00  0.00    +0.000 A 
ATOM     19  C   UNL     1       6.290   7.171  17.342  0.00  0.00    +0.000 A 
BRANCH  14  21
ATOM     20  N   UNL     1       8.329  10.003  17.695  0.00  0.00    +0.000 NA
ATOM     21  C   UNL     1       7.980   8.901  17.801  0.00  0.00    +0.000 C 
ENDBRANCH  14  21
ENDBRANCH  13  18
ENDBRANCH   1  13
BRANCH   4  22
ATOM     22  C   UNL     1       2.499   7.095  20.617  0.00  0.00    +0.000 C 
BRANCH  22  23
ATOM     23  C   UNL     1       1.460   8.180  20.607  0.00  0.00    +0.000 A 
ATOM     24  C   UNL     1       1.220   8.906  19.434  0.00  0.00    +0.000 A 
ATOM     25  C   UNL     1       0.319   9.972  19.437  0.00  0.00    +0.000 A 
ATOM     26  C   UNL     1      -0.348  10.322  20.610  0.00  0.00    +0.000 A 
ATOM     27  C   UNL     1      -0.141   9.582  21.771  0.00  0.00    +0.000 A 
ATOM     28 CL   UNL     1      -0.972   9.999  23.218  0.00  0.00    +0.000 Cl
ATOM     29  C   UNL     1       0.749   8.510  21.772  0.00  0.00    +0.000 A 
ENDBRANCH  22  23
ENDBRANCH   4  22
TORSDOF 5
ENDMDL
MODEL 2
REMARK VINA RESULT:      -7.8      0.951      1.278
REMARK  Name = 
REMARK  5 active torsions:
REMARK  status: ('A' for Active; 'I' for Inactive)
REMARK    1  A    between atoms: C_2  and  C_3
REMARK    2  A    between atoms: C_7  and  C_8
REMARK    3  A    between atoms: C_8  and  N_9
REMARK    4  A    between atoms: N_12  and  C_13
REMARK    5  A    between atoms: C_13  and  C_14
REMARK                            x       y       z     vdW  Elec       q    Type
REMARK                         _______ _______ _______ _____ _____    ______ ____
ROOT
ATOM      1  N   UNL     1       3.466   4.971  17.839  0.00  0.00    +0.000 N 
ATOM      2  C   UNL     1       2.704   6.056  18.383  0.00  0.00    +0.000 C 
ATOM      3  O   UNL     1       2.677   7.109  17.771  0.00  0.00    +0.000 OA
ATOM      4  N   UNL     1       2.237   5.917  19.684  0.00  0.00    +0.000 N 
ATOM      5  S   UNL     1       1.689   4.441  20.208  0.00  0.00    +0.000 S 
ATOM      6  O   UNL     1       2.156   4.203  21.557  0.00  0.00    +0.000 OA
ATOM      7  O   UNL     1       0.298   4.309  19.844  0.00  0.00    +0.000 OA
ATOM      8  N   UNL     1       2.465   3.277  19.298  0.00  0.00    +0.000 N 
ATOM      9  C   UNL     1       2.435   1.926  19.461  0.00  0.00    +0.000 A 
ATOM     10  C   UNL     1       3.285   1.409  18.500  0.00  0.00    +0.000 A 
ATOM     11  C   UNL     1       3.810   2.506  17.755  0.00  0.00    +0.000 A 
ATOM     12  C   UNL     1       3.262   3.664  18.271  0.00  0.00    +0.000 A 
ENDROOT
BRANCH   1  13
ATOM     13  C   UNL     1       4.475   5.334  16.820  0.00  0.00    +0.000 C 
BRANCH  13  18
ATOM     14  C   UNL     1       7.479   7.515  17.900  0.00  0.00    +0.000 A 
ATOM     15  C   UNL     1       8.244   6.572  18.588  0.00  0.00    +0.000 A 
ATOM     16  C   UNL     1       7.792   5.259  18.694  0.00  0.00    +0.000 A 
ATOM     17  C   UNL     1       6.572   4.886  18.127  0.00  0.00    +0.000 A 
ATOM     18  C   UNL     1       5.770   5.821  17.451  0.00  0.00    +0.000 A 
ATOM     19  C   UNL     1       6.251   7.138  17.326  0.00  0.00    +0.000 A 
BRANCH  14  21
ATOM     20  N   UNL     1       8.333   9.957  17.696  0.00  0.00    +0.000 NA
ATOM     21  C   UNL     1       7.948   8.865  17.771  0.00  0.00    +0.000 C 
ENDBRANCH  14  21
ENDBRANCH  13  18
ENDBRANCH   1  13
BRANCH   4  22
ATOM     22  C   UNL     1       2.489   6.974  20.674  0.00  0.00    +0.000 C 
BRANCH  22  23
ATOM     23  C   UNL     1       1.416   8.024  20.730  0.00  0.00    +0.000 A 
ATOM     24  C   UNL     1       0.392   7.926  21.679  0.00  0.00    +0.000 A 
ATOM     25  C   UNL     1      -0.655   8.848  21.683  0.00  0.00    +0.000 A 
ATOM     26  C   UNL     1      -0.689   9.874  20.740  0.00  0.00    +0.000 A 
ATOM     27  C   UNL     1       0.344   9.998  19.816  0.00  0.00    +0.000 A 
ATOM     28 CL   UNL     1       0.316  11.271  18.659  0.00  0.00    +0.000 Cl
ATOM     29  C   UNL     1       1.398   9.087  19.813  0.00  0.00    +0.000 A 
ENDBRANCH  22  23
ENDBRANCH   4  22
TORSDOF 5
ENDMDL
MODEL 3
REMARK VINA RESULT:      -7.6      1.186      1.622
REMARK  Name = 
REMARK  5 active torsions:
REMARK  status: ('A' for Active; 'I' for Inactive)
REMARK    1  A    between atoms: C_2  and  C_3
REMARK    2  A    between atoms: C_7  and  C_8
REMARK    3  A    between atoms: C_8  and  N_9
REMARK    4  A    between atoms: N_12  and  C_13
REMARK    5  A    between atoms: C_13  and  C_14
REMARK                            x       y       z     vdW  Elec       q    Type
REMARK                         _______ _______ _______ _____ _____    ______ ____
ROOT
ATOM      1  N   UNL     1       3.414   5.000  17.775  0.00  0.00    +0.000 N 
ATOM      2  C   UNL     1       2.670   6.110  18.292  0.00  0.00    +0.000 C 
ATOM      3  O   UNL     1       2.622   7.134  17.632  0.00  0.00    +0.000 OA
ATOM      4  N   UNL     1       2.248   6.034  19.613  0.00  0.00    +0.000 N 
ATOM      5  S   UNL     1       1.719   4.586  20.225  0.00  0.00    +0.000 S 
ATOM      6  O   UNL     1       2.231   4.411  21.567  0.00  0.00    +0.000 OA
ATOM      7  O   UNL     1       0.316   4.438  19.915  0.00  0.00    +0.000 OA
ATOM      8  N   UNL     1       2.464   3.379  19.346  0.00  0.00    +0.000 N 
ATOM      9  C   UNL     1       2.439   2.037  19.574  0.00  0.00    +0.000 A 
ATOM     10  C   UNL     1       3.257   1.474  18.610  0.00  0.00    +0.000 A 
ATOM     11  C   UNL     1       3.757   2.534  17.796  0.00  0.00    +0.000 A 
ATOM     12  C   UNL     1       3.226   3.715  18.275  0.00  0.00    +0.000 A 
ENDROOT
BRANCH   1  13
ATOM     13  C   UNL     1       4.388   5.313  16.707  0.00  0.00    +0.000 C 
BRANCH  13  18
ATOM     14  C   UNL     1       7.508   6.004  18.883  0.00  0.00    +0.000 A 
ATOM     15  C   UNL     1       8.003   7.151  18.261  0.00  0.00    +0.000 A 
ATOM     16  C   UNL     1       7.334   7.686  17.162  0.00  0.00    +0.000 A 
ATOM     17  C   UNL     1       6.180   7.071  16.673  0.00  0.00    +0.000 A 
ATOM     18  C   UNL     1       5.675   5.901  17.265  0.00  0.00    +0.000 A 
ATOM     19  C   UNL     1       6.343   5.387  18.392  0.00  0.00    +0.000 A 
BRANCH  14  21
ATOM     20  N   UNL     1       8.707   4.996  20.952  0.00  0.00    +0.000 NA
ATOM     21  C   UNL     1       8.182   5.459  20.027  0.00  0.00    +0.000 C 
ENDBRANCH  14  21
ENDBRANCH  13  18
ENDBRANCH   1  13
BRANCH   4  22
ATOM     22  C   UNL     1       2.532   7.136  20.543  0.00  0.00    +0.000 C 
BRANCH  22  23
ATOM     23  C   UNL     1       1.475   8.203  20.564  0.00  0.00    +0.000 A 
ATOM     24  C   UNL     1       1.212   8.949  19.408  0.00  0.00    +0.000 A 
ATOM     25  C   UNL     1       0.294   9.998  19.441  0.00  0.00    +0.000 A 
ATOM     26  C   UNL     1      -0.369  10.313  20.627  0.00  0.00    +0.000 A 
ATOM     27  C   UNL     1      -0.139   9.553  21.770  0.00  0.00    +0.000 A 
ATOM     28 CL   UNL     1      -0.965   9.926  23.232  0.00  0.00    +0.000 Cl
ATOM     29  C   UNL     1       0.769   8.497  21.741  0.00  0.00    +0.000 A 
ENDBRANCH  22  23
ENDBRANCH   4  22
TORSDOF 5
ENDMDL
MODEL 4
REMARK VINA RESULT:      -7.5      2.689      3.714
REMARK  Name = 
REMARK  5 active torsions:
REMARK  status: ('A' for Active; 'I' for Inactive)
REMARK    1  A    between atoms: C_2  and  C_3
REMARK    2  A    between atoms: C_7  and  C_8
REMARK    3  A    between atoms: C_8  and  N_9
REMARK    4  A    between atoms: N_12  and  C_13
REMARK    5  A    between atoms: C_13  and  C_14
REMARK                            x       y       z     vdW  Elec       q    Type
REMARK                         _______ _______ _______ _____ _____    ______ ____
ROOT
ATOM      1  N   UNL     1       4.843   4.501  17.208  0.00  0.00    +0.000 N 
ATOM      2  C   UNL     1       4.303   5.830  17.209  0.00  0.00    +0.000 C 
ATOM      3  O   UNL     1       4.884   6.691  16.572  0.00  0.00    +0.000 OA
ATOM      4  N   UNL     1       3.292   6.106  18.119  0.00  0.00    +0.000 N 
ATOM      5  S   UNL     1       2.135   4.959  18.435  0.00  0.00    +0.000 S 
ATOM      6  O   UNL     1       1.853   4.934  19.855  0.00  0.00    +0.000 OA
ATOM      7  O   UNL     1       1.086   5.076  17.449  0.00  0.00    +0.000 OA
ATOM      8  N   UNL     1       2.822   3.470  18.131  0.00  0.00    +0.000 N 
ATOM      9  C   UNL     1       2.298   2.238  18.377  0.00  0.00    +0.000 A 
ATOM     10  C   UNL     1       3.275   1.330  18.007  0.00  0.00    +0.000 A 
ATOM     11  C   UNL     1       4.392   2.073  17.522  0.00  0.00    +0.000 A 
ATOM     12  C   UNL     1       4.068   3.413  17.598  0.00  0.00    +0.000 A 
ENDROOT
BRANCH   1  13
ATOM     13  C   UNL     1       6.255   4.375  16.789  0.00  0.00    +0.000 C 
BRANCH  13  18
ATOM     14  C   UNL     1       5.730   3.916  12.986  0.00  0.00    +0.000 A 
ATOM     15  C   UNL     1       6.864   4.564  12.493  0.00  0.00    +0.000 A 
ATOM     16  C   UNL     1       7.776   5.133  13.378  0.00  0.00    +0.000 A 
ATOM     17  C   UNL     1       7.553   5.070  14.755  0.00  0.00    +0.000 A 
ATOM     18  C   UNL     1       6.408   4.446  15.277  0.00  0.00    +0.000 A 
ATOM     19  C   UNL     1       5.509   3.849  14.373  0.00  0.00    +0.000 A 
BRANCH  14  21
ATOM     20  N   UNL     1       4.040   2.849  11.331  0.00  0.00    +0.000 NA
ATOM     21  C   UNL     1       4.796   3.312  12.080  0.00  0.00    +0.000 C 
ENDBRANCH  14  21
ENDBRANCH  13  18
ENDBRANCH   1  13
BRANCH   4  22
ATOM     22  C   UNL     1       3.397   7.272  19.007  0.00  0.00    +0.000 C 
BRANCH  22  23
ATOM     23  C   UNL     1       2.185   8.159  18.993  0.00  0.00    +0.000 A 
ATOM     24  C   UNL     1       1.741   8.717  17.788  0.00  0.00    +0.000 A 
ATOM     25  C   UNL     1       0.669   9.610  17.777  0.00  0.00    +0.000 A 
ATOM     26  C   UNL     1       0.032   9.953  18.969  0.00  0.00    +0.000 A 
ATOM     27  C   UNL     1       0.444   9.375  20.165  0.00  0.00    +0.000 A 
ATOM     28 CL   UNL     1      -0.348   9.783  21.637  0.00  0.00    +0.000 Cl
ATOM     29  C   UNL     1       1.507   8.475  20.182  0.00  0.00    +0.000 A 
ENDBRANCH  22  23
ENDBRANCH   4  22
TORSDOF 5
ENDMDL
MODEL 5
REMARK VINA RESULT:      -7.5      1.511      2.060
REMARK  Name = 
REMARK  5 active torsions:
REMARK  status: ('A' for Active; 'I' for Inactive)
REMARK    1  A    between atoms: C_2  and  C_3
REMARK    2  A    between atoms: C_7  and  C_8
REMARK    3  A    between atoms: C_8  and  N_9
REMARK    4  A    between atoms: N_12  and  C_13
REMARK    5  A    between atoms: C_13  and  C_14
REMARK                            x       y       z     vdW  Elec       q    Type
REMARK                         _______ _______ _______ _____ _____    ______ ____
ROOT
ATOM      1  N   UNL     1       3.397   4.908  17.778  0.00  0.00    +0.000 N 
ATOM      2  C   UNL     1       2.662   6.019  18.308  0.00  0.00    +0.000 C 
ATOM      3  O   UNL     1       2.618   7.048  17.656  0.00  0.00    +0.000 OA
ATOM      4  N   UNL     1       2.247   5.936  19.630  0.00  0.00    +0.000 N 
ATOM      5  S   UNL     1       1.711   4.486  20.234  0.00  0.00    +0.000 S 
ATOM      6  O   UNL     1       2.229   4.299  21.573  0.00  0.00    +0.000 OA
ATOM      7  O   UNL     1       0.305   4.350  19.931  0.00  0.00    +0.000 OA
ATOM      8  N   UNL     1       2.444   3.281  19.342  0.00  0.00    +0.000 N 
ATOM      9  C   UNL     1       2.412   1.938  19.560  0.00  0.00    +0.000 A 
ATOM     10  C   UNL     1       3.221   1.377  18.588  0.00  0.00    +0.000 A 
ATOM     11  C   UNL     1       3.723   2.439  17.780  0.00  0.00    +0.000 A 
ATOM     12  C   UNL     1       3.202   3.621  18.270  0.00  0.00    +0.000 A 
ENDROOT
BRANCH   1  13
ATOM     13  C   UNL     1       4.367   5.223  16.707  0.00  0.00    +0.000 C 
BRANCH  13  18
ATOM     14  C   UNL     1       7.478   5.978  18.875  0.00  0.00    +0.000 A 
ATOM     15  C   UNL     1       7.954   7.128  18.244  0.00  0.00    +0.000 A 
ATOM     16  C   UNL     1       7.276   7.645  17.143  0.00  0.00    +0.000 A 
ATOM     17  C   UNL     1       6.131   7.009  16.660  0.00  0.00    +0.000 A 
ATOM     18  C   UNL     1       5.645   5.835  17.260  0.00  0.00    +0.000 A 
ATOM     19  C   UNL     1       6.323   5.339  18.390  0.00  0.00    +0.000 A 
BRANCH  14  21
ATOM     20  N   UNL     1       8.740   5.039  20.939  0.00  0.00    +0.000 NA
ATOM     21  C   UNL     1       8.162   5.451  20.021  0.00  0.00    +0.000 C 
ENDBRANCH  14  21
ENDBRANCH  13  18
ENDBRANCH   1  13
BRANCH   4  22
ATOM     22  C   UNL     1       2.543   7.029  20.567  0.00  0.00    +0.000 C 
BRANCH  22  23
ATOM     23  C   UNL     1       1.447   8.051  20.675  0.00  0.00    +0.000 A 
ATOM     24  C   UNL     1       0.478   7.933  21.679  0.00  0.00    +0.000 A 
ATOM     25  C   UNL     1      -0.591   8.827  21.736  0.00  0.00    +0.000 A 
ATOM     26  C   UNL     1      -0.702   9.846  20.791  0.00  0.00    +0.000 A 
ATOM     27  C   UNL     1       0.276   9.992  19.812  0.00  0.00    +0.000 A 
ATOM     28 CL   UNL     1       0.152  11.256  18.652  0.00  0.00    +0.000 Cl
ATOM     29  C   UNL     1       1.352   9.108  19.756  0.00  0.00    +0.000 A 
ENDBRANCH  22  23
ENDBRANCH   4  22
TORSDOF 5
ENDMDL
MODEL 6
REMARK VINA RESULT:      -7.4      3.987      8.433
REMARK  Name = 
REMARK  5 active torsions:
REMARK  status: ('A' for Active; 'I' for Inactive)
REMARK    1  A    between atoms: C_2  and  C_3
REMARK    2  A    between atoms: C_7  and  C_8
REMARK    3  A    between atoms: C_8  and  N_9
REMARK    4  A    between atoms: N_12  and  C_13
REMARK    5  A    between atoms: C_13  and  C_14
REMARK                            x       y       z     vdW  Elec       q    Type
REMARK                         _______ _______ _______ _____ _____    ______ ____
ROOT
ATOM      1  N   UNL     1      -0.043  11.227  19.854  0.00  0.00    +0.000 N 
ATOM      2  C   UNL     1       0.961  10.446  19.193  0.00  0.00    +0.000 C 
ATOM      3  O   UNL     1       1.494  10.908  18.199  0.00  0.00    +0.000 OA
ATOM      4  N   UNL     1       1.098   9.121  19.585  0.00  0.00    +0.000 N 
ATOM      5  S   UNL     1       0.944   8.717  21.187  0.00  0.00    +0.000 S 
ATOM      6  O   UNL     1       0.187   7.489  21.305  0.00  0.00    +0.000 OA
ATOM      7  O   UNL     1       2.223   8.893  21.834  0.00  0.00    +0.000 OA
ATOM      8  N   UNL     1      -0.036   9.868  21.892  0.00  0.00    +0.000 N 
ATOM      9  C   UNL     1      -0.549   9.876  23.153  0.00  0.00    +0.000 A 
ATOM     10  C   UNL     1      -1.343  11.006  23.233  0.00  0.00    +0.000 A 
ATOM     11  C   UNL     1      -1.272  11.672  21.973  0.00  0.00    +0.000 A 
ATOM     12  C   UNL     1      -0.430  10.940  21.160  0.00  0.00    +0.000 A 
ENDROOT
BRANCH   1  13
ATOM     13  C   UNL     1      -0.639  12.323  19.060  0.00  0.00    +0.000 C 
BRANCH  13  18
ATOM     14  C   UNL     1      -3.144  11.020  16.420  0.00  0.00    +0.000 A 
ATOM     15  C   UNL     1      -4.349  11.201  17.102  0.00  0.00    +0.000 A 
ATOM     16  C   UNL     1      -4.343  11.737  18.387  0.00  0.00    +0.000 A 
ATOM     17  C   UNL     1      -3.137  12.080  19.001  0.00  0.00    +0.000 A 
ATOM     18  C   UNL     1      -1.909  11.884  18.348  0.00  0.00    +0.000 A 
ATOM     19  C   UNL     1      -1.930  11.369  17.038  0.00  0.00    +0.000 A 
BRANCH  14  21
ATOM     20  N   UNL     1      -3.168  10.035  14.019  0.00  0.00    +0.000 NA
ATOM     21  C   UNL     1      -3.146  10.486  15.088  0.00  0.00    +0.000 C 
ENDBRANCH  14  21
ENDBRANCH  13  18
ENDBRANCH   1  13
BRANCH   4  22
ATOM     22  C   UNL     1       1.090   8.050  18.579  0.00  0.00    +0.000 C 
BRANCH  22  23
ATOM     23  C   UNL     1       2.398   7.321  18.455  0.00  0.00    +0.000 A 
ATOM     24  C   UNL     1       3.399   7.819  17.612  0.00  0.00    +0.000 A 
ATOM     25  C   UNL     1       4.582   7.106  17.425  0.00  0.00    +0.000 A 
ATOM     26  C   UNL     1       4.777   5.888  18.076  0.00  0.00    +0.000 A 
ATOM     27  C   UNL     1       3.801   5.404  18.943  0.00  0.00    +0.000 A 
ATOM     28 CL   UNL     1       4.041   3.910  19.761  0.00  0.00    +0.000 Cl
ATOM     29  C   UNL     1       2.621   6.117  19.142  0.00  0.00    +0.000 A 
ENDBRANCH  22  23
ENDBRANCH   4  22
TORSDOF 5
ENDMDL
MODEL 7
REMARK VINA RESULT:      -7.3      6.692      9.855
REMARK  Name = 
REMARK  5 active torsions:
REMARK  status: ('A' for Active; 'I' for Inactive)
REMARK    1  A    between atoms: C_2  and  C_3
REMARK    2  A    between atoms: C_7  and  C_8
REMARK    3  A    between atoms: C_8  and  N_9
REMARK    4  A    between atoms: N_12  and  C_13
REMARK    5  A    between atoms: C_13  and  C_14
REMARK                            x       y       z     vdW  Elec       q    Type
REMARK                         _______ _______ _______ _____ _____    ______ ____
ROOT
ATOM      1  N   UNL     1      -2.464  12.597  19.865  0.00  0.00    +0.000 N 
ATOM      2  C   UNL     1      -3.262  13.459  20.687  0.00  0.00    +0.000 C 
ATOM      3  O   UNL     1      -2.703  14.343  21.312  0.00  0.00    +0.000 OA
ATOM      4  N   UNL     1      -4.583  13.090  20.902  0.00  0.00    +0.000 N 
ATOM      5  S   UNL     1      -5.460  12.414  19.667  0.00  0.00    +0.000 S 
ATOM      6  O   UNL     1      -6.260  11.322  20.182  0.00  0.00    +0.000 OA
ATOM      7  O   UNL     1      -6.034  13.474  18.872  0.00  0.00    +0.000 OA
ATOM      8  N   UNL     1      -4.373  11.672  18.641  0.00  0.00    +0.000 N 
ATOM      9  C   UNL     1      -4.639  10.878  17.568  0.00  0.00    +0.000 A 
ATOM     10  C   UNL     1      -3.409  10.462  17.089  0.00  0.00    +0.000 A 
ATOM     11  C   UNL     1      -2.405  11.052  17.913  0.00  0.00    +0.000 A 
ATOM     12  C   UNL     1      -3.044  11.819  18.868  0.00  0.00    +0.000 A 
ENDROOT
BRANCH   1  13
ATOM     13  C   UNL     1      -1.014  12.580  20.158  0.00  0.00    +0.000 C 
BRANCH  13  18
ATOM     14  C   UNL     1       0.413   9.215  21.417  0.00  0.00    +0.000 A 
ATOM     15  C   UNL     1      -0.053   9.218  22.732  0.00  0.00    +0.000 A 
ATOM     16  C   UNL     1      -0.816  10.287  23.195  0.00  0.00    +0.000 A 
ATOM     17  C   UNL     1      -1.102  11.363  22.352  0.00  0.00    +0.000 A 
ATOM     18  C   UNL     1      -0.624  11.398  21.032  0.00  0.00    +0.000 A 
ATOM     19  C   UNL     1       0.121  10.298  20.567  0.00  0.00    +0.000 A 
BRANCH  14  21
ATOM     20  N   UNL     1       1.828   7.230  20.528  0.00  0.00    +0.000 NA
ATOM     21  C   UNL     1       1.183   8.107  20.929  0.00  0.00    +0.000 C 
ENDBRANCH  14  21
ENDBRANCH  13  18
ENDBRANCH   1  13
BRANCH   4  22
ATOM     22  C   UNL     1      -5.116  13.025  22.270  0.00  0.00    +0.000 C 
BRANCH  22  23
ATOM     23  C   UNL     1      -5.779  14.293  22.726  0.00  0.00    +0.000 A 
ATOM     24  C   UNL     1      -6.982  14.704  22.140  0.00  0.00    +0.000 A 
ATOM     25  C   UNL     1      -7.560  15.922  22.495  0.00  0.00    +0.000 A 
ATOM     26  C   UNL     1      -6.941  16.743  23.438  0.00  0.00    +0.000 A 
ATOM     27  C   UNL     1      -5.764  16.325  24.051  0.00  0.00    +0.000 A 
ATOM     28 CL   UNL     1      -5.003  17.325  25.226  0.00  0.00    +0.000 Cl
ATOM     29  C   UNL     1      -5.187  15.104  23.708  0.00  0.00    +0.000 A 
ENDBRANCH  22  23
ENDBRANCH   4  22
TORSDOF 5
ENDMDL
MODEL 8
REMARK VINA RESULT:      -7.2      6.609      9.704
REMARK  Name = 
REMARK  5 active torsions:
REMARK  status: ('A' for Active; 'I' for Inactive)
REMARK    1  A    between atoms: C_2  and  C_3
REMARK    2  A    between atoms: C_7  and  C_8
REMARK    3  A    between atoms: C_8  and  N_9
REMARK    4  A    between atoms: N_12  and  C_13
REMARK    5  A    between atoms: C_13  and  C_14
REMARK                            x       y       z     vdW  Elec       q    Type
REMARK                         _______ _______ _______ _____ _____    ______ ____
ROOT
ATOM      1  N   UNL     1      -1.874  12.757  20.448  0.00  0.00    +0.000 N 
ATOM      2  C   UNL     1      -2.555  13.500  21.467  0.00  0.00    +0.000 C 
ATOM      3  O   UNL     1      -1.897  14.224  22.194  0.00  0.00    +0.000 OA
ATOM      4  N   UNL     1      -3.881  13.174  21.715  0.00  0.00    +0.000 N 
ATOM      5  S   UNL     1      -4.882  12.782  20.450  0.00  0.00    +0.000 S 
ATOM      6  O   UNL     1      -5.720  11.663  20.825  0.00  0.00    +0.000 OA
ATOM      7  O   UNL     1      -5.431  13.999  19.900  0.00  0.00    +0.000 OA
ATOM      8  N   UNL     1      -3.918  12.177  19.230  0.00  0.00    +0.000 N 
ATOM      9  C   UNL     1      -4.308  11.605  18.058  0.00  0.00    +0.000 A 
ATOM     10  C   UNL     1      -3.143  11.214  17.421  0.00  0.00    +0.000 A 
ATOM     11  C   UNL     1      -2.049  11.587  18.257  0.00  0.00    +0.000 A 
ATOM     12  C   UNL     1      -2.570  12.205  19.377  0.00  0.00    +0.000 A 
ENDROOT
BRANCH   1  13
ATOM     13  C   UNL     1      -0.413  12.605  20.623  0.00  0.00    +0.000 C 
BRANCH  13  18
ATOM     14  C   UNL     1       0.930   9.012  21.097  0.00  0.00    +0.000 A 
ATOM     15  C   UNL     1       0.479   8.740  22.390  0.00  0.00    +0.000 A 
ATOM     16  C   UNL     1      -0.247   9.703  23.086  0.00  0.00    +0.000 A 
ATOM     17  C   UNL     1      -0.512  10.943  22.502  0.00  0.00    +0.000 A 
ATOM     18  C   UNL     1      -0.047  11.252  21.213  0.00  0.00    +0.000 A 
ATOM     19  C   UNL     1       0.660  10.259  20.508  0.00  0.00    +0.000 A 
BRANCH  14  21
ATOM     20  N   UNL     1       2.237   7.215  19.755  0.00  0.00    +0.000 NA
ATOM     21  C   UNL     1       1.663   8.016  20.368  0.00  0.00    +0.000 C 
ENDBRANCH  14  21
ENDBRANCH  13  18
ENDBRANCH   1  13
BRANCH   4  22
ATOM     22  C   UNL     1      -4.328  12.894  23.086  0.00  0.00    +0.000 C 
BRANCH  22  23
ATOM     23  C   UNL     1      -5.555  13.659  23.495  0.00  0.00    +0.000 A 
ATOM     24  C   UNL     1      -6.676  12.974  23.979  0.00  0.00    +0.000 A 
ATOM     25  C   UNL     1      -7.849  13.666  24.280  0.00  0.00    +0.000 A 
ATOM     26  C   UNL     1      -7.914  15.047  24.099  0.00  0.00    +0.000 A 
ATOM     27  C   UNL     1      -6.792  15.739  23.652  0.00  0.00    +0.000 A 
ATOM     28 CL   UNL     1      -6.859  17.445  23.442  0.00  0.00    +0.000 Cl
ATOM     29  C   UNL     1      -5.614  15.055  23.360  0.00  0.00    +0.000 A 
ENDBRANCH  22  23
ENDBRANCH   4  22
TORSDOF 5
ENDMDL
MODEL 9
REMARK VINA RESULT:      -7.2      4.070      8.469
REMARK  Name = 
REMARK  5 active torsions:
REMARK  status: ('A' for Active; 'I' for Inactive)
REMARK    1  A    between atoms: C_2  and  C_3
REMARK    2  A    between atoms: C_7  and  C_8
REMARK    3  A    between atoms: C_8  and  N_9
REMARK    4  A    between atoms: N_12  and  C_13
REMARK    5  A    between atoms: C_13  and  C_14
REMARK                            x       y       z     vdW  Elec       q    Type
REMARK                         _______ _______ _______ _____ _____    ______ ____
ROOT
ATOM      1  N   UNL     1       0.038  11.175  19.810  0.00  0.00    +0.000 N 
ATOM      2  C   UNL     1       1.045  10.367  19.187  0.00  0.00    +0.000 C 
ATOM      3  O   UNL     1       1.601  10.800  18.192  0.00  0.00    +0.000 OA
ATOM      4  N   UNL     1       1.160   9.051  19.613  0.00  0.00    +0.000 N 
ATOM      5  S   UNL     1       0.972   8.688  21.221  0.00  0.00    +0.000 S 
ATOM      6  O   UNL     1       0.199   7.471  21.355  0.00  0.00    +0.000 OA
ATOM      7  O   UNL     1       2.241   8.866  21.887  0.00  0.00    +0.000 OA
ATOM      8  N   UNL     1      -0.008   9.866  21.880  0.00  0.00    +0.000 N 
ATOM      9  C   UNL     1      -0.543   9.911  23.131  0.00  0.00    +0.000 A 
ATOM     10  C   UNL     1      -1.327  11.051  23.168  0.00  0.00    +0.000 A 
ATOM     11  C   UNL     1      -1.224  11.685  21.894  0.00  0.00    +0.000 A 
ATOM     12  C   UNL     1      -0.376  10.924  21.114  0.00  0.00    +0.000 A 
ENDROOT
BRANCH   1  13
ATOM     13  C   UNL     1      -0.531  12.258  18.979  0.00  0.00    +0.000 C 
BRANCH  13  18
ATOM     14  C   UNL     1      -3.086  10.971  16.378  0.00  0.00    +0.000 A 
ATOM     15  C   UNL     1      -4.279  11.164  17.077  0.00  0.00    +0.000 A 
ATOM     16  C   UNL     1      -4.250  11.703  18.361  0.00  0.00    +0.000 A 
ATOM     17  C   UNL     1      -3.032  12.036  18.957  0.00  0.00    +0.000 A 
ATOM     18  C   UNL     1      -1.815  11.829  18.286  0.00  0.00    +0.000 A 
ATOM     19  C   UNL     1      -1.860  11.311  16.977  0.00  0.00    +0.000 A 
BRANCH  14  21
ATOM     20  N   UNL     1      -3.146  10.024  13.963  0.00  0.00    +0.000 NA
ATOM     21  C   UNL     1      -3.111  10.434  15.048  0.00  0.00    +0.000 C 
ENDBRANCH  14  21
ENDBRANCH  13  18
ENDBRANCH   1  13
BRANCH   4  22
ATOM     22  C   UNL     1       1.159   7.956  18.633  0.00  0.00    +0.000 C 
BRANCH  22  23
ATOM     23  C   UNL     1       2.405   7.118  18.655  0.00  0.00    +0.000 A 
ATOM     24  C   UNL     1       2.537   6.086  19.593  0.00  0.00    +0.000 A 
ATOM     25  C   UNL     1       3.724   5.358  19.678  0.00  0.00    +0.000 A 
ATOM     26  C   UNL     1       4.790   5.655  18.830  0.00  0.00    +0.000 A 
ATOM     27  C   UNL     1       4.654   6.655  17.872  0.00  0.00    +0.000 A 
ATOM     28 CL   UNL     1       5.960   7.016  16.812  0.00  0.00    +0.000 Cl
ATOM     29  C   UNL     1       3.467   7.379  17.774  0.00  0.00    +0.000 A 
ENDBRANCH  22  23
ENDBRANCH   4  22
TORSDOF 5
ENDMDL
