MODEL 1
REMARK VINA RESULT:      -8.8      0.000      0.000
REMARK  Name = 
REMARK  8 active torsions:
REMARK  status: ('A' for Active; 'I' for Inactive)
REMARK    1  A    between atoms: C_1  and  C_2
REMARK    2  A    between atoms: C_6  and  N_7
REMARK    3  A    between atoms: N_10  and  C_11
REMARK    4  A    between atoms: C_11  and  C_12
REMARK    5  A    between atoms: C_12  and  C_13
REMARK    6  A    between atoms: C_13  and  O_14
REMARK    7  A    between atoms: O_14  and  N_15
REMARK    8  A    between atoms: C_29  and  C_30
REMARK                            x       y       z     vdW  Elec       q    Type
REMARK                         _______ _______ _______ _____ _____    ______ ____
ROOT
ATOM      1  C   UNL     1       7.462   7.402  17.147  0.00  0.00    +0.000 C 
ENDROOT
BRANCH   1   5
ATOM      2  N   UNL     1       5.068   5.013  18.533  0.00  0.00    +0.000 N 
ATOM      3  C   UNL     1       6.295   5.433  19.249  0.00  0.00    +0.000 C 
ATOM      4  C   UNL     1       7.536   5.238  18.355  0.00  0.00    +0.000 C 
ATOM      5  N   UNL     1       7.466   5.930  17.047  0.00  0.00    +0.000 NA
ATOM      6  C   UNL     1       6.228   5.469  16.370  0.00  0.00    +0.000 C 
ATOM      7  C   UNL     1       4.932   5.659  17.201  0.00  0.00    +0.000 C 
BRANCH   2  13
ATOM      8  C   UNL     1       1.613   2.456  21.119  0.00  0.00    +0.000 C 
ATOM      9  C   UNL     1       2.171   3.738  20.560  0.00  0.00    +0.000 A 
ATOM     10  C   UNL     1       1.425   4.913  20.707  0.00  0.00    +0.000 A 
ATOM     11  C   UNL     1       1.888   6.107  20.180  0.00  0.00    +0.000 A 
ATOM     12  C   UNL     1       3.085   6.131  19.466  0.00  0.00    +0.000 A 
ATOM     13  C   UNL     1       3.871   4.976  19.280  0.00  0.00    +0.000 A 
ATOM     14  C   UNL     1       3.425   3.775  19.894  0.00  0.00    +0.000 A 
ATOM     15  C   UNL     1       4.274   2.523  19.874  0.00  0.00    +0.000 C 
ENDBRANCH   2  13
ENDBRANCH   1   5
BRANCH   1  16
ATOM     16  C   UNL     1       8.270   7.951  18.320  0.00  0.00    +0.000 C 
BRANCH  16  17
ATOM     17  C   UNL     1       8.430   9.459  18.253  0.00  0.00    +0.000 C 
BRANCH  17  18
ATOM     18  O   UNL     1       9.516   9.879  19.089  0.00  0.00    +0.000 OA
BRANCH  18  19
ATOM     19  N   UNL     1       9.393  11.283  19.208  0.00  0.00    +0.000 N 
ATOM     20  C   UNL     1      10.208  11.965  18.318  0.00  0.00    +0.000 C 
ATOM     21  O   UNL     1      11.052  11.464  17.578  0.00  0.00    +0.000 OA
ATOM     22  C   UNL     1       9.876  13.429  18.250  0.00  0.00    +0.000 C 
ATOM     23  C   UNL     1       9.780  14.074  19.636  0.00  0.00    +0.000 C 
ATOM     24  C   UNL     1       9.199  15.504  19.472  0.00  0.00    +0.000 C 
ATOM     25  C   UNL     1      10.283  16.470  19.934  0.00  0.00    +0.000 C 
ATOM     26  C   UNL     1      11.578  15.691  19.783  0.00  0.00    +0.000 C 
ATOM     27  C   UNL     1      11.185  14.291  20.237  0.00  0.00    +0.000 C 
ATOM     28  C   UNL     1       8.883  13.230  20.555  0.00  0.00    +0.000 C 
ATOM     29  C   UNL     1       9.147  11.737  20.489  0.00  0.00    +0.000 C 
ATOM     30  O   UNL     1       9.071  11.038  21.499  0.00  0.00    +0.000 OA
ENDBRANCH  18  19
ENDBRANCH  17  18
ENDBRANCH  16  17
ENDBRANCH   1  16
TORSDOF 6
ENDMDL
MODEL 2
REMARK VINA RESULT:      -8.7      1.391      1.759
REMARK  Name = 
REMARK  8 active torsions:
REMARK  status: ('A' for Active; 'I' for Inactive)
REMARK    1  A    between atoms: C_1  and  C_2
REMARK    2  A    between atoms: C_6  and  N_7
REMARK    3  A    between atoms: N_10  and  C_11
REMARK    4  A    between atoms: C_11  and  C_12
REMARK    5  A    between atoms: C_12  and  C_13
REMARK    6  A    between atoms: C_13  and  O_14
REMARK    7  A    between atoms: O_14  and  N_15
REMARK    8  A    between atoms: C_29  and  C_30
REMARK                            x       y       z     vdW  Elec       q    Type
REMARK                         _______ _______ _______ _____ _____    ______ ____
ROOT
ATOM      1  C   UNL     1       7.118   7.904  17.514  0.00  0.00    +0.000 C 
ENDROOT
BRANCH   1   5
ATOM      2  N   UNL     1       4.765   5.174  18.120  0.00  0.00    +0.000 N 
ATOM      3  C   UNL     1       5.998   5.367  18.918  0.00  0.00    +0.000 C 
ATOM      4  C   UNL     1       7.228   5.473  17.994  0.00  0.00    +0.000 C 
ATOM      5  N   UNL     1       7.134   6.534  16.965  0.00  0.00    +0.000 NA
ATOM      6  C   UNL     1       5.891   6.288  16.191  0.00  0.00    +0.000 C 
ATOM      7  C   UNL     1       4.605   6.197  17.053  0.00  0.00    +0.000 C 
BRANCH   2  13
ATOM      8  C   UNL     1       0.718   2.315  18.904  0.00  0.00    +0.000 C 
ATOM      9  C   UNL     1       1.592   3.496  19.235  0.00  0.00    +0.000 A 
ATOM     10  C   UNL     1       1.160   4.393  20.218  0.00  0.00    +0.000 A 
ATOM     11  C   UNL     1       1.920   5.508  20.531  0.00  0.00    +0.000 A 
ATOM     12  C   UNL     1       3.102   5.759  19.836  0.00  0.00    +0.000 A 
ATOM     13  C   UNL     1       3.578   4.893  18.831  0.00  0.00    +0.000 A 
ATOM     14  C   UNL     1       2.832   3.711  18.576  0.00  0.00    +0.000 A 
ATOM     15  C   UNL     1       3.341   2.653  17.624  0.00  0.00    +0.000 C 
ENDBRANCH   2  13
ENDBRANCH   1   5
BRANCH   1  16
ATOM     16  C   UNL     1       8.443   8.345  18.131  0.00  0.00    +0.000 C 
BRANCH  16  17
ATOM     17  C   UNL     1       8.445   9.817  18.498  0.00  0.00    +0.000 C 
BRANCH  17  18
ATOM     18  O   UNL     1       9.355  10.535  17.655  0.00  0.00    +0.000 OA
BRANCH  18  19
ATOM     19  N   UNL     1       9.540  11.795  18.269  0.00  0.00    +0.000 N 
ATOM     20  C   UNL     1       8.588  12.724  17.876  0.00  0.00    +0.000 C 
ATOM     21  O   UNL     1       7.737  12.564  17.004  0.00  0.00    +0.000 OA
ATOM     22  C   UNL     1       8.614  13.961  18.728  0.00  0.00    +0.000 C 
ATOM     23  C   UNL     1      10.025  14.536  18.885  0.00  0.00    +0.000 C 
ATOM     24  C   UNL     1       9.983  15.649  19.965  0.00  0.00    +0.000 C 
ATOM     25  C   UNL     1      10.353  16.950  19.264  0.00  0.00    +0.000 C 
ATOM     26  C   UNL     1      10.023  16.703  17.803  0.00  0.00    +0.000 C 
ATOM     27  C   UNL     1      10.467  15.261  17.595  0.00  0.00    +0.000 C 
ATOM     28  C   UNL     1      11.010  13.428  19.291  0.00  0.00    +0.000 C 
ATOM     29  C   UNL     1      10.857  12.137  18.507  0.00  0.00    +0.000 C 
ATOM     30  O   UNL     1      11.843  11.467  18.197  0.00  0.00    +0.000 OA
ENDBRANCH  18  19
ENDBRANCH  17  18
ENDBRANCH  16  17
ENDBRANCH   1  16
TORSDOF 6
ENDMDL
MODEL 3
REMARK VINA RESULT:      -8.6      2.380     10.528
REMARK  Name = 
REMARK  8 active torsions:
REMARK  status: ('A' for Active; 'I' for Inactive)
REMARK    1  A    between atoms: C_1  and  C_2
REMARK    2  A    between atoms: C_6  and  N_7
REMARK    3  A    between atoms: N_10  and  C_11
REMARK    4  A    between atoms: C_11  and  C_12
REMARK    5  A    between atoms: C_12  and  C_13
REMARK    6  A    between atoms: C_13  and  O_14
REMARK    7  A    between atoms: O_14  and  N_15
REMARK    8  A    between atoms: C_29  and  C_30
REMARK                            x       y       z     vdW  Elec       q    Type
REMARK                         _______ _______ _______ _____ _____    ______ ____
ROOT
ATOM      1  C   UNL     1       8.789   9.984  18.719  0.00  0.00    +0.000 C 
ENDROOT
BRANCH   1   5
ATOM      2  N   UNL     1      10.008  13.226  19.886  0.00  0.00    +0.000 N 
ATOM      3  C   UNL     1       8.778  13.071  19.074  0.00  0.00    +0.000 C 
ATOM      4  C   UNL     1       9.074  12.266  17.793  0.00  0.00    +0.000 C 
ATOM      5  N   UNL     1       9.681  10.936  18.029  0.00  0.00    +0.000 NA
ATOM      6  C   UNL     1      10.909  11.148  18.835  0.00  0.00    +0.000 C 
ATOM      7  C   UNL     1      10.684  11.930  20.156  0.00  0.00    +0.000 C 
BRANCH   2  13
ATOM      8  C   UNL     1      11.704  17.160  22.495  0.00  0.00    +0.000 C 
ATOM      9  C   UNL     1      10.748  16.015  22.294  0.00  0.00    +0.000 A 
ATOM     10  C   UNL     1       9.817  15.736  23.301  0.00  0.00    +0.000 A 
ATOM     11  C   UNL     1       8.939  14.673  23.170  0.00  0.00    +0.000 A 
ATOM     12  C   UNL     1       9.010  13.852  22.046  0.00  0.00    +0.000 A 
ATOM     13  C   UNL     1       9.934  14.081  21.006  0.00  0.00    +0.000 A 
ATOM     14  C   UNL     1      10.773  15.223  21.116  0.00  0.00    +0.000 A 
ATOM     15  C   UNL     1      11.689  15.632  19.984  0.00  0.00    +0.000 C 
ENDBRANCH   2  13
ENDBRANCH   1   5
BRANCH   1  16
ATOM     16  C   UNL     1       8.043   9.036  17.784  0.00  0.00    +0.000 C 
BRANCH  16  17
ATOM     17  C   UNL     1       8.148   7.589  18.228  0.00  0.00    +0.000 C 
BRANCH  17  18
ATOM     18  O   UNL     1       7.675   6.719  17.191  0.00  0.00    +0.000 OA
BRANCH  18  19
ATOM     19  N   UNL     1       6.387   6.298  17.596  0.00  0.00    +0.000 N 
ATOM     20  C   UNL     1       6.418   5.134  18.348  0.00  0.00    +0.000 C 
ATOM     21  O   UNL     1       7.408   4.436  18.562  0.00  0.00    +0.000 OA
ATOM     22  C   UNL     1       5.099   4.845  19.006  0.00  0.00    +0.000 C 
ATOM     23  C   UNL     1       3.924   4.928  18.027  0.00  0.00    +0.000 C 
ATOM     24  C   UNL     1       2.603   4.859  18.839  0.00  0.00    +0.000 C 
ATOM     25  C   UNL     1       1.890   3.586  18.402  0.00  0.00    +0.000 C 
ATOM     26  C   UNL     1       2.994   2.698  17.856  0.00  0.00    +0.000 C 
ATOM     27  C   UNL     1       3.884   3.685  17.112  0.00  0.00    +0.000 C 
ATOM     28  C   UNL     1       3.994   6.236  17.221  0.00  0.00    +0.000 C 
ATOM     29  C   UNL     1       5.376   6.573  16.694  0.00  0.00    +0.000 C 
ATOM     30  O   UNL     1       5.520   7.099  15.591  0.00  0.00    +0.000 OA
ENDBRANCH  18  19
ENDBRANCH  17  18
ENDBRANCH  16  17
ENDBRANCH   1  16
TORSDOF 6
ENDMDL
MODEL 4
REMARK VINA RESULT:      -8.5      2.264     10.847
REMARK  Name = 
REMARK  8 active torsions:
REMARK  status: ('A' for Active; 'I' for Inactive)
REMARK    1  A    between atoms: C_1  and  C_2
REMARK    2  A    between atoms: C_6  and  N_7
REMARK    3  A    between atoms: N_10  and  C_11
REMARK    4  A    between atoms: C_11  and  C_12
REMARK    5  A    between atoms: C_12  and  C_13
REMARK    6  A    between atoms: C_13  and  O_14
REMARK    7  A    between atoms: O_14  and  N_15
REMARK    8  A    between atoms: C_29  and  C_30
REMARK                            x       y       z     vdW  Elec       q    Type
REMARK                         _______ _______ _______ _____ _____    ______ ____
ROOT
ATOM      1  C   UNL     1       8.796  10.411  18.620  0.00  0.00    +0.000 C 
ENDROOT
BRANCH   1   5
ATOM      2  N   UNL     1      10.064  13.838  18.699  0.00  0.00    +0.000 N 
ATOM      3  C   UNL     1      10.175  12.964  17.508  0.00  0.00    +0.000 C 
ATOM      4  C   UNL     1      10.831  11.620  17.884  0.00  0.00    +0.000 C 
ATOM      5  N   UNL     1      10.148  10.886  18.973  0.00  0.00    +0.000 NA
ATOM      6  C   UNL     1      10.071  11.799  20.141  0.00  0.00    +0.000 C 
ATOM      7  C   UNL     1       9.396  13.165  19.845  0.00  0.00    +0.000 C 
BRANCH   2  13
ATOM      8  C   UNL     1      11.061  18.610  17.515  0.00  0.00    +0.000 C 
ATOM      9  C   UNL     1      10.107  17.509  17.895  0.00  0.00    +0.000 A 
ATOM     10  C   UNL     1       8.767  17.839  18.133  0.00  0.00    +0.000 A 
ATOM     11  C   UNL     1       7.862  16.862  18.514  0.00  0.00    +0.000 A 
ATOM     12  C   UNL     1       8.297  15.550  18.700  0.00  0.00    +0.000 A 
ATOM     13  C   UNL     1       9.635  15.166  18.484  0.00  0.00    +0.000 A 
ATOM     14  C   UNL     1      10.535  16.161  18.015  0.00  0.00    +0.000 A 
ATOM     15  C   UNL     1      11.951  15.810  17.614  0.00  0.00    +0.000 C 
ENDBRANCH   2  13
ENDBRANCH   1   5
BRANCH   1  16
ATOM     16  C   UNL     1       8.701   8.905  18.396  0.00  0.00    +0.000 C 
BRANCH  16  17
ATOM     17  C   UNL     1       7.481   8.520  17.581  0.00  0.00    +0.000 C 
BRANCH  17  18
ATOM     18  O   UNL     1       7.548   7.136  17.212  0.00  0.00    +0.000 OA
BRANCH  18  19
ATOM     19  N   UNL     1       6.321   6.565  17.621  0.00  0.00    +0.000 N 
ATOM     20  C   UNL     1       6.488   5.565  18.566  0.00  0.00    +0.000 C 
ATOM     21  O   UNL     1       7.560   5.099  18.947  0.00  0.00    +0.000 OA
ATOM     22  C   UNL     1       5.188   5.158  19.200  0.00  0.00    +0.000 C 
ATOM     23  C   UNL     1       4.095   4.869  18.165  0.00  0.00    +0.000 C 
ATOM     24  C   UNL     1       2.745   4.700  18.912  0.00  0.00    +0.000 C 
ATOM     25  C   UNL     1       2.291   3.267  18.671  0.00  0.00    +0.000 C 
ATOM     26  C   UNL     1       3.568   2.512  18.344  0.00  0.00    +0.000 C 
ATOM     27  C   UNL     1       4.336   3.505  17.483  0.00  0.00    +0.000 C 
ATOM     28  C   UNL     1       4.009   6.017  17.147  0.00  0.00    +0.000 C 
ATOM     29  C   UNL     1       5.353   6.504  16.637  0.00  0.00    +0.000 C 
ATOM     30  O   UNL     1       5.493   6.858  15.467  0.00  0.00    +0.000 OA
ENDBRANCH  18  19
ENDBRANCH  17  18
ENDBRANCH  16  17
ENDBRANCH   1  16
TORSDOF 6
ENDMDL
MODEL 5
REMARK VINA RESULT:      -8.4      0.986      1.569
REMARK  Name = 
REMARK  8 active torsions:
REMARK  status: ('A' for Active; 'I' for Inactive)
REMARK    1  A    between atoms: C_1  and  C_2
REMARK    2  A    between atoms: C_6  and  N_7
REMARK    3  A    between atoms: N_10  and  C_11
REMARK    4  A    between atoms: C_11  and  C_12
REMARK    5  A    between atoms: C_12  and  C_13
REMARK    6  A    between atoms: C_13  and  O_14
REMARK    7  A    between atoms: O_14  and  N_15
REMARK    8  A    between atoms: C_29  and  C_30
REMARK                            x       y       z     vdW  Elec       q    Type
REMARK                         _______ _______ _______ _____ _____    ______ ____
ROOT
ATOM      1  C   UNL     1       7.124   7.393  17.221  0.00  0.00    +0.000 C 
ENDROOT
BRANCH   1   5
ATOM      2  N   UNL     1       5.139   4.331  17.421  0.00  0.00    +0.000 N 
ATOM      3  C   UNL     1       6.190   4.676  18.406  0.00  0.00    +0.000 C 
ATOM      4  C   UNL     1       7.519   4.991  17.691  0.00  0.00    +0.000 C 
ATOM      5  N   UNL     1       7.429   6.059  16.669  0.00  0.00    +0.000 NA
ATOM      6  C   UNL     1       6.373   5.660  15.705  0.00  0.00    +0.000 C 
ATOM      7  C   UNL     1       4.996   5.353  16.351  0.00  0.00    +0.000 C 
BRANCH   2  13
ATOM      8  C   UNL     1       1.263   4.766  20.575  0.00  0.00    +0.000 C 
ATOM      9  C   UNL     1       1.998   4.061  19.466  0.00  0.00    +0.000 A 
ATOM     10  C   UNL     1       1.489   2.845  18.995  0.00  0.00    +0.000 A 
ATOM     11  C   UNL     1       2.151   2.149  17.996  0.00  0.00    +0.000 A 
ATOM     12  C   UNL     1       3.351   2.643  17.486  0.00  0.00    +0.000 A 
ATOM     13  C   UNL     1       3.912   3.857  17.931  0.00  0.00    +0.000 A 
ATOM     14  C   UNL     1       3.181   4.601  18.897  0.00  0.00    +0.000 A 
ATOM     15  C   UNL     1       3.628   5.981  19.324  0.00  0.00    +0.000 C 
ENDBRANCH   2  13
ENDBRANCH   1   5
BRANCH   1  16
ATOM     16  C   UNL     1       8.143   7.896  18.239  0.00  0.00    +0.000 C 
BRANCH  16  17
ATOM     17  C   UNL     1       8.343   9.398  18.159  0.00  0.00    +0.000 C 
BRANCH  17  18
ATOM     18  O   UNL     1       9.448   9.795  18.983  0.00  0.00    +0.000 OA
BRANCH  18  19
ATOM     19  N   UNL     1       9.344  11.198  19.120  0.00  0.00    +0.000 N 
ATOM     20  C   UNL     1      10.128  11.882  18.204  0.00  0.00    +0.000 C 
ATOM     21  O   UNL     1      10.935  11.381  17.424  0.00  0.00    +0.000 OA
ATOM     22  C   UNL     1       9.808  13.349  18.164  0.00  0.00    +0.000 C 
ATOM     23  C   UNL     1       9.777  13.982  19.560  0.00  0.00    +0.000 C 
ATOM     24  C   UNL     1       9.204  15.418  19.434  0.00  0.00    +0.000 C 
ATOM     25  C   UNL     1      10.316  16.369  19.860  0.00  0.00    +0.000 C 
ATOM     26  C   UNL     1      11.595  15.579  19.646  0.00  0.00    +0.000 C 
ATOM     27  C   UNL     1      11.208  14.179  20.103  0.00  0.00    +0.000 C 
ATOM     28  C   UNL     1       8.911  13.136  20.508  0.00  0.00    +0.000 C 
ATOM     29  C   UNL     1       9.157  11.642  20.415  0.00  0.00    +0.000 C 
ATOM     30  O   UNL     1       9.117  10.933  21.421  0.00  0.00    +0.000 OA
ENDBRANCH  18  19
ENDBRANCH  17  18
ENDBRANCH  16  17
ENDBRANCH   1  16
TORSDOF 6
ENDMDL
MODEL 6
REMARK VINA RESULT:      -8.1      2.482     10.143
REMARK  Name = 
REMARK  8 active torsions:
REMARK  status: ('A' for Active; 'I' for Inactive)
REMARK    1  A    between atoms: C_1  and  C_2
REMARK    2  A    between atoms: C_6  and  N_7
REMARK    3  A    between atoms: N_10  and  C_11
REMARK    4  A    between atoms: C_11  and  C_12
REMARK    5  A    between atoms: C_12  and  C_13
REMARK    6  A    between atoms: C_13  and  O_14
REMARK    7  A    between atoms: O_14  and  N_15
REMARK    8  A    between atoms: C_29  and  C_30
REMARK                            x       y       z     vdW  Elec       q    Type
REMARK                         _______ _______ _______ _____ _____    ______ ____
ROOT
ATOM      1  C   UNL     1       8.901  10.112  18.623  0.00  0.00    +0.000 C 
ENDROOT
BRANCH   1   5
ATOM      2  N   UNL     1      10.036  13.264  20.084  0.00  0.00    +0.000 N 
ATOM      3  C   UNL     1       8.857  13.167  19.193  0.00  0.00    +0.000 C 
ATOM      4  C   UNL     1       9.231  12.454  17.878  0.00  0.00    +0.000 C 
ATOM      5  N   UNL     1       9.828  11.110  18.056  0.00  0.00    +0.000 NA
ATOM      6  C   UNL     1      11.006  11.265  18.945  0.00  0.00    +0.000 C 
ATOM      7  C   UNL     1      10.701  11.952  20.303  0.00  0.00    +0.000 C 
BRANCH   2  13
ATOM      8  C   UNL     1       7.791  14.157  24.480  0.00  0.00    +0.000 C 
ATOM      9  C   UNL     1       8.808  14.485  23.420  0.00  0.00    +0.000 A 
ATOM     10  C   UNL     1       9.569  15.651  23.561  0.00  0.00    +0.000 A 
ATOM     11  C   UNL     1      10.494  16.005  22.593  0.00  0.00    +0.000 A 
ATOM     12  C   UNL     1      10.640  15.217  21.453  0.00  0.00    +0.000 A 
ATOM     13  C   UNL     1       9.893  14.038  21.256  0.00  0.00    +0.000 A 
ATOM     14  C   UNL     1       9.006  13.643  22.294  0.00  0.00    +0.000 A 
ATOM     15  C   UNL     1       8.276  12.320  22.238  0.00  0.00    +0.000 C 
ENDBRANCH   2  13
ENDBRANCH   1   5
BRANCH   1  16
ATOM     16  C   UNL     1       8.262   9.192  17.586  0.00  0.00    +0.000 C 
BRANCH  16  17
ATOM     17  C   UNL     1       8.000   7.802  18.134  0.00  0.00    +0.000 C 
BRANCH  17  18
ATOM     18  O   UNL     1       7.562   6.930  17.083  0.00  0.00    +0.000 OA
BRANCH  18  19
ATOM     19  N   UNL     1       6.366   6.335  17.546  0.00  0.00    +0.000 N 
ATOM     20  C   UNL     1       6.595   5.191  18.294  0.00  0.00    +0.000 C 
ATOM     21  O   UNL     1       7.682   4.641  18.462  0.00  0.00    +0.000 OA
ATOM     22  C   UNL     1       5.361   4.723  19.012  0.00  0.00    +0.000 C 
ATOM     23  C   UNL     1       4.143   4.635  18.087  0.00  0.00    +0.000 C 
ATOM     24  C   UNL     1       2.883   4.386  18.959  0.00  0.00    +0.000 C 
ATOM     25  C   UNL     1       2.337   3.023  18.553  0.00  0.00    +0.000 C 
ATOM     26  C   UNL     1       3.529   2.296  17.957  0.00  0.00    +0.000 C 
ATOM     27  C   UNL     1       4.237   3.394  17.174  0.00  0.00    +0.000 C 
ATOM     28  C   UNL     1       3.991   5.935  17.280  0.00  0.00    +0.000 C 
ATOM     29  C   UNL     1       5.287   6.461  16.691  0.00  0.00    +0.000 C 
ATOM     30  O   UNL     1       5.305   6.996  15.583  0.00  0.00    +0.000 OA
ENDBRANCH  18  19
ENDBRANCH  17  18
ENDBRANCH  16  17
ENDBRANCH   1  16
TORSDOF 6
ENDMDL
MODEL 7
REMARK VINA RESULT:      -8.1      1.410      2.302
REMARK  Name = 
REMARK  8 active torsions:
REMARK  status: ('A' for Active; 'I' for Inactive)
REMARK    1  A    between atoms: C_1  and  C_2
REMARK    2  A    between atoms: C_6  and  N_7
REMARK    3  A    between atoms: N_10  and  C_11
REMARK    4  A    between atoms: C_11  and  C_12
REMARK    5  A    between atoms: C_12  and  C_13
REMARK    6  A    between atoms: C_13  and  O_14
REMARK    7  A    between atoms: O_14  and  N_15
REMARK    8  A    between atoms: C_29  and  C_30
REMARK                            x       y       z     vdW  Elec       q    Type
REMARK                         _______ _______ _______ _____ _____    ______ ____
ROOT
ATOM      1  C   UNL     1       7.374   7.196  17.978  0.00  0.00    +0.000 C 
ENDROOT
BRANCH   1   5
ATOM      2  N   UNL     1       5.080   4.414  17.385  0.00  0.00    +0.000 N 
ATOM      3  C   UNL     1       6.252   4.314  18.285  0.00  0.00    +0.000 C 
ATOM      4  C   UNL     1       7.535   4.759  17.553  0.00  0.00    +0.000 C 
ATOM      5  N   UNL     1       7.470   6.120  16.973  0.00  0.00    +0.000 NA
ATOM      6  C   UNL     1       6.288   6.162  16.076  0.00  0.00    +0.000 C 
ATOM      7  C   UNL     1       4.953   5.753  16.753  0.00  0.00    +0.000 C 
BRANCH   2  13
ATOM      8  C   UNL     1       1.262   4.481  20.639  0.00  0.00    +0.000 C 
ATOM      9  C   UNL     1       1.975   3.909  19.442  0.00  0.00    +0.000 A 
ATOM     10  C   UNL     1       1.455   2.756  18.843  0.00  0.00    +0.000 A 
ATOM     11  C   UNL     1       2.097   2.181  17.758  0.00  0.00    +0.000 A 
ATOM     12  C   UNL     1       3.289   2.730  17.287  0.00  0.00    +0.000 A 
ATOM     13  C   UNL     1       3.861   3.884  17.860  0.00  0.00    +0.000 A 
ATOM     14  C   UNL     1       3.150   4.511  18.919  0.00  0.00    +0.000 A 
ATOM     15  C   UNL     1       3.608   5.832  19.494  0.00  0.00    +0.000 C 
ENDBRANCH   2  13
ENDBRANCH   1   5
BRANCH   1  16
ATOM     16  C   UNL     1       7.813   8.567  17.471  0.00  0.00    +0.000 C 
BRANCH  16  17
ATOM     17  C   UNL     1       8.893   9.183  18.339  0.00  0.00    +0.000 C 
BRANCH  17  18
ATOM     18  O   UNL     1       8.377  10.328  19.032  0.00  0.00    +0.000 OA
BRANCH  18  19
ATOM     19  N   UNL     1       9.371  11.328  18.922  0.00  0.00    +0.000 N 
ATOM     20  C   UNL     1       9.980  11.610  20.135  0.00  0.00    +0.000 C 
ATOM     21  O   UNL     1       9.648  11.166  21.233  0.00  0.00    +0.000 OA
ATOM     22  C   UNL     1      11.210  12.456  19.972  0.00  0.00    +0.000 C 
ATOM     23  C   UNL     1      10.964  13.686  19.092  0.00  0.00    +0.000 C 
ATOM     24  C   UNL     1      12.332  14.352  18.786  0.00  0.00    +0.000 C 
ATOM     25  C   UNL     1      12.292  15.738  19.416  0.00  0.00    +0.000 C 
ATOM     26  C   UNL     1      11.244  15.630  20.510  0.00  0.00    +0.000 C 
ATOM     27  C   UNL     1      10.171  14.762  19.865  0.00  0.00    +0.000 C 
ATOM     28  C   UNL     1      10.260  13.276  17.788  0.00  0.00    +0.000 C 
ATOM     29  C   UNL     1       9.112  12.302  17.977  0.00  0.00    +0.000 C 
ATOM     30  O   UNL     1       8.098  12.379  17.282  0.00  0.00    +0.000 OA
ENDBRANCH  18  19
ENDBRANCH  17  18
ENDBRANCH  16  17
ENDBRANCH   1  16
TORSDOF 6
ENDMDL
MODEL 8
REMARK VINA RESULT:      -7.8      1.402      1.960
REMARK  Name = 
REMARK  8 active torsions:
REMARK  status: ('A' for Active; 'I' for Inactive)
REMARK    1  A    between atoms: C_1  and  C_2
REMARK    2  A    between atoms: C_6  and  N_7
REMARK    3  A    between atoms: N_10  and  C_11
REMARK    4  A    between atoms: C_11  and  C_12
REMARK    5  A    between atoms: C_12  and  C_13
REMARK    6  A    between atoms: C_13  and  O_14
REMARK    7  A    between atoms: O_14  and  N_15
REMARK    8  A    between atoms: C_29  and  C_30
REMARK                            x       y       z     vdW  Elec       q    Type
REMARK                         _______ _______ _______ _____ _____    ______ ____
ROOT
ATOM      1  C   UNL     1       7.775   7.277  18.136  0.00  0.00    +0.000 C 
ENDROOT
BRANCH   1   5
ATOM      2  N   UNL     1       4.888   5.035  18.141  0.00  0.00    +0.000 N 
ATOM      3  C   UNL     1       6.148   4.728  18.856  0.00  0.00    +0.000 C 
ATOM      4  C   UNL     1       7.353   4.844  17.901  0.00  0.00    +0.000 C 
ATOM      5  N   UNL     1       7.476   6.156  17.224  0.00  0.00    +0.000 NA
ATOM      6  C   UNL     1       6.195   6.409  16.517  0.00  0.00    +0.000 C 
ATOM      7  C   UNL     1       4.937   6.336  17.423  0.00  0.00    +0.000 C 
BRANCH   2  13
ATOM      8  C   UNL     1       0.694   2.380  18.868  0.00  0.00    +0.000 C 
ATOM      9  C   UNL     1       1.624   3.512  19.216  0.00  0.00    +0.000 A 
ATOM     10  C   UNL     1       1.230   4.423  20.202  0.00  0.00    +0.000 A 
ATOM     11  C   UNL     1       2.042   5.495  20.531  0.00  0.00    +0.000 A 
ATOM     12  C   UNL     1       3.241   5.690  19.847  0.00  0.00    +0.000 A 
ATOM     13  C   UNL     1       3.682   4.810  18.839  0.00  0.00    +0.000 A 
ATOM     14  C   UNL     1       2.879   3.669  18.569  0.00  0.00    +0.000 A 
ATOM     15  C   UNL     1       3.343   2.594  17.612  0.00  0.00    +0.000 C 
ENDBRANCH   2  13
ENDBRANCH   1   5
BRANCH   1  16
ATOM     16  C   UNL     1       7.814   8.642  17.456  0.00  0.00    +0.000 C 
BRANCH  16  17
ATOM     17  C   UNL     1       8.367   9.722  18.367  0.00  0.00    +0.000 C 
BRANCH  17  18
ATOM     18  O   UNL     1       9.449  10.407  17.722  0.00  0.00    +0.000 OA
BRANCH  18  19
ATOM     19  N   UNL     1       9.666  11.585  18.473  0.00  0.00    +0.000 N 
ATOM     20  C   UNL     1       9.993  11.322  19.794  0.00  0.00    +0.000 C 
ATOM     21  O   UNL     1       9.987  10.219  20.336  0.00  0.00    +0.000 OA
ATOM     22  C   UNL     1      10.491  12.544  20.512  0.00  0.00    +0.000 C 
ATOM     23  C   UNL     1       9.569  13.753  20.322  0.00  0.00    +0.000 C 
ATOM     24  C   UNL     1      10.285  15.009  20.886  0.00  0.00    +0.000 C 
ATOM     25  C   UNL     1       9.439  15.506  22.051  0.00  0.00    +0.000 C 
ATOM     26  C   UNL     1       8.655  14.285  22.501  0.00  0.00    +0.000 C 
ATOM     27  C   UNL     1       8.296  13.610  21.184  0.00  0.00    +0.000 C 
ATOM     28  C   UNL     1       9.240  13.943  18.833  0.00  0.00    +0.000 C 
ATOM     29  C   UNL     1       8.883  12.662  18.102  0.00  0.00    +0.000 C 
ATOM     30  O   UNL     1       8.018  12.655  17.227  0.00  0.00    +0.000 OA
ENDBRANCH  18  19
ENDBRANCH  17  18
ENDBRANCH  16  17
ENDBRANCH   1  16
TORSDOF 6
ENDMDL
MODEL 9
REMARK VINA RESULT:      -7.8      6.093      9.347
REMARK  Name = 
REMARK  8 active torsions:
REMARK  status: ('A' for Active; 'I' for Inactive)
REMARK    1  A    between atoms: C_1  and  C_2
REMARK    2  A    between atoms: C_6  and  N_7
REMARK    3  A    between atoms: N_10  and  C_11
REMARK    4  A    between atoms: C_11  and  C_12
REMARK    5  A    between atoms: C_12  and  C_13
REMARK    6  A    between atoms: C_13  and  O_14
REMARK    7  A    between atoms: O_14  and  N_15
REMARK    8  A    between atoms: C_29  and  C_30
REMARK                            x       y       z     vdW  Elec       q    Type
REMARK                         _______ _______ _______ _____ _____    ______ ____
ROOT
ATOM      1  C   UNL     1       1.324   5.854  20.106  0.00  0.00    +0.000 C 
ENDROOT
BRANCH   1   5
ATOM      2  N   UNL     1       1.114   9.408  19.277  0.00  0.00    +0.000 N 
ATOM      3  C   UNL     1       1.584   8.382  18.317  0.00  0.00    +0.000 C 
ATOM      4  C   UNL     1       2.717   7.540  18.937  0.00  0.00    +0.000 C 
ATOM      5  N   UNL     1       2.368   6.892  20.222  0.00  0.00    +0.000 NA
ATOM      6  C   UNL     1       1.915   7.960  21.147  0.00  0.00    +0.000 C 
ATOM      7  C   UNL     1       0.755   8.834  20.601  0.00  0.00    +0.000 C 
BRANCH   2  13
ATOM      8  C   UNL     1      -0.297  14.181  18.652  0.00  0.00    +0.000 C 
ATOM      9  C   UNL     1      -0.508  12.701  18.472  0.00  0.00    +0.000 A 
ATOM     10  C   UNL     1      -1.704  12.262  17.892  0.00  0.00    +0.000 A 
ATOM     11  C   UNL     1      -1.951  10.908  17.736  0.00  0.00    +0.000 A 
ATOM     12  C   UNL     1      -1.021   9.977  18.196  0.00  0.00    +0.000 A 
ATOM     13  C   UNL     1       0.194  10.364  18.796  0.00  0.00    +0.000 A 
ATOM     14  C   UNL     1       0.471  11.755  18.876  0.00  0.00    +0.000 A 
ATOM     15  C   UNL     1       1.809  12.260  19.367  0.00  0.00    +0.000 C 
ENDBRANCH   2  13
ENDBRANCH   1   5
BRANCH   1  16
ATOM     16  C   UNL     1       1.688   4.525  20.762  0.00  0.00    +0.000 C 
BRANCH  16  17
ATOM     17  C   UNL     1       1.207   3.335  19.955  0.00  0.00    +0.000 C 
BRANCH  17  18
ATOM     18  O   UNL     1       2.319   2.517  19.568  0.00  0.00    +0.000 OA
BRANCH  18  19
ATOM     19  N   UNL     1       3.236   3.386  18.932  0.00  0.00    +0.000 N 
ATOM     20  C   UNL     1       2.883   3.666  17.621  0.00  0.00    +0.000 C 
ATOM     21  O   UNL     1       1.962   3.149  16.992  0.00  0.00    +0.000 OA
ATOM     22  C   UNL     1       3.690   4.794  17.043  0.00  0.00    +0.000 C 
ATOM     23  C   UNL     1       5.195   4.612  17.263  0.00  0.00    +0.000 C 
ATOM     24  C   UNL     1       5.913   5.926  16.855  0.00  0.00    +0.000 C 
ATOM     25  C   UNL     1       6.814   5.583  15.677  0.00  0.00    +0.000 C 
ATOM     26  C   UNL     1       6.195   4.334  15.074  0.00  0.00    +0.000 C 
ATOM     27  C   UNL     1       5.763   3.544  16.302  0.00  0.00    +0.000 C 
ATOM     28  C   UNL     1       5.481   4.275  18.735  0.00  0.00    +0.000 C 
ATOM     29  C   UNL     1       4.550   3.236  19.332  0.00  0.00    +0.000 C 
ATOM     30  O   UNL     1       4.967   2.405  20.138  0.00  0.00    +0.000 OA
ENDBRANCH  18  19
ENDBRANCH  17  18
ENDBRANCH  16  17
ENDBRANCH   1  16
TORSDOF 6
ENDMDL
