MODEL 1
REMARK VINA RESULT:      -6.0      0.000      0.000
REMARK  Name = 
REMARK  8 active torsions:
REMARK  status: ('A' for Active; 'I' for Inactive)
REMARK    1  A    between atoms: C_1  and  C_2
REMARK    2  A    between atoms: C_2  and  C_3
REMARK    3  A    between atoms: N_5  and  C_6
REMARK    4  A    between atoms: C_6  and  C_7
REMARK    5  A    between atoms: C_7  and  C_8
REMARK    6  A    between atoms: C_8  and  C_9
REMARK    7  A    between atoms: C_13  and  O_14
REMARK    8  A    between atoms: O_14  and  C_15
REMARK                            x       y       z     vdW  Elec       q    Type
REMARK                         _______ _______ _______ _____ _____    ______ ____
ROOT
ATOM      1  C   UNL     1       5.237   3.611  16.275  0.00  0.00    +0.000 C 
ENDROOT
BRANCH   1   2
ATOM      2  C   UNL     1       3.977   3.952  17.046  0.00  0.00    +0.000 A 
ATOM      3  C   UNL     1       2.978   3.013  17.337  0.00  0.00    +0.000 A 
ATOM      4  C   UNL     1       1.822   3.390  18.019  0.00  0.00    +0.000 A 
ATOM      5  C   UNL     1       1.649   4.712  18.418  0.00  0.00    +0.000 A 
ATOM      6  C   UNL     1       2.631   5.666  18.151  0.00  0.00    +0.000 A 
ATOM      7  C   UNL     1       3.792   5.283  17.472  0.00  0.00    +0.000 A 
BRANCH   6   8
ATOM      8  O   UNL     1       2.334   6.926  18.595  0.00  0.00    +0.000 OA
ATOM      9  C   UNL     1       2.895   8.013  17.873  0.00  0.00    +0.000 C 
ENDBRANCH   6   8
ENDBRANCH   1   2
BRANCH   1  10
ATOM     10  C   UNL     1       5.566   4.529  15.092  0.00  0.00    +0.000 C 
BRANCH  10  11
ATOM     11  C   UNL     1       6.993   5.063  15.167  0.00  0.00    +0.000 C 
BRANCH  11  14
ATOM     12  C   UNL     1       7.282   6.481  17.161  0.00  0.00    +0.000 C 
ATOM     13  O   UNL     1       6.775   7.456  16.617  0.00  0.00    +0.000 OA
ATOM     14  N   UNL     1       7.407   5.256  16.542  0.00  0.00    +0.000 N 
ATOM     15  H   UNL     1       7.940   4.525  16.998  0.00  0.00    +0.000 HD
BRANCH  12  17
ATOM     16  C   UNL     1       7.150   5.473  19.458  0.00  0.00    +0.000 C 
ATOM     17  C   UNL     1       7.832   6.502  18.572  0.00  0.00    +0.000 C 
ENDBRANCH  12  17
ENDBRANCH  11  14
ENDBRANCH  10  11
ENDBRANCH   1  10
TORSDOF 6
ENDMDL
MODEL 2
REMARK VINA RESULT:      -6.0      1.629      2.379
REMARK  Name = 
REMARK  8 active torsions:
REMARK  status: ('A' for Active; 'I' for Inactive)
REMARK    1  A    between atoms: C_1  and  C_2
REMARK    2  A    between atoms: C_2  and  C_3
REMARK    3  A    between atoms: N_5  and  C_6
REMARK    4  A    between atoms: C_6  and  C_7
REMARK    5  A    between atoms: C_7  and  C_8
REMARK    6  A    between atoms: C_8  and  C_9
REMARK    7  A    between atoms: C_13  and  O_14
REMARK    8  A    between atoms: O_14  and  C_15
REMARK                            x       y       z     vdW  Elec       q    Type
REMARK                         _______ _______ _______ _____ _____    ______ ____
ROOT
ATOM      1  C   UNL     1       4.777   3.722  17.059  0.00  0.00    +0.000 C 
ENDROOT
BRANCH   1   2
ATOM      2  C   UNL     1       3.955   4.613  17.968  0.00  0.00    +0.000 A 
ATOM      3  C   UNL     1       3.610   5.932  17.643  0.00  0.00    +0.000 A 
ATOM      4  C   UNL     1       2.882   6.720  18.534  0.00  0.00    +0.000 A 
ATOM      5  C   UNL     1       2.491   6.198  19.763  0.00  0.00    +0.000 A 
ATOM      6  C   UNL     1       2.810   4.886  20.110  0.00  0.00    +0.000 A 
ATOM      7  C   UNL     1       3.537   4.098  19.212  0.00  0.00    +0.000 A 
BRANCH   6   8
ATOM      8  O   UNL     1       2.368   4.502  21.347  0.00  0.00    +0.000 OA
ATOM      9  C   UNL     1       2.085   3.122  21.531  0.00  0.00    +0.000 C 
ENDBRANCH   6   8
ENDBRANCH   1   2
BRANCH   1  10
ATOM     10  C   UNL     1       5.223   4.348  15.733  0.00  0.00    +0.000 C 
BRANCH  10  11
ATOM     11  C   UNL     1       6.739   4.499  15.657  0.00  0.00    +0.000 C 
BRANCH  11  14
ATOM     12  C   UNL     1       7.248   6.337  17.218  0.00  0.00    +0.000 C 
ATOM     13  O   UNL     1       6.728   7.179  16.493  0.00  0.00    +0.000 OA
ATOM     14  N   UNL     1       7.279   4.995  16.909  0.00  0.00    +0.000 N 
ATOM     15  H   UNL     1       7.824   4.367  17.487  0.00  0.00    +0.000 HD
BRANCH  12  17
ATOM     16  C   UNL     1       7.636   5.613  19.592  0.00  0.00    +0.000 C 
ATOM     17  C   UNL     1       7.919   6.667  18.535  0.00  0.00    +0.000 C 
ENDBRANCH  12  17
ENDBRANCH  11  14
ENDBRANCH  10  11
ENDBRANCH   1  10
TORSDOF 6
ENDMDL
MODEL 3
REMARK VINA RESULT:      -5.9      1.707      2.096
REMARK  Name = 
REMARK  8 active torsions:
REMARK  status: ('A' for Active; 'I' for Inactive)
REMARK    1  A    between atoms: C_1  and  C_2
REMARK    2  A    between atoms: C_2  and  C_3
REMARK    3  A    between atoms: N_5  and  C_6
REMARK    4  A    between atoms: C_6  and  C_7
REMARK    5  A    between atoms: C_7  and  C_8
REMARK    6  A    between atoms: C_8  and  C_9
REMARK    7  A    between atoms: C_13  and  O_14
REMARK    8  A    between atoms: O_14  and  C_15
REMARK                            x       y       z     vdW  Elec       q    Type
REMARK                         _______ _______ _______ _____ _____    ______ ____
ROOT
ATOM      1  C   UNL     1       4.631   5.176  16.526  0.00  0.00    +0.000 C 
ENDROOT
BRANCH   1   2
ATOM      2  C   UNL     1       3.786   4.234  17.359  0.00  0.00    +0.000 A 
ATOM      3  C   UNL     1       3.797   2.842  17.193  0.00  0.00    +0.000 A 
ATOM      4  C   UNL     1       2.970   2.025  17.964  0.00  0.00    +0.000 A 
ATOM      5  C   UNL     1       2.121   2.590  18.911  0.00  0.00    +0.000 A 
ATOM      6  C   UNL     1       2.096   3.971  19.106  0.00  0.00    +0.000 A 
ATOM      7  C   UNL     1       2.930   4.786  18.334  0.00  0.00    +0.000 A 
BRANCH   6   8
ATOM      8  O   UNL     1       1.216   4.392  20.064  0.00  0.00    +0.000 OA
ATOM      9  C   UNL     1       1.579   5.545  20.812  0.00  0.00    +0.000 C 
ENDBRANCH   6   8
ENDBRANCH   1   2
BRANCH   1  10
ATOM     10  C   UNL     1       5.459   4.525  15.413  0.00  0.00    +0.000 C 
BRANCH  10  11
ATOM     11  C   UNL     1       6.937   4.438  15.780  0.00  0.00    +0.000 C 
BRANCH  11  14
ATOM     12  C   UNL     1       7.593   5.474  17.918  0.00  0.00    +0.000 C 
ATOM     13  O   UNL     1       7.529   4.410  18.524  0.00  0.00    +0.000 OA
ATOM     14  N   UNL     1       7.348   5.585  16.567  0.00  0.00    +0.000 N 
ATOM     15  H   UNL     1       7.300   6.506  16.147  0.00  0.00    +0.000 HD
BRANCH  12  17
ATOM     16  C   UNL     1       7.773   7.962  17.622  0.00  0.00    +0.000 C 
ATOM     17  C   UNL     1       7.944   6.792  18.577  0.00  0.00    +0.000 C 
ENDBRANCH  12  17
ENDBRANCH  11  14
ENDBRANCH  10  11
ENDBRANCH   1  10
TORSDOF 6
ENDMDL
MODEL 4
REMARK VINA RESULT:      -5.8      2.373      4.026
REMARK  Name = 
REMARK  8 active torsions:
REMARK  status: ('A' for Active; 'I' for Inactive)
REMARK    1  A    between atoms: C_1  and  C_2
REMARK    2  A    between atoms: C_2  and  C_3
REMARK    3  A    between atoms: N_5  and  C_6
REMARK    4  A    between atoms: C_6  and  C_7
REMARK    5  A    between atoms: C_7  and  C_8
REMARK    6  A    between atoms: C_8  and  C_9
REMARK    7  A    between atoms: C_13  and  O_14
REMARK    8  A    between atoms: O_14  and  C_15
REMARK                            x       y       z     vdW  Elec       q    Type
REMARK                         _______ _______ _______ _____ _____    ______ ____
ROOT
ATOM      1  C   UNL     1       4.190   5.394  17.044  0.00  0.00    +0.000 C 
ENDROOT
BRANCH   1   2
ATOM      2  C   UNL     1       3.260   5.454  18.239  0.00  0.00    +0.000 A 
ATOM      3  C   UNL     1       3.019   6.627  18.967  0.00  0.00    +0.000 A 
ATOM      4  C   UNL     1       2.180   6.616  20.081  0.00  0.00    +0.000 A 
ATOM      5  C   UNL     1       1.573   5.430  20.483  0.00  0.00    +0.000 A 
ATOM      6  C   UNL     1       1.786   4.249  19.772  0.00  0.00    +0.000 A 
ATOM      7  C   UNL     1       2.624   4.266  18.652  0.00  0.00    +0.000 A 
BRANCH   6   8
ATOM      8  O   UNL     1       1.132   3.158  20.276  0.00  0.00    +0.000 OA
ATOM      9  C   UNL     1       1.592   2.648  21.519  0.00  0.00    +0.000 C 
ENDBRANCH   6   8
ENDBRANCH   1   2
BRANCH   1  10
ATOM     10  C   UNL     1       4.606   3.991  16.589  0.00  0.00    +0.000 C 
BRANCH  10  11
ATOM     11  C   UNL     1       6.064   3.947  16.141  0.00  0.00    +0.000 C 
BRANCH  11  14
ATOM     12  C   UNL     1       6.929   4.495  13.899  0.00  0.00    +0.000 C 
ATOM     13  O   UNL     1       7.600   5.431  14.319  0.00  0.00    +0.000 OA
ATOM     14  N   UNL     1       6.165   3.691  14.717  0.00  0.00    +0.000 N 
ATOM     15  H   UNL     1       5.541   3.011  14.299  0.00  0.00    +0.000 HD
BRANCH  12  17
ATOM     16  C   UNL     1       5.714   3.141  12.167  0.00  0.00    +0.000 C 
ATOM     17  C   UNL     1       6.854   4.109  12.436  0.00  0.00    +0.000 C 
ENDBRANCH  12  17
ENDBRANCH  11  14
ENDBRANCH  10  11
ENDBRANCH   1  10
TORSDOF 6
ENDMDL
MODEL 5
REMARK VINA RESULT:      -5.8      2.680      5.501
REMARK  Name = 
REMARK  8 active torsions:
REMARK  status: ('A' for Active; 'I' for Inactive)
REMARK    1  A    between atoms: C_1  and  C_2
REMARK    2  A    between atoms: C_2  and  C_3
REMARK    3  A    between atoms: N_5  and  C_6
REMARK    4  A    between atoms: C_6  and  C_7
REMARK    5  A    between atoms: C_7  and  C_8
REMARK    6  A    between atoms: C_8  and  C_9
REMARK    7  A    between atoms: C_13  and  O_14
REMARK    8  A    between atoms: O_14  and  C_15
REMARK                            x       y       z     vdW  Elec       q    Type
REMARK                         _______ _______ _______ _____ _____    ______ ____
ROOT
ATOM      1  C   UNL     1       2.041   6.234  20.183  0.00  0.00    +0.000 C 
ENDROOT
BRANCH   1   2
ATOM      2  C   UNL     1       3.213   6.240  19.221  0.00  0.00    +0.000 A 
ATOM      3  C   UNL     1       3.208   6.944  18.010  0.00  0.00    +0.000 A 
ATOM      4  C   UNL     1       4.301   6.885  17.146  0.00  0.00    +0.000 A 
ATOM      5  C   UNL     1       5.413   6.119  17.482  0.00  0.00    +0.000 A 
ATOM      6  C   UNL     1       5.450   5.416  18.686  0.00  0.00    +0.000 A 
ATOM      7  C   UNL     1       4.354   5.482  19.552  0.00  0.00    +0.000 A 
BRANCH   6   8
ATOM      8  O   UNL     1       6.600   4.702  18.890  0.00  0.00    +0.000 OA
ATOM      9  C   UNL     1       7.821   5.427  18.868  0.00  0.00    +0.000 C 
ENDBRANCH   6   8
ENDBRANCH   1   2
BRANCH   1  10
ATOM     10  C   UNL     1       1.868   4.961  21.018  0.00  0.00    +0.000 C 
BRANCH  10  11
ATOM     11  C   UNL     1       1.001   3.927  20.307  0.00  0.00    +0.000 C 
BRANCH  11  14
ATOM     12  C   UNL     1       1.793   3.129  18.114  0.00  0.00    +0.000 C 
ATOM     13  O   UNL     1       1.150   3.976  17.504  0.00  0.00    +0.000 OA
ATOM     14  N   UNL     1       1.807   3.042  19.489  0.00  0.00    +0.000 N 
ATOM     15  H   UNL     1       2.260   2.250  19.930  0.00  0.00    +0.000 HD
BRANCH  12  17
ATOM     16  C   UNL     1       3.687   1.500  18.380  0.00  0.00    +0.000 C 
ATOM     17  C   UNL     1       2.645   2.077  17.436  0.00  0.00    +0.000 C 
ENDBRANCH  12  17
ENDBRANCH  11  14
ENDBRANCH  10  11
ENDBRANCH   1  10
TORSDOF 6
ENDMDL
MODEL 6
REMARK VINA RESULT:      -5.8      2.820      4.428
REMARK  Name = 
REMARK  8 active torsions:
REMARK  status: ('A' for Active; 'I' for Inactive)
REMARK    1  A    between atoms: C_1  and  C_2
REMARK    2  A    between atoms: C_2  and  C_3
REMARK    3  A    between atoms: N_5  and  C_6
REMARK    4  A    between atoms: C_6  and  C_7
REMARK    5  A    between atoms: C_7  and  C_8
REMARK    6  A    between atoms: C_8  and  C_9
REMARK    7  A    between atoms: C_13  and  O_14
REMARK    8  A    between atoms: O_14  and  C_15
REMARK                            x       y       z     vdW  Elec       q    Type
REMARK                         _______ _______ _______ _____ _____    ______ ____
ROOT
ATOM      1  C   UNL     1       4.746   4.270  15.886  0.00  0.00    +0.000 C 
ENDROOT
BRANCH   1   2
ATOM      2  C   UNL     1       3.907   4.646  17.091  0.00  0.00    +0.000 A 
ATOM      3  C   UNL     1       4.116   5.812  17.839  0.00  0.00    +0.000 A 
ATOM      4  C   UNL     1       3.337   6.089  18.961  0.00  0.00    +0.000 A 
ATOM      5  C   UNL     1       2.338   5.202  19.351  0.00  0.00    +0.000 A 
ATOM      6  C   UNL     1       2.100   4.038  18.620  0.00  0.00    +0.000 A 
ATOM      7  C   UNL     1       2.881   3.767  17.492  0.00  0.00    +0.000 A 
BRANCH   6   8
ATOM      8  O   UNL     1       1.093   3.255  19.113  0.00  0.00    +0.000 OA
ATOM      9  C   UNL     1       0.954   3.197  20.526  0.00  0.00    +0.000 C 
ENDBRANCH   6   8
ENDBRANCH   1   2
BRANCH   1  10
ATOM     10  C   UNL     1       5.942   5.183  15.593  0.00  0.00    +0.000 C 
BRANCH  10  11
ATOM     11  C   UNL     1       6.874   4.581  14.546  0.00  0.00    +0.000 C 
BRANCH  11  14
ATOM     12  C   UNL     1       6.406   3.521  12.370  0.00  0.00    +0.000 C 
ATOM     13  O   UNL     1       7.231   4.216  11.786  0.00  0.00    +0.000 OA
ATOM     14  N   UNL     1       6.179   3.607  13.727  0.00  0.00    +0.000 N 
ATOM     15  H   UNL     1       5.405   3.093  14.131  0.00  0.00    +0.000 HD
BRANCH  12  17
ATOM     16  C   UNL     1       6.352   1.304  11.192  0.00  0.00    +0.000 C 
ATOM     17  C   UNL     1       5.538   2.492  11.678  0.00  0.00    +0.000 C 
ENDBRANCH  12  17
ENDBRANCH  11  14
ENDBRANCH  10  11
ENDBRANCH   1  10
TORSDOF 6
ENDMDL
MODEL 7
REMARK VINA RESULT:      -5.8      3.443      5.199
REMARK  Name = 
REMARK  8 active torsions:
REMARK  status: ('A' for Active; 'I' for Inactive)
REMARK    1  A    between atoms: C_1  and  C_2
REMARK    2  A    between atoms: C_2  and  C_3
REMARK    3  A    between atoms: N_5  and  C_6
REMARK    4  A    between atoms: C_6  and  C_7
REMARK    5  A    between atoms: C_7  and  C_8
REMARK    6  A    between atoms: C_8  and  C_9
REMARK    7  A    between atoms: C_13  and  O_14
REMARK    8  A    between atoms: O_14  and  C_15
REMARK                            x       y       z     vdW  Elec       q    Type
REMARK                         _______ _______ _______ _____ _____    ______ ____
ROOT
ATOM      1  C   UNL     1       5.914   3.730  15.174  0.00  0.00    +0.000 C 
ENDROOT
BRANCH   1   2
ATOM      2  C   UNL     1       5.065   4.574  16.104  0.00  0.00    +0.000 A 
ATOM      3  C   UNL     1       5.185   5.967  16.200  0.00  0.00    +0.000 A 
ATOM      4  C   UNL     1       4.403   6.690  17.100  0.00  0.00    +0.000 A 
ATOM      5  C   UNL     1       3.491   6.028  17.916  0.00  0.00    +0.000 A 
ATOM      6  C   UNL     1       3.341   4.644  17.835  0.00  0.00    +0.000 A 
ATOM      7  C   UNL     1       4.125   3.923  16.928  0.00  0.00    +0.000 A 
BRANCH   6   8
ATOM      8  O   UNL     1       2.414   4.122  18.694  0.00  0.00    +0.000 OA
ATOM      9  C   UNL     1       1.674   2.997  18.239  0.00  0.00    +0.000 C 
ENDBRANCH   6   8
ENDBRANCH   1   2
BRANCH   1  10
ATOM     10  C   UNL     1       6.655   4.490  14.069  0.00  0.00    +0.000 C 
BRANCH  10  11
ATOM     11  C   UNL     1       6.601   3.752  12.735  0.00  0.00    +0.000 C 
BRANCH  11  14
ATOM     12  C   UNL     1       4.794   2.666  11.460  0.00  0.00    +0.000 C 
ATOM     13  O   UNL     1       5.466   1.663  11.244  0.00  0.00    +0.000 OA
ATOM     14  N   UNL     1       5.252   3.731  12.204  0.00  0.00    +0.000 N 
ATOM     15  H   UNL     1       4.698   4.578  12.248  0.00  0.00    +0.000 HD
BRANCH  12  17
ATOM     16  C   UNL     1       3.293   4.046   9.992  0.00  0.00    +0.000 C 
ATOM     17  C   UNL     1       3.386   2.858  10.936  0.00  0.00    +0.000 C 
ENDBRANCH  12  17
ENDBRANCH  11  14
ENDBRANCH  10  11
ENDBRANCH   1  10
TORSDOF 6
ENDMDL
MODEL 8
REMARK VINA RESULT:      -5.8      2.480      3.851
REMARK  Name = 
REMARK  8 active torsions:
REMARK  status: ('A' for Active; 'I' for Inactive)
REMARK    1  A    between atoms: C_1  and  C_2
REMARK    2  A    between atoms: C_2  and  C_3
REMARK    3  A    between atoms: N_5  and  C_6
REMARK    4  A    between atoms: C_6  and  C_7
REMARK    5  A    between atoms: C_7  and  C_8
REMARK    6  A    between atoms: C_8  and  C_9
REMARK    7  A    between atoms: C_13  and  O_14
REMARK    8  A    between atoms: O_14  and  C_15
REMARK                            x       y       z     vdW  Elec       q    Type
REMARK                         _______ _______ _______ _____ _____    ______ ____
ROOT
ATOM      1  C   UNL     1       4.949   4.327  16.041  0.00  0.00    +0.000 C 
ENDROOT
BRANCH   1   2
ATOM      2  C   UNL     1       4.193   4.631  17.319  0.00  0.00    +0.000 A 
ATOM      3  C   UNL     1       3.904   3.662  18.289  0.00  0.00    +0.000 A 
ATOM      4  C   UNL     1       3.174   3.990  19.430  0.00  0.00    +0.000 A 
ATOM      5  C   UNL     1       2.722   5.293  19.616  0.00  0.00    +0.000 A 
ATOM      6  C   UNL     1       3.004   6.282  18.673  0.00  0.00    +0.000 A 
ATOM      7  C   UNL     1       3.741   5.949  17.532  0.00  0.00    +0.000 A 
BRANCH   6   8
ATOM      8  O   UNL     1       2.498   7.516  18.977  0.00  0.00    +0.000 OA
ATOM      9  C   UNL     1       2.302   8.417  17.896  0.00  0.00    +0.000 C 
ENDBRANCH   6   8
ENDBRANCH   1   2
BRANCH   1  10
ATOM     10  C   UNL     1       6.401   4.813  15.990  0.00  0.00    +0.000 C 
BRANCH  10  11
ATOM     11  C   UNL     1       7.022   4.608  14.612  0.00  0.00    +0.000 C 
BRANCH  11  14
ATOM     12  C   UNL     1       6.411   3.573  12.460  0.00  0.00    +0.000 C 
ATOM     13  O   UNL     1       7.238   4.231  11.839  0.00  0.00    +0.000 OA
ATOM     14  N   UNL     1       6.249   3.666  13.825  0.00  0.00    +0.000 N 
ATOM     15  H   UNL     1       5.472   3.187  14.265  0.00  0.00    +0.000 HD
BRANCH  12  17
ATOM     16  C   UNL     1       4.190   3.254  11.331  0.00  0.00    +0.000 C 
ATOM     17  C   UNL     1       5.468   2.584  11.808  0.00  0.00    +0.000 C 
ENDBRANCH  12  17
ENDBRANCH  11  14
ENDBRANCH  10  11
ENDBRANCH   1  10
TORSDOF 6
ENDMDL
MODEL 9
REMARK VINA RESULT:      -5.8      2.873      5.278
REMARK  Name = 
REMARK  8 active torsions:
REMARK  status: ('A' for Active; 'I' for Inactive)
REMARK    1  A    between atoms: C_1  and  C_2
REMARK    2  A    between atoms: C_2  and  C_3
REMARK    3  A    between atoms: N_5  and  C_6
REMARK    4  A    between atoms: C_6  and  C_7
REMARK    5  A    between atoms: C_7  and  C_8
REMARK    6  A    between atoms: C_8  and  C_9
REMARK    7  A    between atoms: C_13  and  O_14
REMARK    8  A    between atoms: O_14  and  C_15
REMARK                            x       y       z     vdW  Elec       q    Type
REMARK                         _______ _______ _______ _____ _____    ______ ____
ROOT
ATOM      1  C   UNL     1       3.214   4.673  17.359  0.00  0.00    +0.000 C 
ENDROOT
BRANCH   1   2
ATOM      2  C   UNL     1       4.678   4.615  16.969  0.00  0.00    +0.000 A 
ATOM      3  C   UNL     1       5.114   4.391  15.657  0.00  0.00    +0.000 A 
ATOM      4  C   UNL     1       6.475   4.312  15.361  0.00  0.00    +0.000 A 
ATOM      5  C   UNL     1       7.416   4.454  16.375  0.00  0.00    +0.000 A 
ATOM      6  C   UNL     1       7.012   4.689  17.690  0.00  0.00    +0.000 A 
ATOM      7  C   UNL     1       5.647   4.773  17.981  0.00  0.00    +0.000 A 
BRANCH   6   8
ATOM      8  O   UNL     1       8.038   4.806  18.586  0.00  0.00    +0.000 OA
ATOM      9  C   UNL     1       7.910   5.808  19.586  0.00  0.00    +0.000 C 
ENDBRANCH   6   8
ENDBRANCH   1   2
BRANCH   1  10
ATOM     10  C   UNL     1       2.397   3.407  17.076  0.00  0.00    +0.000 C 
BRANCH  10  11
ATOM     11  C   UNL     1       2.890   2.217  17.893  0.00  0.00    +0.000 C 
BRANCH  11  14
ATOM     12  C   UNL     1       3.410   2.435  20.292  0.00  0.00    +0.000 C 
ATOM     13  O   UNL     1       4.618   2.491  20.088  0.00  0.00    +0.000 OA
ATOM     14  N   UNL     1       2.482   2.329  19.279  0.00  0.00    +0.000 N 
ATOM     15  H   UNL     1       1.510   2.168  19.515  0.00  0.00    +0.000 HD
BRANCH  12  17
ATOM     16  C   UNL     1       1.308   2.795  21.619  0.00  0.00    +0.000 C 
ATOM     17  C   UNL     1       2.792   2.473  21.674  0.00  0.00    +0.000 C 
ENDBRANCH  12  17
ENDBRANCH  11  14
ENDBRANCH  10  11
ENDBRANCH   1  10
TORSDOF 6
ENDMDL
