MODEL 1
REMARK VINA RESULT:      -9.2      0.000      0.000
REMARK  Name = 
REMARK  10 active torsions:
REMARK  status: ('A' for Active; 'I' for Inactive)
REMARK    1  A    between atoms: C_1  and  C_2
REMARK    2  A    between atoms: C_2  and  N_3
REMARK    3  A    between atoms: C_2  and  C_32
REMARK    4  A    between atoms: C_4  and  C_6
REMARK    5  A    between atoms: C_6  and  C_7
REMARK    6  A    between atoms: C_6  and  C_8
REMARK    7  A    between atoms: C_6  and  N_18
REMARK    8  A    between atoms: C_8  and  C_9
REMARK    9  A    between atoms: C_19  and  O_21
REMARK   10  A    between atoms: O_21  and  C_22
REMARK                            x       y       z     vdW  Elec       q    Type
REMARK                         _______ _______ _______ _____ _____    ______ ____
ROOT
ATOM      1  C   UNL     1      -0.181  11.018  19.056  0.00  0.00    +0.000 C 
ATOM      2  C   UNL     1      -1.116  10.042  19.807  0.00  0.00    +0.000 C 
ENDROOT
BRANCH   1   4
ATOM      3  N   UNL     1       0.374  11.711  21.471  0.00  0.00    +0.000 N 
ATOM      4  C   UNL     1       0.707  11.715  20.141  0.00  0.00    +0.000 C 
ATOM      5  O   UNL     1       1.766  12.280  19.833  0.00  0.00    +0.000 OA
ATOM      6  H   UNL     1       1.055  12.203  22.036  0.00  0.00    +0.000 HD
BRANCH   3   8
ATOM      7  C   UNL     1      -0.350   9.995  23.091  0.00  0.00    +0.000 C 
ATOM      8  C   UNL     1      -0.773  11.136  22.172  0.00  0.00    +0.000 C 
BRANCH   8   9
ATOM      9  C   UNL     1      -1.633  12.167  22.876  0.00  0.00    +0.000 A 
ATOM     10  C   UNL     1      -1.152  13.489  22.973  0.00  0.00    +0.000 A 
ATOM     11  C   UNL     1      -1.886  14.479  23.627  0.00  0.00    +0.000 A 
ATOM     12  C   UNL     1      -3.115  14.163  24.193  0.00  0.00    +0.000 A 
ATOM     13  C   UNL     1      -3.613  12.864  24.097  0.00  0.00    +0.000 A 
ATOM     14  C   UNL     1      -2.882  11.871  23.437  0.00  0.00    +0.000 A 
ENDBRANCH   8   9
ENDBRANCH   3   8
ENDBRANCH   1   4
BRANCH   1  15
ATOM     15  N   UNL     1       0.700  10.173  18.199  0.00  0.00    +0.000 N 
ATOM     16  C   UNL     1       1.511   9.185  18.698  0.00  0.00    +0.000 C 
ATOM     17  O   UNL     1       1.560   8.869  19.880  0.00  0.00    +0.000 OA
ATOM     18  H   UNL     1       0.696  10.342  17.198  0.00  0.00    +0.000 HD
BRANCH  16  19
ATOM     19  O   UNL     1       2.281   8.634  17.725  0.00  0.00    +0.000 OA
BRANCH  19  20
ATOM     20  C   UNL     1       2.885   7.372  18.094  0.00  0.00    +0.000 C 
ATOM     21  C   UNL     1       4.124   7.098  17.233  0.00  0.00    +0.000 C 
ATOM     22  C   UNL     1       4.802   5.804  17.673  0.00  0.00    +0.000 C 
ATOM     23  C   UNL     1       3.840   4.646  17.766  0.00  0.00    +0.000 A 
ATOM     24  C   UNL     1       4.346   3.335  17.760  0.00  0.00    +0.000 A 
ATOM     25  C   UNL     1       3.488   2.242  17.865  0.00  0.00    +0.000 A 
ATOM     26  C   UNL     1       2.117   2.447  17.988  0.00  0.00    +0.000 A 
ATOM     27  C   UNL     1       1.604   3.745  18.011  0.00  0.00    +0.000 A 
ATOM     28  C   UNL     1       2.456   4.856  17.909  0.00  0.00    +0.000 A 
ATOM     29  C   UNL     1       1.860   6.247  17.895  0.00  0.00    +0.000 C 
ENDBRANCH  19  20
ENDBRANCH  16  19
ENDBRANCH   1  15
BRANCH   1  30
ATOM     30  C   UNL     1      -0.938  12.075  18.188  0.00  0.00    +0.000 C 
BRANCH  30  31
ATOM     31  C   UNL     1      -2.360  11.694  17.846  0.00  0.00    +0.000 A 
ATOM     32  C   UNL     1      -2.821  11.068  16.702  0.00  0.00    +0.000 A 
ATOM     33  N   UNL     1      -4.146  10.770  16.878  0.00  0.00    +0.000 N 
ATOM     34  C   UNL     1      -4.581  11.257  18.087  0.00  0.00    +0.000 A 
ATOM     35  C   UNL     1      -5.830  11.150  18.710  0.00  0.00    +0.000 A 
ATOM     36  C   UNL     1      -6.006  11.826  19.921  0.00  0.00    +0.000 A 
ATOM     37  C   UNL     1      -4.983  12.594  20.472  0.00  0.00    +0.000 A 
ATOM     38  C   UNL     1      -3.726  12.645  19.860  0.00  0.00    +0.000 A 
ATOM     39  C   UNL     1      -3.509  11.939  18.662  0.00  0.00    +0.000 A 
ATOM     40  H   UNL     1      -4.723  10.269  16.219  0.00  0.00    +0.000 HD
ENDBRANCH  30  31
ENDBRANCH   1  30
TORSDOF 8
ENDMDL
MODEL 2
REMARK VINA RESULT:      -8.7      3.664     10.323
REMARK  Name = 
REMARK  10 active torsions:
REMARK  status: ('A' for Active; 'I' for Inactive)
REMARK    1  A    between atoms: C_1  and  C_2
REMARK    2  A    between atoms: C_2  and  N_3
REMARK    3  A    between atoms: C_2  and  C_32
REMARK    4  A    between atoms: C_4  and  C_6
REMARK    5  A    between atoms: C_6  and  C_7
REMARK    6  A    between atoms: C_6  and  C_8
REMARK    7  A    between atoms: C_6  and  N_18
REMARK    8  A    between atoms: C_8  and  C_9
REMARK    9  A    between atoms: C_19  and  O_21
REMARK   10  A    between atoms: O_21  and  C_22
REMARK                            x       y       z     vdW  Elec       q    Type
REMARK                         _______ _______ _______ _____ _____    ______ ____
ROOT
ATOM      1  C   UNL     1       5.094   5.634  17.718  0.00  0.00    +0.000 C 
ATOM      2  C   UNL     1       6.018   6.873  17.754  0.00  0.00    +0.000 C 
ENDROOT
BRANCH   1   4
ATOM      3  N   UNL     1       5.297   3.247  18.654  0.00  0.00    +0.000 N 
ATOM      4  C   UNL     1       5.860   4.480  18.446  0.00  0.00    +0.000 C 
ATOM      5  O   UNL     1       7.023   4.636  18.842  0.00  0.00    +0.000 OA
ATOM      6  H   UNL     1       5.926   2.617  19.136  0.00  0.00    +0.000 HD
BRANCH   3   8
ATOM      7  C   UNL     1       4.056   1.279  17.830  0.00  0.00    +0.000 C 
ATOM      8  C   UNL     1       3.976   2.724  18.310  0.00  0.00    +0.000 C 
BRANCH   8   9
ATOM      9  C   UNL     1       2.942   2.922  19.401  0.00  0.00    +0.000 A 
ATOM     10  C   UNL     1       3.292   2.595  20.726  0.00  0.00    +0.000 A 
ATOM     11  C   UNL     1       2.379   2.734  21.771  0.00  0.00    +0.000 A 
ATOM     12  C   UNL     1       1.100   3.207  21.508  0.00  0.00    +0.000 A 
ATOM     13  C   UNL     1       0.737   3.549  20.205  0.00  0.00    +0.000 A 
ATOM     14  C   UNL     1       1.653   3.415  19.157  0.00  0.00    +0.000 A 
ENDBRANCH   8   9
ENDBRANCH   3   8
ENDBRANCH   1   4
BRANCH   1  15
ATOM     15  N   UNL     1       3.894   5.988  18.531  0.00  0.00    +0.000 N 
ATOM     16  C   UNL     1       3.163   7.132  18.333  0.00  0.00    +0.000 C 
ATOM     17  O   UNL     1       3.393   7.950  17.451  0.00  0.00    +0.000 OA
ATOM     18  H   UNL     1       3.609   5.347  19.264  0.00  0.00    +0.000 HD
BRANCH  16  19
ATOM     19  O   UNL     1       2.186   7.265  19.266  0.00  0.00    +0.000 OA
BRANCH  19  20
ATOM     20  C   UNL     1       1.692   8.618  19.416  0.00  0.00    +0.000 C 
ATOM     21  C   UNL     1       1.210   8.857  20.852  0.00  0.00    +0.000 C 
ATOM     22  C   UNL     1       0.760  10.305  21.026  0.00  0.00    +0.000 C 
ATOM     23  C   UNL     1      -0.212  10.744  19.962  0.00  0.00    +0.000 A 
ATOM     24  C   UNL     1      -1.015  11.874  20.193  0.00  0.00    +0.000 A 
ATOM     25  C   UNL     1      -1.911  12.321  19.223  0.00  0.00    +0.000 A 
ATOM     26  C   UNL     1      -2.005  11.651  18.007  0.00  0.00    +0.000 A 
ATOM     27  C   UNL     1      -1.201  10.537  17.759  0.00  0.00    +0.000 A 
ATOM     28  C   UNL     1      -0.293  10.077  18.726  0.00  0.00    +0.000 A 
ATOM     29  C   UNL     1       0.531   8.841  18.437  0.00  0.00    +0.000 C 
ENDBRANCH  19  20
ENDBRANCH  16  19
ENDBRANCH   1  15
BRANCH   1  30
ATOM     30  C   UNL     1       4.671   5.205  16.276  0.00  0.00    +0.000 C 
BRANCH  30  31
ATOM     31  C   UNL     1       5.800   5.202  15.272  0.00  0.00    +0.000 A 
ATOM     32  C   UNL     1       7.018   5.852  15.359  0.00  0.00    +0.000 A 
ATOM     33  N   UNL     1       7.798   5.446  14.309  0.00  0.00    +0.000 N 
ATOM     34  C   UNL     1       7.088   4.600  13.493  0.00  0.00    +0.000 A 
ATOM     35  C   UNL     1       7.482   3.906  12.344  0.00  0.00    +0.000 A 
ATOM     36  C   UNL     1       6.504   3.171  11.666  0.00  0.00    +0.000 A 
ATOM     37  C   UNL     1       5.184   3.151  12.110  0.00  0.00    +0.000 A 
ATOM     38  C   UNL     1       4.822   3.808  13.289  0.00  0.00    +0.000 A 
ATOM     39  C   UNL     1       5.796   4.521  14.013  0.00  0.00    +0.000 A 
ATOM     40  H   UNL     1       8.756   5.727  14.152  0.00  0.00    +0.000 HD
ENDBRANCH  30  31
ENDBRANCH   1  30
TORSDOF 8
ENDMDL
MODEL 3
REMARK VINA RESULT:      -8.6      3.621     10.330
REMARK  Name = 
REMARK  10 active torsions:
REMARK  status: ('A' for Active; 'I' for Inactive)
REMARK    1  A    between atoms: C_1  and  C_2
REMARK    2  A    between atoms: C_2  and  N_3
REMARK    3  A    between atoms: C_2  and  C_32
REMARK    4  A    between atoms: C_4  and  C_6
REMARK    5  A    between atoms: C_6  and  C_7
REMARK    6  A    between atoms: C_6  and  C_8
REMARK    7  A    between atoms: C_6  and  N_18
REMARK    8  A    between atoms: C_8  and  C_9
REMARK    9  A    between atoms: C_19  and  O_21
REMARK   10  A    between atoms: O_21  and  C_22
REMARK                            x       y       z     vdW  Elec       q    Type
REMARK                         _______ _______ _______ _____ _____    ______ ____
ROOT
ATOM      1  C   UNL     1       5.012   5.341  17.830  0.00  0.00    +0.000 C 
ATOM      2  C   UNL     1       5.775   6.649  17.522  0.00  0.00    +0.000 C 
ENDROOT
BRANCH   1   4
ATOM      3  N   UNL     1       5.353   3.469  19.562  0.00  0.00    +0.000 N 
ATOM      4  C   UNL     1       5.678   4.720  19.103  0.00  0.00    +0.000 C 
ATOM      5  O   UNL     1       6.550   5.336  19.732  0.00  0.00    +0.000 OA
ATOM      6  H   UNL     1       5.876   3.219  20.392  0.00  0.00    +0.000 HD
BRANCH   3   8
ATOM      7  C   UNL     1       4.811   1.064  19.444  0.00  0.00    +0.000 C 
ATOM      8  C   UNL     1       4.398   2.482  19.064  0.00  0.00    +0.000 C 
BRANCH   8   9
ATOM      9  C   UNL     1       2.959   2.791  19.430  0.00  0.00    +0.000 A 
ATOM     10  C   UNL     1       1.946   2.460  18.508  0.00  0.00    +0.000 A 
ATOM     11  C   UNL     1       0.606   2.739  18.775  0.00  0.00    +0.000 A 
ATOM     12  C   UNL     1       0.256   3.351  19.973  0.00  0.00    +0.000 A 
ATOM     13  C   UNL     1       1.243   3.674  20.904  0.00  0.00    +0.000 A 
ATOM     14  C   UNL     1       2.587   3.391  20.640  0.00  0.00    +0.000 A 
ENDBRANCH   8   9
ENDBRANCH   3   8
ENDBRANCH   1   4
BRANCH   1  15
ATOM     15  N   UNL     1       3.619   5.745  18.179  0.00  0.00    +0.000 N 
ATOM     16  C   UNL     1       3.146   7.024  18.025  0.00  0.00    +0.000 C 
ATOM     17  O   UNL     1       3.799   7.944  17.551  0.00  0.00    +0.000 OA
ATOM     18  H   UNL     1       2.994   5.034  18.547  0.00  0.00    +0.000 HD
BRANCH  16  19
ATOM     19  O   UNL     1       1.883   7.149  18.507  0.00  0.00    +0.000 OA
BRANCH  19  20
ATOM     20  C   UNL     1       1.728   8.196  19.494  0.00  0.00    +0.000 C 
ATOM     21  C   UNL     1       1.315   7.603  20.846  0.00  0.00    +0.000 C 
ATOM     22  C   UNL     1       1.225   8.700  21.902  0.00  0.00    +0.000 C 
ATOM     23  C   UNL     1       0.387   9.871  21.454  0.00  0.00    +0.000 A 
ATOM     24  C   UNL     1      -0.123  10.756  22.419  0.00  0.00    +0.000 A 
ATOM     25  C   UNL     1      -0.884  11.861  22.040  0.00  0.00    +0.000 A 
ATOM     26  C   UNL     1      -1.134  12.098  20.691  0.00  0.00    +0.000 A 
ATOM     27  C   UNL     1      -0.620  11.235  19.722  0.00  0.00    +0.000 A 
ATOM     28  C   UNL     1       0.151  10.120  20.090  0.00  0.00    +0.000 A 
ATOM     29  C   UNL     1       0.655   9.183  19.014  0.00  0.00    +0.000 C 
ENDBRANCH  19  20
ENDBRANCH  16  19
ENDBRANCH   1  15
BRANCH   1  30
ATOM     30  C   UNL     1       5.005   4.321  16.646  0.00  0.00    +0.000 C 
BRANCH  30  31
ATOM     31  C   UNL     1       5.996   4.635  15.549  0.00  0.00    +0.000 A 
ATOM     32  C   UNL     1       7.170   5.360  15.645  0.00  0.00    +0.000 A 
ATOM     33  N   UNL     1       7.836   5.261  14.453  0.00  0.00    +0.000 N 
ATOM     34  C   UNL     1       7.085   4.548  13.551  0.00  0.00    +0.000 A 
ATOM     35  C   UNL     1       7.375   4.154  12.240  0.00  0.00    +0.000 A 
ATOM     36  C   UNL     1       6.369   3.495  11.527  0.00  0.00    +0.000 A 
ATOM     37  C   UNL     1       5.120   3.260  12.096  0.00  0.00    +0.000 A 
ATOM     38  C   UNL     1       4.868   3.613  13.425  0.00  0.00    +0.000 A 
ATOM     39  C   UNL     1       5.878   4.241  14.179  0.00  0.00    +0.000 A 
ATOM     40  H   UNL     1       8.745   5.656  14.259  0.00  0.00    +0.000 HD
ENDBRANCH  30  31
ENDBRANCH   1  30
TORSDOF 8
ENDMDL
MODEL 4
REMARK VINA RESULT:      -8.3      3.896     10.460
REMARK  Name = 
REMARK  10 active torsions:
REMARK  status: ('A' for Active; 'I' for Inactive)
REMARK    1  A    between atoms: C_1  and  C_2
REMARK    2  A    between atoms: C_2  and  N_3
REMARK    3  A    between atoms: C_2  and  C_32
REMARK    4  A    between atoms: C_4  and  C_6
REMARK    5  A    between atoms: C_6  and  C_7
REMARK    6  A    between atoms: C_6  and  C_8
REMARK    7  A    between atoms: C_6  and  N_18
REMARK    8  A    between atoms: C_8  and  C_9
REMARK    9  A    between atoms: C_19  and  O_21
REMARK   10  A    between atoms: O_21  and  C_22
REMARK                            x       y       z     vdW  Elec       q    Type
REMARK                         _______ _______ _______ _____ _____    ______ ____
ROOT
ATOM      1  C   UNL     1       5.029   5.226  17.332  0.00  0.00    +0.000 C 
ATOM      2  C   UNL     1       5.894   6.489  17.114  0.00  0.00    +0.000 C 
ENDROOT
BRANCH   1   4
ATOM      3  N   UNL     1       5.262   3.159  18.846  0.00  0.00    +0.000 N 
ATOM      4  C   UNL     1       5.745   4.374  18.432  0.00  0.00    +0.000 C 
ATOM      5  O   UNL     1       6.799   4.762  18.956  0.00  0.00    +0.000 OA
ATOM      6  H   UNL     1       5.843   2.740  19.560  0.00  0.00    +0.000 HD
BRANCH   3   8
ATOM      7  C   UNL     1       4.380   0.921  18.292  0.00  0.00    +0.000 C 
ATOM      8  C   UNL     1       4.076   2.408  18.437  0.00  0.00    +0.000 C 
BRANCH   8   9
ATOM      9  C   UNL     1       2.861   2.676  19.303  0.00  0.00    +0.000 A 
ATOM     10  C   UNL     1       1.611   2.845  18.673  0.00  0.00    +0.000 A 
ATOM     11  C   UNL     1       0.459   3.116  19.412  0.00  0.00    +0.000 A 
ATOM     12  C   UNL     1       0.538   3.218  20.795  0.00  0.00    +0.000 A 
ATOM     13  C   UNL     1       1.763   3.041  21.439  0.00  0.00    +0.000 A 
ATOM     14  C   UNL     1       2.918   2.764  20.700  0.00  0.00    +0.000 A 
ENDBRANCH   8   9
ENDBRANCH   3   8
ENDBRANCH   1   4
BRANCH   1  15
ATOM     15  N   UNL     1       3.728   5.705  17.881  0.00  0.00    +0.000 N 
ATOM     16  C   UNL     1       3.525   5.972  19.211  0.00  0.00    +0.000 C 
ATOM     17  O   UNL     1       4.396   5.888  20.068  0.00  0.00    +0.000 OA
ATOM     18  H   UNL     1       2.957   5.838  17.234  0.00  0.00    +0.000 HD
BRANCH  16  19
ATOM     19  O   UNL     1       2.231   6.296  19.463  0.00  0.00    +0.000 OA
BRANCH  19  20
ATOM     20  C   UNL     1       2.053   7.610  20.043  0.00  0.00    +0.000 C 
ATOM     21  C   UNL     1       1.079   7.548  21.225  0.00  0.00    +0.000 C 
ATOM     22  C   UNL     1       0.950   8.920  21.880  0.00  0.00    +0.000 C 
ATOM     23  C   UNL     1       0.653  10.013  20.886  0.00  0.00    +0.000 A 
ATOM     24  C   UNL     1       0.117  11.228  21.345  0.00  0.00    +0.000 A 
ATOM     25  C   UNL     1      -0.151  12.269  20.458  0.00  0.00    +0.000 A 
ATOM     26  C   UNL     1       0.125  12.111  19.103  0.00  0.00    +0.000 A 
ATOM     27  C   UNL     1       0.673  10.914  18.636  0.00  0.00    +0.000 A 
ATOM     28  C   UNL     1       0.950   9.859  19.519  0.00  0.00    +0.000 A 
ATOM     29  C   UNL     1       1.503   8.562  18.970  0.00  0.00    +0.000 C 
ENDBRANCH  19  20
ENDBRANCH  16  19
ENDBRANCH   1  15
BRANCH   1  30
ATOM     30  C   UNL     1       4.800   4.388  16.033  0.00  0.00    +0.000 C 
BRANCH  30  31
ATOM     31  C   UNL     1       5.854   4.590  14.968  0.00  0.00    +0.000 A 
ATOM     32  C   UNL     1       7.010   5.344  15.049  0.00  0.00    +0.000 A 
ATOM     33  N   UNL     1       7.751   5.118  13.919  0.00  0.00    +0.000 N 
ATOM     34  C   UNL     1       7.066   4.289  13.065  0.00  0.00    +0.000 A 
ATOM     35  C   UNL     1       7.441   3.750  11.829  0.00  0.00    +0.000 A 
ATOM     36  C   UNL     1       6.490   2.992  11.139  0.00  0.00    +0.000 A 
ATOM     37  C   UNL     1       5.211   2.802  11.656  0.00  0.00    +0.000 A 
ATOM     38  C   UNL     1       4.872   3.304  12.916  0.00  0.00    +0.000 A 
ATOM     39  C   UNL     1       5.825   4.036  13.650  0.00  0.00    +0.000 A 
ATOM     40  H   UNL     1       8.665   5.505  13.734  0.00  0.00    +0.000 HD
ENDBRANCH  30  31
ENDBRANCH   1  30
TORSDOF 8
ENDMDL
MODEL 5
REMARK VINA RESULT:      -8.3      1.463      2.487
REMARK  Name = 
REMARK  10 active torsions:
REMARK  status: ('A' for Active; 'I' for Inactive)
REMARK    1  A    between atoms: C_1  and  C_2
REMARK    2  A    between atoms: C_2  and  N_3
REMARK    3  A    between atoms: C_2  and  C_32
REMARK    4  A    between atoms: C_4  and  C_6
REMARK    5  A    between atoms: C_6  and  C_7
REMARK    6  A    between atoms: C_6  and  C_8
REMARK    7  A    between atoms: C_6  and  N_18
REMARK    8  A    between atoms: C_8  and  C_9
REMARK    9  A    between atoms: C_19  and  O_21
REMARK   10  A    between atoms: O_21  and  C_22
REMARK                            x       y       z     vdW  Elec       q    Type
REMARK                         _______ _______ _______ _____ _____    ______ ____
ROOT
ATOM      1  C   UNL     1       0.331  11.563  19.739  0.00  0.00    +0.000 C 
ATOM      2  C   UNL     1       1.399  11.731  20.844  0.00  0.00    +0.000 C 
ENDROOT
BRANCH   1   4
ATOM      3  N   UNL     1       0.083  14.121  19.852  0.00  0.00    +0.000 N 
ATOM      4  C   UNL     1       0.120  12.975  19.099  0.00  0.00    +0.000 C 
ATOM      5  O   UNL     1      -0.001  13.110  17.873  0.00  0.00    +0.000 OA
ATOM      6  H   UNL     1      -0.059  14.947  19.283  0.00  0.00    +0.000 HD
BRANCH   3   8
ATOM      7  C   UNL     1       1.204  15.433  21.617  0.00  0.00    +0.000 C 
ATOM      8  C   UNL     1       0.205  14.327  21.294  0.00  0.00    +0.000 C 
BRANCH   8   9
ATOM      9  C   UNL     1      -1.127  14.517  21.993  0.00  0.00    +0.000 A 
ATOM     10  C   UNL     1      -1.295  13.963  23.278  0.00  0.00    +0.000 A 
ATOM     11  C   UNL     1      -2.503  14.084  23.966  0.00  0.00    +0.000 A 
ATOM     12  C   UNL     1      -3.563  14.765  23.379  0.00  0.00    +0.000 A 
ATOM     13  C   UNL     1      -3.412  15.331  22.113  0.00  0.00    +0.000 A 
ATOM     14  C   UNL     1      -2.200  15.216  21.425  0.00  0.00    +0.000 A 
ENDBRANCH   8   9
ENDBRANCH   3   8
ENDBRANCH   1   4
BRANCH   1  15
ATOM     15  N   UNL     1       0.935  10.667  18.712  0.00  0.00    +0.000 N 
ATOM     16  C   UNL     1       1.377   9.397  18.987  0.00  0.00    +0.000 C 
ATOM     17  O   UNL     1       1.282   8.861  20.084  0.00  0.00    +0.000 OA
ATOM     18  H   UNL     1       1.020  11.018  17.763  0.00  0.00    +0.000 HD
BRANCH  16  19
ATOM     19  O   UNL     1       1.972   8.832  17.906  0.00  0.00    +0.000 OA
BRANCH  19  20
ATOM     20  C   UNL     1       2.675   7.600  18.196  0.00  0.00    +0.000 C 
ATOM     21  C   UNL     1       3.913   7.465  17.302  0.00  0.00    +0.000 C 
ATOM     22  C   UNL     1       4.693   6.204  17.660  0.00  0.00    +0.000 C 
ATOM     23  C   UNL     1       3.821   4.975  17.704  0.00  0.00    +0.000 A 
ATOM     24  C   UNL     1       4.421   3.707  17.619  0.00  0.00    +0.000 A 
ATOM     25  C   UNL     1       3.648   2.548  17.677  0.00  0.00    +0.000 A 
ATOM     26  C   UNL     1       2.269   2.644  17.833  0.00  0.00    +0.000 A 
ATOM     27  C   UNL     1       1.662   3.898  17.935  0.00  0.00    +0.000 A 
ATOM     28  C   UNL     1       2.428   5.073  17.881  0.00  0.00    +0.000 A 
ATOM     29  C   UNL     1       1.731   6.414  17.952  0.00  0.00    +0.000 C 
ENDBRANCH  19  20
ENDBRANCH  16  19
ENDBRANCH   1  15
BRANCH   1  30
ATOM     30  C   UNL     1      -1.021  10.972  20.254  0.00  0.00    +0.000 C 
BRANCH  30  31
ATOM     31  C   UNL     1      -2.226  11.370  19.432  0.00  0.00    +0.000 A 
ATOM     32  C   UNL     1      -3.213  12.283  19.757  0.00  0.00    +0.000 A 
ATOM     33  N   UNL     1      -4.019  12.453  18.663  0.00  0.00    +0.000 N 
ATOM     34  C   UNL     1      -3.624  11.613  17.651  0.00  0.00    +0.000 A 
ATOM     35  C   UNL     1      -4.111  11.472  16.347  0.00  0.00    +0.000 A 
ATOM     36  C   UNL     1      -3.556  10.461  15.556  0.00  0.00    +0.000 A 
ATOM     37  C   UNL     1      -2.571   9.615  16.059  0.00  0.00    +0.000 A 
ATOM     38  C   UNL     1      -2.060   9.805  17.346  0.00  0.00    +0.000 A 
ATOM     39  C   UNL     1      -2.573  10.842  18.149  0.00  0.00    +0.000 A 
ATOM     40  H   UNL     1      -4.793  13.099  18.604  0.00  0.00    +0.000 HD
ENDBRANCH  30  31
ENDBRANCH   1  30
TORSDOF 8
ENDMDL
MODEL 6
REMARK VINA RESULT:      -8.3      4.241      8.228
REMARK  Name = 
REMARK  10 active torsions:
REMARK  status: ('A' for Active; 'I' for Inactive)
REMARK    1  A    between atoms: C_1  and  C_2
REMARK    2  A    between atoms: C_2  and  N_3
REMARK    3  A    between atoms: C_2  and  C_32
REMARK    4  A    between atoms: C_4  and  C_6
REMARK    5  A    between atoms: C_6  and  C_7
REMARK    6  A    between atoms: C_6  and  C_8
REMARK    7  A    between atoms: C_6  and  N_18
REMARK    8  A    between atoms: C_8  and  C_9
REMARK    9  A    between atoms: C_19  and  O_21
REMARK   10  A    between atoms: O_21  and  C_22
REMARK                            x       y       z     vdW  Elec       q    Type
REMARK                         _______ _______ _______ _____ _____    ______ ____
ROOT
ATOM      1  C   UNL     1      -0.572  12.209  19.441  0.00  0.00    +0.000 C 
ATOM      2  C   UNL     1      -0.736  13.409  18.480  0.00  0.00    +0.000 C 
ENDROOT
BRANCH   1   4
ATOM      3  N   UNL     1       1.923  12.734  19.781  0.00  0.00    +0.000 N 
ATOM      4  C   UNL     1       0.947  11.834  19.438  0.00  0.00    +0.000 C 
ATOM      5  O   UNL     1       1.322  10.690  19.144  0.00  0.00    +0.000 OA
ATOM      6  H   UNL     1       2.850  12.330  19.728  0.00  0.00    +0.000 HD
BRANCH   3   8
ATOM      7  C   UNL     1       2.577  14.384  21.496  0.00  0.00    +0.000 C 
ATOM      8  C   UNL     1       1.837  14.136  20.186  0.00  0.00    +0.000 C 
BRANCH   8   9
ATOM      9  C   UNL     1       2.236  15.109  19.094  0.00  0.00    +0.000 A 
ATOM     10  C   UNL     1       1.546  16.334  19.000  0.00  0.00    +0.000 A 
ATOM     11  C   UNL     1       1.851  17.262  18.004  0.00  0.00    +0.000 A 
ATOM     12  C   UNL     1       2.855  16.980  17.086  0.00  0.00    +0.000 A 
ATOM     13  C   UNL     1       3.559  15.778  17.169  0.00  0.00    +0.000 A 
ATOM     14  C   UNL     1       3.258  14.849  18.170  0.00  0.00    +0.000 A 
ENDBRANCH   8   9
ENDBRANCH   3   8
ENDBRANCH   1   4
BRANCH   1  15
ATOM     15  N   UNL     1      -0.929  12.713  20.798  0.00  0.00    +0.000 N 
ATOM     16  C   UNL     1      -0.796  11.962  21.939  0.00  0.00    +0.000 C 
ATOM     17  O   UNL     1      -0.334  10.828  21.963  0.00  0.00    +0.000 OA
ATOM     18  H   UNL     1      -1.288  13.659  20.877  0.00  0.00    +0.000 HD
BRANCH  16  19
ATOM     19  O   UNL     1      -1.282  12.615  23.025  0.00  0.00    +0.000 OA
BRANCH  19  20
ATOM     20  C   UNL     1      -2.537  13.297  22.792  0.00  0.00    +0.000 C 
ATOM     21  C   UNL     1      -2.479  14.729  23.336  0.00  0.00    +0.000 C 
ATOM     22  C   UNL     1      -3.777  15.469  23.024  0.00  0.00    +0.000 C 
ATOM     23  C   UNL     1      -5.002  14.694  23.439  0.00  0.00    +0.000 A 
ATOM     24  C   UNL     1      -6.221  15.376  23.595  0.00  0.00    +0.000 A 
ATOM     25  C   UNL     1      -7.378  14.689  23.958  0.00  0.00    +0.000 A 
ATOM     26  C   UNL     1      -7.332  13.312  24.157  0.00  0.00    +0.000 A 
ATOM     27  C   UNL     1      -6.130  12.622  23.990  0.00  0.00    +0.000 A 
ATOM     28  C   UNL     1      -4.957  13.300  23.622  0.00  0.00    +0.000 A 
ATOM     29  C   UNL     1      -3.665  12.524  23.492  0.00  0.00    +0.000 C 
ENDBRANCH  19  20
ENDBRANCH  16  19
ENDBRANCH   1  15
BRANCH   1  30
ATOM     30  C   UNL     1      -1.456  10.976  19.066  0.00  0.00    +0.000 C 
BRANCH  30  31
ATOM     31  C   UNL     1      -2.628  11.300  18.169  0.00  0.00    +0.000 A 
ATOM     32  C   UNL     1      -2.717  11.146  16.797  0.00  0.00    +0.000 A 
ATOM     33  N   UNL     1      -4.007  11.409  16.418  0.00  0.00    +0.000 N 
ATOM     34  C   UNL     1      -4.746  11.806  17.504  0.00  0.00    +0.000 A 
ATOM     35  C   UNL     1      -6.104  12.126  17.609  0.00  0.00    +0.000 A 
ATOM     36  C   UNL     1      -6.567  12.583  18.847  0.00  0.00    +0.000 A 
ATOM     37  C   UNL     1      -5.700  12.733  19.927  0.00  0.00    +0.000 A 
ATOM     38  C   UNL     1      -4.358  12.358  19.817  0.00  0.00    +0.000 A 
ATOM     39  C   UNL     1      -3.876  11.856  18.593  0.00  0.00    +0.000 A 
ATOM     40  H   UNL     1      -4.366  11.326  15.477  0.00  0.00    +0.000 HD
ENDBRANCH  30  31
ENDBRANCH   1  30
TORSDOF 8
ENDMDL
MODEL 7
REMARK VINA RESULT:      -8.3      6.974     11.625
REMARK  Name = 
REMARK  10 active torsions:
REMARK  status: ('A' for Active; 'I' for Inactive)
REMARK    1  A    between atoms: C_1  and  C_2
REMARK    2  A    between atoms: C_2  and  N_3
REMARK    3  A    between atoms: C_2  and  C_32
REMARK    4  A    between atoms: C_4  and  C_6
REMARK    5  A    between atoms: C_6  and  C_7
REMARK    6  A    between atoms: C_6  and  C_8
REMARK    7  A    between atoms: C_6  and  N_18
REMARK    8  A    between atoms: C_8  and  C_9
REMARK    9  A    between atoms: C_19  and  O_21
REMARK   10  A    between atoms: O_21  and  C_22
REMARK                            x       y       z     vdW  Elec       q    Type
REMARK                         _______ _______ _______ _____ _____    ______ ____
ROOT
ATOM      1  C   UNL     1       6.316   6.234  16.823  0.00  0.00    +0.000 C 
ATOM      2  C   UNL     1       5.265   6.355  15.696  0.00  0.00    +0.000 C 
ENDROOT
BRANCH   1   4
ATOM      3  N   UNL     1       7.416   4.501  15.271  0.00  0.00    +0.000 N 
ATOM      4  C   UNL     1       7.128   4.926  16.543  0.00  0.00    +0.000 C 
ATOM      5  O   UNL     1       7.563   4.233  17.474  0.00  0.00    +0.000 OA
ATOM      6  H   UNL     1       7.948   3.641  15.268  0.00  0.00    +0.000 HD
BRANCH   3   8
ATOM      7  C   UNL     1       8.248   5.852  13.381  0.00  0.00    +0.000 C 
ATOM      8  C   UNL     1       7.077   5.073  13.969  0.00  0.00    +0.000 C 
BRANCH   8   9
ATOM      9  C   UNL     1       6.496   4.065  12.997  0.00  0.00    +0.000 A 
ATOM     10  C   UNL     1       5.096   4.006  12.848  0.00  0.00    +0.000 A 
ATOM     11  C   UNL     1       4.499   3.086  11.986  0.00  0.00    +0.000 A 
ATOM     12  C   UNL     1       5.294   2.211  11.256  0.00  0.00    +0.000 A 
ATOM     13  C   UNL     1       6.682   2.261  11.380  0.00  0.00    +0.000 A 
ATOM     14  C   UNL     1       7.283   3.187  12.240  0.00  0.00    +0.000 A 
ENDBRANCH   8   9
ENDBRANCH   3   8
ENDBRANCH   1   4
BRANCH   1  15
ATOM     15  N   UNL     1       7.232   7.399  16.663  0.00  0.00    +0.000 N 
ATOM     16  C   UNL     1       8.057   7.851  17.662  0.00  0.00    +0.000 C 
ATOM     17  O   UNL     1       8.156   7.321  18.762  0.00  0.00    +0.000 OA
ATOM     18  H   UNL     1       7.243   7.879  15.768  0.00  0.00    +0.000 HD
BRANCH  16  19
ATOM     19  O   UNL     1       8.713   8.981  17.295  0.00  0.00    +0.000 OA
BRANCH  19  20
ATOM     20  C   UNL     1       8.368  10.146  18.081  0.00  0.00    +0.000 C 
ATOM     21  C   UNL     1       8.307  11.394  17.192  0.00  0.00    +0.000 C 
ATOM     22  C   UNL     1       7.872  12.607  18.009  0.00  0.00    +0.000 C 
ATOM     23  C   UNL     1       8.679  12.780  19.270  0.00  0.00    +0.000 A 
ATOM     24  C   UNL     1       8.687  14.030  19.912  0.00  0.00    +0.000 A 
ATOM     25  C   UNL     1       9.406  14.220  21.091  0.00  0.00    +0.000 A 
ATOM     26  C   UNL     1      10.115  13.160  21.647  0.00  0.00    +0.000 A 
ATOM     27  C   UNL     1      10.102  11.908  21.028  0.00  0.00    +0.000 A 
ATOM     28  C   UNL     1       9.380  11.702  19.842  0.00  0.00    +0.000 A 
ATOM     29  C   UNL     1       9.425  10.343  19.177  0.00  0.00    +0.000 C 
ENDBRANCH  19  20
ENDBRANCH  16  19
ENDBRANCH   1  15
BRANCH   1  30
ATOM     30  C   UNL     1       5.700   6.215  18.259  0.00  0.00    +0.000 C 
BRANCH  30  31
ATOM     31  C   UNL     1       4.230   5.869  18.301  0.00  0.00    +0.000 A 
ATOM     32  C   UNL     1       3.153   6.736  18.351  0.00  0.00    +0.000 A 
ATOM     33  N   UNL     1       2.004   6.003  18.212  0.00  0.00    +0.000 N 
ATOM     34  C   UNL     1       2.304   4.665  18.147  0.00  0.00    +0.000 A 
ATOM     35  C   UNL     1       1.469   3.557  17.957  0.00  0.00    +0.000 A 
ATOM     36  C   UNL     1       2.056   2.289  18.018  0.00  0.00    +0.000 A 
ATOM     37  C   UNL     1       3.416   2.138  18.279  0.00  0.00    +0.000 A 
ATOM     38  C   UNL     1       4.242   3.258  18.413  0.00  0.00    +0.000 A 
ATOM     39  C   UNL     1       3.683   4.547  18.315  0.00  0.00    +0.000 A 
ATOM     40  H   UNL     1       1.070   6.387  18.165  0.00  0.00    +0.000 HD
ENDBRANCH  30  31
ENDBRANCH   1  30
TORSDOF 8
ENDMDL
MODEL 8
REMARK VINA RESULT:      -8.2      2.331      3.912
REMARK  Name = 
REMARK  10 active torsions:
REMARK  status: ('A' for Active; 'I' for Inactive)
REMARK    1  A    between atoms: C_1  and  C_2
REMARK    2  A    between atoms: C_2  and  N_3
REMARK    3  A    between atoms: C_2  and  C_32
REMARK    4  A    between atoms: C_4  and  C_6
REMARK    5  A    between atoms: C_6  and  C_7
REMARK    6  A    between atoms: C_6  and  C_8
REMARK    7  A    between atoms: C_6  and  N_18
REMARK    8  A    between atoms: C_8  and  C_9
REMARK    9  A    between atoms: C_19  and  O_21
REMARK   10  A    between atoms: O_21  and  C_22
REMARK                            x       y       z     vdW  Elec       q    Type
REMARK                         _______ _______ _______ _____ _____    ______ ____
ROOT
ATOM      1  C   UNL     1       0.195  10.677  21.102  0.00  0.00    +0.000 C 
ATOM      2  C   UNL     1      -0.977  10.462  20.116  0.00  0.00    +0.000 C 
ENDROOT
BRANCH   1   4
ATOM      3  N   UNL     1      -1.428  11.820  22.739  0.00  0.00    +0.000 N 
ATOM      4  C   UNL     1      -0.440  10.894  22.515  0.00  0.00    +0.000 C 
ATOM      5  O   UNL     1      -0.084  10.213  23.487  0.00  0.00    +0.000 OA
ATOM      6  H   UNL     1      -1.728  11.831  23.706  0.00  0.00    +0.000 HD
BRANCH   3   8
ATOM      7  C   UNL     1      -3.577  12.484  21.723  0.00  0.00    +0.000 C 
ATOM      8  C   UNL     1      -2.082  12.763  21.835  0.00  0.00    +0.000 C 
BRANCH   8   9
ATOM      9  C   UNL     1      -1.779  14.215  22.150  0.00  0.00    +0.000 A 
ATOM     10  C   UNL     1      -0.801  14.501  23.123  0.00  0.00    +0.000 A 
ATOM     11  C   UNL     1      -0.492  15.815  23.474  0.00  0.00    +0.000 A 
ATOM     12  C   UNL     1      -1.156  16.866  22.854  0.00  0.00    +0.000 A 
ATOM     13  C   UNL     1      -2.119  16.605  21.879  0.00  0.00    +0.000 A 
ATOM     14  C   UNL     1      -2.426  15.288  21.522  0.00  0.00    +0.000 A 
ENDBRANCH   8   9
ENDBRANCH   3   8
ENDBRANCH   1   4
BRANCH   1  15
ATOM     15  N   UNL     1       0.961   9.398  21.122  0.00  0.00    +0.000 N 
ATOM     16  C   UNL     1       1.409   8.772  19.986  0.00  0.00    +0.000 C 
ATOM     17  O   UNL     1       1.266   9.218  18.854  0.00  0.00    +0.000 OA
ATOM     18  H   UNL     1       1.157   8.973  22.022  0.00  0.00    +0.000 HD
BRANCH  16  19
ATOM     19  O   UNL     1       1.989   7.578  20.271  0.00  0.00    +0.000 OA
BRANCH  19  20
ATOM     20  C   UNL     1       2.239   6.750  19.110  0.00  0.00    +0.000 C 
ATOM     21  C   UNL     1       2.300   5.271  19.509  0.00  0.00    +0.000 C 
ATOM     22  C   UNL     1       2.489   4.396  18.273  0.00  0.00    +0.000 C 
ATOM     23  C   UNL     1       3.634   4.854  17.406  0.00  0.00    +0.000 A 
ATOM     24  C   UNL     1       4.190   3.957  16.478  0.00  0.00    +0.000 A 
ATOM     25  C   UNL     1       5.235   4.353  15.645  0.00  0.00    +0.000 A 
ATOM     26  C   UNL     1       5.728   5.652  15.723  0.00  0.00    +0.000 A 
ATOM     27  C   UNL     1       5.174   6.557  16.630  0.00  0.00    +0.000 A 
ATOM     28  C   UNL     1       4.118   6.173  17.473  0.00  0.00    +0.000 A 
ATOM     29  C   UNL     1       3.572   7.168  18.473  0.00  0.00    +0.000 C 
ENDBRANCH  19  20
ENDBRANCH  16  19
ENDBRANCH   1  15
BRANCH   1  30
ATOM     30  C   UNL     1       1.130  11.869  20.718  0.00  0.00    +0.000 C 
BRANCH  30  31
ATOM     31  C   UNL     1       0.541  12.820  19.702  0.00  0.00    +0.000 A 
ATOM     32  C   UNL     1      -0.267  12.517  18.622  0.00  0.00    +0.000 A 
ATOM     33  N   UNL     1      -0.702  13.691  18.067  0.00  0.00    +0.000 N 
ATOM     34  C   UNL     1      -0.133  14.759  18.717  0.00  0.00    +0.000 A 
ATOM     35  C   UNL     1      -0.317  16.134  18.534  0.00  0.00    +0.000 A 
ATOM     36  C   UNL     1       0.472  16.998  19.301  0.00  0.00    +0.000 A 
ATOM     37  C   UNL     1       1.418  16.504  20.195  0.00  0.00    +0.000 A 
ATOM     38  C   UNL     1       1.549  15.128  20.401  0.00  0.00    +0.000 A 
ATOM     39  C   UNL     1       0.738  14.237  19.672  0.00  0.00    +0.000 A 
ATOM     40  H   UNL     1      -1.345  13.766  17.291  0.00  0.00    +0.000 HD
ENDBRANCH  30  31
ENDBRANCH   1  30
TORSDOF 8
ENDMDL
MODEL 9
REMARK VINA RESULT:      -8.2      2.491      4.873
REMARK  Name = 
REMARK  10 active torsions:
REMARK  status: ('A' for Active; 'I' for Inactive)
REMARK    1  A    between atoms: C_1  and  C_2
REMARK    2  A    between atoms: C_2  and  N_3
REMARK    3  A    between atoms: C_2  and  C_32
REMARK    4  A    between atoms: C_4  and  C_6
REMARK    5  A    between atoms: C_6  and  C_7
REMARK    6  A    between atoms: C_6  and  C_8
REMARK    7  A    between atoms: C_6  and  N_18
REMARK    8  A    between atoms: C_8  and  C_9
REMARK    9  A    between atoms: C_19  and  O_21
REMARK   10  A    between atoms: O_21  and  C_22
REMARK                            x       y       z     vdW  Elec       q    Type
REMARK                         _______ _______ _______ _____ _____    ______ ____
ROOT
ATOM      1  C   UNL     1       0.226  11.688  19.033  0.00  0.00    +0.000 C 
ATOM      2  C   UNL     1      -0.466  12.695  18.086  0.00  0.00    +0.000 C 
ENDROOT
BRANCH   1   4
ATOM      3  N   UNL     1      -2.155  10.830  19.497  0.00  0.00    +0.000 N 
ATOM      4  C   UNL     1      -0.892  11.100  19.958  0.00  0.00    +0.000 C 
ATOM      5  O   UNL     1      -0.663  10.833  21.146  0.00  0.00    +0.000 OA
ATOM      6  H   UNL     1      -2.753  10.452  20.221  0.00  0.00    +0.000 HD
BRANCH   3   8
ATOM      7  C   UNL     1      -2.792   9.690  17.402  0.00  0.00    +0.000 C 
ATOM      8  C   UNL     1      -2.752  11.004  18.174  0.00  0.00    +0.000 C 
BRANCH   8   9
ATOM      9  C   UNL     1      -4.094  11.708  18.202  0.00  0.00    +0.000 A 
ATOM     10  C   UNL     1      -4.519  12.296  19.411  0.00  0.00    +0.000 A 
ATOM     11  C   UNL     1      -5.753  12.940  19.508  0.00  0.00    +0.000 A 
ATOM     12  C   UNL     1      -6.582  13.008  18.396  0.00  0.00    +0.000 A 
ATOM     13  C   UNL     1      -6.175  12.444  17.187  0.00  0.00    +0.000 A 
ATOM     14  C   UNL     1      -4.935  11.803  17.086  0.00  0.00    +0.000 A 
ENDBRANCH   8   9
ENDBRANCH   3   8
ENDBRANCH   1   4
BRANCH   1  15
ATOM     15  N   UNL     1       0.745  10.591  18.166  0.00  0.00    +0.000 N 
ATOM     16  C   UNL     1       1.336   9.457  18.662  0.00  0.00    +0.000 C 
ATOM     17  O   UNL     1       1.456   9.211  19.855  0.00  0.00    +0.000 OA
ATOM     18  H   UNL     1       0.653  10.695  17.161  0.00  0.00    +0.000 HD
BRANCH  16  19
ATOM     19  O   UNL     1       1.808   8.665  17.665  0.00  0.00    +0.000 OA
BRANCH  19  20
ATOM     20  C   UNL     1       2.475   7.467  18.128  0.00  0.00    +0.000 C 
ATOM     21  C   UNL     1       3.837   7.311  17.442  0.00  0.00    +0.000 C 
ATOM     22  C   UNL     1       4.569   6.088  17.986  0.00  0.00    +0.000 C 
ATOM     23  C   UNL     1       3.717   4.845  17.967  0.00  0.00    +0.000 A 
ATOM     24  C   UNL     1       4.341   3.588  18.046  0.00  0.00    +0.000 A 
ATOM     25  C   UNL     1       3.583   2.417  18.052  0.00  0.00    +0.000 A 
ATOM     26  C   UNL     1       2.195   2.491  17.990  0.00  0.00    +0.000 A 
ATOM     27  C   UNL     1       1.563   3.735  17.927  0.00  0.00    +0.000 A 
ATOM     28  C   UNL     1       2.313   4.922  17.923  0.00  0.00    +0.000 A 
ATOM     29  C   UNL     1       1.595   6.249  17.811  0.00  0.00    +0.000 C 
ENDBRANCH  19  20
ENDBRANCH  16  19
ENDBRANCH   1  15
BRANCH   1  30
ATOM     30  C   UNL     1       1.383  12.311  19.879  0.00  0.00    +0.000 C 
BRANCH  30  31
ATOM     31  C   UNL     1       2.142  13.414  19.178  0.00  0.00    +0.000 A 
ATOM     32  C   UNL     1       3.130  13.289  18.218  0.00  0.00    +0.000 A 
ATOM     33  N   UNL     1       3.426  14.538  17.740  0.00  0.00    +0.000 N 
ATOM     34  C   UNL     1       2.705  15.487  18.423  0.00  0.00    +0.000 A 
ATOM     35  C   UNL     1       2.641  16.874  18.251  0.00  0.00    +0.000 A 
ATOM     36  C   UNL     1       1.869  17.602  19.162  0.00  0.00    +0.000 A 
ATOM     37  C   UNL     1       1.207  16.969  20.211  0.00  0.00    +0.000 A 
ATOM     38  C   UNL     1       1.241  15.577  20.334  0.00  0.00    +0.000 A 
ATOM     39  C   UNL     1       1.977  14.816  19.406  0.00  0.00    +0.000 A 
ATOM     40  H   UNL     1       4.080  14.738  16.997  0.00  0.00    +0.000 HD
ENDBRANCH  30  31
ENDBRANCH   1  30
TORSDOF 8
ENDMDL
