MODEL 1
REMARK VINA RESULT:      -7.0      0.000      0.000
REMARK  Name = 
REMARK  1 active torsions:
REMARK  status: ('A' for Active; 'I' for Inactive)
REMARK    1  A    between atoms: N_11  and  C_12
REMARK                            x       y       z     vdW  Elec       q    Type
REMARK                         _______ _______ _______ _____ _____    ______ ____
ROOT
ATOM      1  S   UNL     1       2.569   3.100  17.030  0.00  0.00    +0.000 S 
ATOM      2  C   UNL     1       4.049   3.828  17.294  0.00  0.00    +0.000 C 
ATOM      3  C   UNL     1       5.027   4.107  16.237  0.00  0.00    +0.000 A 
ATOM      4  C   UNL     1       4.995   3.822  14.877  0.00  0.00    +0.000 A 
ATOM      5  C   UNL     1       6.100   4.187  14.104  0.00  0.00    +0.000 A 
ATOM      6  C   UNL     1       7.203   4.825  14.692  0.00  0.00    +0.000 A 
ATOM      7  C   UNL     1       7.219   5.104  16.061  0.00  0.00    +0.000 A 
ATOM      8  C   UNL     1       6.114   4.732  16.820  0.00  0.00    +0.000 A 
ATOM      9  C   UNL     1       5.851   4.853  18.263  0.00  0.00    +0.000 C 
ATOM     10  S   UNL     1       6.925   5.532  19.345  0.00  0.00    +0.000 S 
ATOM     11  N   UNL     1       4.604   4.280  18.489  0.00  0.00    +0.000 N 
ENDROOT
BRANCH  11  12
ATOM     12  C   UNL     1       3.946   4.085  19.806  0.00  0.00    +0.000 C 
ATOM     13  C   UNL     1       2.780   5.029  19.954  0.00  0.00    +0.000 C 
ATOM     14  C   UNL     1       1.680   4.712  20.656  0.00  0.00    +0.000 C 
ATOM     15  C   UNL     1       1.516   3.407  21.383  0.00  0.00    +0.000 C 
ATOM     16  C   UNL     1       2.802   2.576  21.457  0.00  0.00    +0.000 C 
ATOM     17  C   UNL     1       3.587   2.625  20.142  0.00  0.00    +0.000 C 
ENDBRANCH  11  12
TORSDOF 1
ENDMDL
MODEL 2
REMARK VINA RESULT:      -6.8      0.170      2.364
REMARK  Name = 
REMARK  1 active torsions:
REMARK  status: ('A' for Active; 'I' for Inactive)
REMARK    1  A    between atoms: N_11  and  C_12
REMARK                            x       y       z     vdW  Elec       q    Type
REMARK                         _______ _______ _______ _____ _____    ______ ____
ROOT
ATOM      1  S   UNL     1       6.863   5.441  19.400  0.00  0.00    +0.000 S 
ATOM      2  C   UNL     1       5.864   4.735  18.262  0.00  0.00    +0.000 C 
ATOM      3  C   UNL     1       6.166   4.677  16.827  0.00  0.00    +0.000 A 
ATOM      4  C   UNL     1       7.239   5.188  16.108  0.00  0.00    +0.000 A 
ATOM      5  C   UNL     1       7.249   5.003  14.723  0.00  0.00    +0.000 A 
ATOM      6  C   UNL     1       6.203   4.316  14.087  0.00  0.00    +0.000 A 
ATOM      7  C   UNL     1       5.131   3.809  14.827  0.00  0.00    +0.000 A 
ATOM      8  C   UNL     1       5.132   4.003  16.204  0.00  0.00    +0.000 A 
ATOM      9  C   UNL     1       4.146   3.629  17.230  0.00  0.00    +0.000 C 
ATOM     10  S   UNL     1       2.727   2.816  16.898  0.00  0.00    +0.000 S 
ATOM     11  N   UNL     1       4.634   4.107  18.443  0.00  0.00    +0.000 N 
ENDROOT
BRANCH  11  12
ATOM     12  C   UNL     1       3.946   4.050  19.757  0.00  0.00    +0.000 C 
ATOM     13  C   UNL     1       2.801   5.029  19.793  0.00  0.00    +0.000 C 
ATOM     14  C   UNL     1       1.681   4.803  20.498  0.00  0.00    +0.000 C 
ATOM     15  C   UNL     1       1.471   3.574  21.339  0.00  0.00    +0.000 C 
ATOM     16  C   UNL     1       2.735   2.726  21.516  0.00  0.00    +0.000 C 
ATOM     17  C   UNL     1       3.546   2.636  20.219  0.00  0.00    +0.000 C 
ENDBRANCH  11  12
TORSDOF 1
ENDMDL
MODEL 3
REMARK VINA RESULT:      -6.8      1.660      1.814
REMARK  Name = 
REMARK  1 active torsions:
REMARK  status: ('A' for Active; 'I' for Inactive)
REMARK    1  A    between atoms: N_11  and  C_12
REMARK                            x       y       z     vdW  Elec       q    Type
REMARK                         _______ _______ _______ _____ _____    ______ ____
ROOT
ATOM      1  S   UNL     1       3.803   1.905  17.852  0.00  0.00    +0.000 S 
ATOM      2  C   UNL     1       3.990   3.529  17.506  0.00  0.00    +0.000 C 
ATOM      3  C   UNL     1       4.855   4.046  16.440  0.00  0.00    +0.000 A 
ATOM      4  C   UNL     1       5.697   3.382  15.556  0.00  0.00    +0.000 A 
ATOM      5  C   UNL     1       6.435   4.149  14.650  0.00  0.00    +0.000 A 
ATOM      6  C   UNL     1       6.317   5.547  14.638  0.00  0.00    +0.000 A 
ATOM      7  C   UNL     1       5.465   6.199  15.534  0.00  0.00    +0.000 A 
ATOM      8  C   UNL     1       4.740   5.424  16.433  0.00  0.00    +0.000 A 
ATOM      9  C   UNL     1       3.808   5.809  17.504  0.00  0.00    +0.000 C 
ATOM     10  S   UNL     1       3.404   7.391  17.855  0.00  0.00    +0.000 S 
ATOM     11  N   UNL     1       3.402   4.631  18.122  0.00  0.00    +0.000 N 
ENDROOT
BRANCH  11  12
ATOM     12  C   UNL     1       2.528   4.513  19.316  0.00  0.00    +0.000 C 
ATOM     13  C   UNL     1       1.281   3.736  18.979  0.00  0.00    +0.000 C 
ATOM     14  C   UNL     1       0.653   2.958  19.874  0.00  0.00    +0.000 C 
ATOM     15  C   UNL     1       1.110   2.807  21.299  0.00  0.00    +0.000 C 
ATOM     16  C   UNL     1       2.202   3.803  21.704  0.00  0.00    +0.000 C 
ATOM     17  C   UNL     1       3.232   4.002  20.587  0.00  0.00    +0.000 C 
ENDBRANCH  11  12
TORSDOF 1
ENDMDL
MODEL 4
REMARK VINA RESULT:      -6.6      1.669      2.288
REMARK  Name = 
REMARK  1 active torsions:
REMARK  status: ('A' for Active; 'I' for Inactive)
REMARK    1  A    between atoms: N_11  and  C_12
REMARK                            x       y       z     vdW  Elec       q    Type
REMARK                         _______ _______ _______ _____ _____    ______ ____
ROOT
ATOM      1  S   UNL     1       3.481   7.281  17.866  0.00  0.00    +0.000 S 
ATOM      2  C   UNL     1       3.931   5.715  17.494  0.00  0.00    +0.000 C 
ATOM      3  C   UNL     1       4.821   5.359  16.384  0.00  0.00    +0.000 A 
ATOM      4  C   UNL     1       5.427   6.154  15.419  0.00  0.00    +0.000 A 
ATOM      5  C   UNL     1       6.214   5.526  14.450  0.00  0.00    +0.000 A 
ATOM      6  C   UNL     1       6.386   4.133  14.464  0.00  0.00    +0.000 A 
ATOM      7  C   UNL     1       5.770   3.348  15.442  0.00  0.00    +0.000 A 
ATOM      8  C   UNL     1       4.985   3.986  16.398  0.00  0.00    +0.000 A 
ATOM      9  C   UNL     1       4.192   3.442  17.511  0.00  0.00    +0.000 C 
ATOM     10  S   UNL     1       4.093   1.815  17.869  0.00  0.00    +0.000 S 
ATOM     11  N   UNL     1       3.570   4.526  18.124  0.00  0.00    +0.000 N 
ENDROOT
BRANCH  11  12
ATOM     12  C   UNL     1       2.596   4.472  19.242  0.00  0.00    +0.000 C 
ATOM     13  C   UNL     1       1.374   3.689  18.835  0.00  0.00    +0.000 C 
ATOM     14  C   UNL     1       0.662   2.958  19.708  0.00  0.00    +0.000 C 
ATOM     15  C   UNL     1       0.993   2.872  21.172  0.00  0.00    +0.000 C 
ATOM     16  C   UNL     1       2.058   3.878  21.623  0.00  0.00    +0.000 C 
ATOM     17  C   UNL     1       3.182   4.017  20.592  0.00  0.00    +0.000 C 
ENDBRANCH  11  12
TORSDOF 1
ENDMDL
MODEL 5
REMARK VINA RESULT:      -5.9      1.457      5.884
REMARK  Name = 
REMARK  1 active torsions:
REMARK  status: ('A' for Active; 'I' for Inactive)
REMARK    1  A    between atoms: N_11  and  C_12
REMARK                            x       y       z     vdW  Elec       q    Type
REMARK                         _______ _______ _______ _____ _____    ______ ____
ROOT
ATOM      1  S   UNL     1       4.332   6.893  17.374  0.00  0.00    +0.000 S 
ATOM      2  C   UNL     1       3.897   5.379  17.931  0.00  0.00    +0.000 C 
ATOM      3  C   UNL     1       2.894   5.146  18.977  0.00  0.00    +0.000 A 
ATOM      4  C   UNL     1       2.151   6.043  19.733  0.00  0.00    +0.000 A 
ATOM      5  C   UNL     1       1.277   5.528  20.693  0.00  0.00    +0.000 A 
ATOM      6  C   UNL     1       1.158   4.141  20.878  0.00  0.00    +0.000 A 
ATOM      7  C   UNL     1       1.913   3.252  20.108  0.00  0.00    +0.000 A 
ATOM      8  C   UNL     1       2.782   3.779  19.158  0.00  0.00    +0.000 A 
ATOM      9  C   UNL     1       3.721   3.118  18.238  0.00  0.00    +0.000 C 
ATOM     10  S   UNL     1       3.919   1.463  18.151  0.00  0.00    +0.000 S 
ATOM     11  N   UNL     1       4.371   4.130  17.538  0.00  0.00    +0.000 N 
ENDROOT
BRANCH  11  12
ATOM     12  C   UNL     1       5.473   3.960  16.558  0.00  0.00    +0.000 C 
ATOM     13  C   UNL     1       4.923   3.897  15.156  0.00  0.00    +0.000 C 
ATOM     14  C   UNL     1       5.601   4.361  14.094  0.00  0.00    +0.000 C 
ATOM     15  C   UNL     1       6.978   4.956  14.192  0.00  0.00    +0.000 C 
ATOM     16  C   UNL     1       7.636   4.764  15.564  0.00  0.00    +0.000 C 
ATOM     17  C   UNL     1       6.634   4.961  16.707  0.00  0.00    +0.000 C 
ENDBRANCH  11  12
TORSDOF 1
ENDMDL
MODEL 6
REMARK VINA RESULT:      -5.8      2.554      3.210
REMARK  Name = 
REMARK  1 active torsions:
REMARK  status: ('A' for Active; 'I' for Inactive)
REMARK    1  A    between atoms: N_11  and  C_12
REMARK                            x       y       z     vdW  Elec       q    Type
REMARK                         _______ _______ _______ _____ _____    ______ ____
ROOT
ATOM      1  S   UNL     1       4.963   3.220  19.353  0.00  0.00    +0.000 S 
ATOM      2  C   UNL     1       4.761   4.759  18.734  0.00  0.00    +0.000 C 
ATOM      3  C   UNL     1       5.869   5.643  18.355  0.00  0.00    +0.000 A 
ATOM      4  C   UNL     1       7.243   5.462  18.448  0.00  0.00    +0.000 A 
ATOM      5  C   UNL     1       8.073   6.505  18.029  0.00  0.00    +0.000 A 
ATOM      6  C   UNL     1       7.525   7.696  17.527  0.00  0.00    +0.000 A 
ATOM      7  C   UNL     1       6.140   7.861  17.441  0.00  0.00    +0.000 A 
ATOM      8  C   UNL     1       5.325   6.817  17.865  0.00  0.00    +0.000 A 
ATOM      9  C   UNL     1       3.860   6.704  17.934  0.00  0.00    +0.000 C 
ATOM     10  S   UNL     1       2.816   7.917  17.459  0.00  0.00    +0.000 S 
ATOM     11  N   UNL     1       3.582   5.454  18.477  0.00  0.00    +0.000 N 
ENDROOT
BRANCH  11  12
ATOM     12  C   UNL     1       2.241   4.917  18.822  0.00  0.00    +0.000 C 
ATOM     13  C   UNL     1       1.899   3.748  17.935  0.00  0.00    +0.000 C 
ATOM     14  C   UNL     1       1.143   2.721  18.355  0.00  0.00    +0.000 C 
ATOM     15  C   UNL     1       0.541   2.651  19.731  0.00  0.00    +0.000 C 
ATOM     16  C   UNL     1       0.662   3.957  20.524  0.00  0.00    +0.000 C 
ATOM     17  C   UNL     1       2.026   4.623  20.319  0.00  0.00    +0.000 C 
ENDBRANCH  11  12
TORSDOF 1
ENDMDL
MODEL 7
REMARK VINA RESULT:      -5.7      1.450      5.668
REMARK  Name = 
REMARK  1 active torsions:
REMARK  status: ('A' for Active; 'I' for Inactive)
REMARK    1  A    between atoms: N_11  and  C_12
REMARK                            x       y       z     vdW  Elec       q    Type
REMARK                         _______ _______ _______ _____ _____    ______ ____
ROOT
ATOM      1  S   UNL     1       4.204   1.383  18.204  0.00  0.00    +0.000 S 
ATOM      2  C   UNL     1       3.868   3.014  18.340  0.00  0.00    +0.000 C 
ATOM      3  C   UNL     1       2.835   3.569  19.222  0.00  0.00    +0.000 A 
ATOM      4  C   UNL     1       1.924   2.935  20.059  0.00  0.00    +0.000 A 
ATOM      5  C   UNL     1       1.023   3.730  20.771  0.00  0.00    +0.000 A 
ATOM      6  C   UNL     1       1.048   5.127  20.642  0.00  0.00    +0.000 A 
ATOM      7  C   UNL     1       1.970   5.749  19.795  0.00  0.00    +0.000 A 
ATOM      8  C   UNL     1       2.859   4.945  19.089  0.00  0.00    +0.000 A 
ATOM      9  C   UNL     1       3.902   5.291  18.111  0.00  0.00    +0.000 C 
ATOM     10  S   UNL     1       4.247   6.855  17.640  0.00  0.00    +0.000 S 
ATOM     11  N   UNL     1       4.463   4.090  17.686  0.00  0.00    +0.000 N 
ENDROOT
BRANCH  11  12
ATOM     12  C   UNL     1       5.497   3.920  16.634  0.00  0.00    +0.000 C 
ATOM     13  C   UNL     1       4.861   3.926  15.267  0.00  0.00    +0.000 C 
ATOM     14  C   UNL     1       5.489   4.405  14.182  0.00  0.00    +0.000 C 
ATOM     15  C   UNL     1       6.890   4.951  14.216  0.00  0.00    +0.000 C 
ATOM     16  C   UNL     1       7.622   4.689  15.537  0.00  0.00    +0.000 C 
ATOM     17  C   UNL     1       6.699   4.876  16.745  0.00  0.00    +0.000 C 
ENDBRANCH  11  12
TORSDOF 1
ENDMDL
MODEL 8
REMARK VINA RESULT:      -5.7      2.460      5.439
REMARK  Name = 
REMARK  1 active torsions:
REMARK  status: ('A' for Active; 'I' for Inactive)
REMARK    1  A    between atoms: N_11  and  C_12
REMARK                            x       y       z     vdW  Elec       q    Type
REMARK                         _______ _______ _______ _____ _____    ______ ____
ROOT
ATOM      1  S   UNL     1       2.468   6.733  20.202  0.00  0.00    +0.000 S 
ATOM      2  C   UNL     1       2.943   5.446  19.248  0.00  0.00    +0.000 C 
ATOM      3  C   UNL     1       2.159   4.218  19.079  0.00  0.00    +0.000 A 
ATOM      4  C   UNL     1       0.955   3.826  19.651  0.00  0.00    +0.000 A 
ATOM      5  C   UNL     1       0.450   2.566  19.322  0.00  0.00    +0.000 A 
ATOM      6  C   UNL     1       1.144   1.729  18.434  0.00  0.00    +0.000 A 
ATOM      7  C   UNL     1       2.354   2.138  17.868  0.00  0.00    +0.000 A 
ATOM      8  C   UNL     1       2.848   3.394  18.207  0.00  0.00    +0.000 A 
ATOM      9  C   UNL     1       4.088   4.080  17.815  0.00  0.00    +0.000 C 
ATOM     10  S   UNL     1       5.225   3.419  16.785  0.00  0.00    +0.000 S 
ATOM     11  N   UNL     1       4.097   5.301  18.482  0.00  0.00    +0.000 N 
ENDROOT
BRANCH  11  12
ATOM     12  C   UNL     1       5.188   6.307  18.473  0.00  0.00    +0.000 C 
ATOM     13  C   UNL     1       6.420   5.750  19.140  0.00  0.00    +0.000 C 
ATOM     14  C   UNL     1       7.662   6.099  18.767  0.00  0.00    +0.000 C 
ATOM     15  C   UNL     1       7.945   7.094  17.676  0.00  0.00    +0.000 C 
ATOM     16  C   UNL     1       6.702   7.853  17.197  0.00  0.00    +0.000 C 
ATOM     17  C   UNL     1       5.479   6.936  17.098  0.00  0.00    +0.000 C 
ENDBRANCH  11  12
TORSDOF 1
ENDMDL
MODEL 9
REMARK VINA RESULT:      -5.5      3.089      4.938
REMARK  Name = 
REMARK  1 active torsions:
REMARK  status: ('A' for Active; 'I' for Inactive)
REMARK    1  A    between atoms: N_11  and  C_12
REMARK                            x       y       z     vdW  Elec       q    Type
REMARK                         _______ _______ _______ _____ _____    ______ ____
ROOT
ATOM      1  S   UNL     1       1.812   5.037  20.687  0.00  0.00    +0.000 S 
ATOM      2  C   UNL     1       2.448   5.972  19.457  0.00  0.00    +0.000 C 
ATOM      3  C   UNL     1       2.120   7.387  19.247  0.00  0.00    +0.000 A 
ATOM      4  C   UNL     1       1.242   8.222  19.927  0.00  0.00    +0.000 A 
ATOM      5  C   UNL     1       1.110   9.539  19.481  0.00  0.00    +0.000 A 
ATOM      6  C   UNL     1       1.849   9.997  18.379  0.00  0.00    +0.000 A 
ATOM      7  C   UNL     1       2.728   9.143  17.706  0.00  0.00    +0.000 A 
ATOM      8  C   UNL     1       2.847   7.833  18.159  0.00  0.00    +0.000 A 
ATOM      9  C   UNL     1       3.644   6.706  17.649  0.00  0.00    +0.000 C 
ATOM     10  S   UNL     1       4.651   6.811  16.322  0.00  0.00    +0.000 S 
ATOM     11  N   UNL     1       3.352   5.613  18.459  0.00  0.00    +0.000 N 
ENDROOT
BRANCH  11  12
ATOM     12  C   UNL     1       3.846   4.225  18.284  0.00  0.00    +0.000 C 
ATOM     13  C   UNL     1       4.491   3.733  19.555  0.00  0.00    +0.000 C 
ATOM     14  C   UNL     1       4.458   2.443  19.927  0.00  0.00    +0.000 C 
ATOM     15  C   UNL     1       3.808   1.365  19.106  0.00  0.00    +0.000 C 
ATOM     16  C   UNL     1       3.403   1.822  17.699  0.00  0.00    +0.000 C 
ATOM     17  C   UNL     1       2.814   3.236  17.708  0.00  0.00    +0.000 C 
ENDBRANCH  11  12
TORSDOF 1
ENDMDL
