MODEL 1
REMARK VINA RESULT:      -7.3      0.000      0.000
REMARK  Name = 
REMARK  6 active torsions:
REMARK  status: ('A' for Active; 'I' for Inactive)
REMARK    1  A    between atoms: C_2  and  O_3
REMARK    2  A    between atoms: C_2  and  C_4
REMARK    3  A    between atoms: C_7  and  C_8
REMARK    4  A    between atoms: C_10  and  C_11
REMARK    5  A    between atoms: C_11  and  O_13
REMARK    6  A    between atoms: C_16  and  O_17
REMARK                            x       y       z     vdW  Elec       q    Type
REMARK                         _______ _______ _______ _____ _____    ______ ____
ROOT
ATOM      1  C   UNK     1       6.352   5.259  16.066  0.00  0.00    +0.000 A 
ATOM      2  C   UNK     1       5.083   5.849  16.013  0.00  0.00    +0.000 A 
ATOM      3  C   UNK     1       4.402   6.153  17.196  0.00  0.00    +0.000 A 
ATOM      4  C   UNK     1       4.972   5.825  18.427  0.00  0.00    +0.000 A 
ATOM      5  C   UNK     1       6.322   5.426  18.467  0.00  0.00    +0.000 A 
ATOM      6  C   UNK     1       7.013   5.139  17.291  0.00  0.00    +0.000 A 
ENDROOT
BRANCH   4   7
ATOM      7  C   UNK     1       4.093   5.285  19.506  0.00  0.00    +0.000 C 
ATOM      8  N   UNK     1       4.169   4.056  19.942  0.00  0.00    +0.000 NA
ATOM      9  C   UNK     1       2.778   3.467  19.688  0.00  0.00    +0.000 C 
ATOM     10  C   UNK     1       1.894   4.476  18.957  0.00  0.00    +0.000 C 
ATOM     11  S   UNK     1       2.503   6.020  19.655  0.00  0.00    +0.000 S 
BRANCH   9  12
ATOM     12  C   UNK     1       2.070   2.975  20.934  0.00  0.00    +0.000 C 
ATOM     13  O   UNK     1       2.666   2.635  21.951  0.00  0.00    +0.000 OA
BRANCH  12  14
ATOM     14  O   UNK     1       0.727   2.925  20.821  0.00  0.00    +0.000 OA
ATOM     15  H   UNK     1       0.481   2.975  19.874  0.00  0.00    +0.000 HD
ENDBRANCH  12  14
ENDBRANCH   9  12
ENDBRANCH   4   7
BRANCH   1  17
ATOM     16  O   UNK     1       7.733   5.337  14.137  0.00  0.00    +0.000 OA
ATOM     17  C   UNK     1       6.922   4.725  14.804  0.00  0.00    +0.000 C 
BRANCH  17  18
ATOM     18  O   UNK     1       6.376   3.551  14.416  0.00  0.00    +0.000 OA
ATOM     19  H   UNK     1       6.229   2.890  15.116  0.00  0.00    +0.000 HD
ENDBRANCH  17  18
ENDBRANCH   1  17
BRANCH   5  20
ATOM     20  O   UNK     1       6.993   5.162  19.630  0.00  0.00    +0.000 OA
ATOM     21  H   UNK     1       6.773   5.859  20.284  0.00  0.00    +0.000 HD
ENDBRANCH   5  20
TORSDOF 6
ENDMDL
MODEL 2
REMARK VINA RESULT:      -7.3      1.051      1.288
REMARK  Name = 
REMARK  6 active torsions:
REMARK  status: ('A' for Active; 'I' for Inactive)
REMARK    1  A    between atoms: C_2  and  O_3
REMARK    2  A    between atoms: C_2  and  C_4
REMARK    3  A    between atoms: C_7  and  C_8
REMARK    4  A    between atoms: C_10  and  C_11
REMARK    5  A    between atoms: C_11  and  O_13
REMARK    6  A    between atoms: C_16  and  O_17
REMARK                            x       y       z     vdW  Elec       q    Type
REMARK                         _______ _______ _______ _____ _____    ______ ____
ROOT
ATOM      1  C   UNK     1       6.085   5.131  15.760  0.00  0.00    +0.000 A 
ATOM      2  C   UNK     1       5.172   6.189  15.843  0.00  0.00    +0.000 A 
ATOM      3  C   UNK     1       4.434   6.388  17.014  0.00  0.00    +0.000 A 
ATOM      4  C   UNK     1       4.579   5.501  18.082  0.00  0.00    +0.000 A 
ATOM      5  C   UNK     1       5.639   4.575  18.059  0.00  0.00    +0.000 A 
ATOM      6  C   UNK     1       6.390   4.384  16.900  0.00  0.00    +0.000 A 
ENDROOT
BRANCH   4   7
ATOM      7  C   UNK     1       3.364   5.092  18.847  0.00  0.00    +0.000 C 
ATOM      8  N   UNK     1       3.412   4.601  20.056  0.00  0.00    +0.000 NA
ATOM      9  C   UNK     1       2.762   3.218  19.940  0.00  0.00    +0.000 C 
ATOM     10  C   UNK     1       2.408   2.912  18.486  0.00  0.00    +0.000 C 
ATOM     11  S   UNK     1       1.986   4.560  17.893  0.00  0.00    +0.000 S 
BRANCH   9  12
ATOM     12  C   UNK     1       1.540   3.026  20.816  0.00  0.00    +0.000 C 
ATOM     13  O   UNK     1       1.608   2.851  22.028  0.00  0.00    +0.000 OA
BRANCH  12  14
ATOM     14  O   UNK     1       0.372   3.044  20.142  0.00  0.00    +0.000 OA
ATOM     15  H   UNK     1       0.150   2.133  19.858  0.00  0.00    +0.000 HD
ENDBRANCH  12  14
ENDBRANCH   9  12
ENDBRANCH   4   7
BRANCH   1  17
ATOM     16  O   UNK     1       6.191   3.934  13.712  0.00  0.00    +0.000 OA
ATOM     17  C   UNK     1       6.650   4.805  14.426  0.00  0.00    +0.000 C 
BRANCH  17  18
ATOM     18  O   UNK     1       7.777   5.490  14.131  0.00  0.00    +0.000 OA
ATOM     19  H   UNK     1       7.932   6.307  14.639  0.00  0.00    +0.000 HD
ENDBRANCH  17  18
ENDBRANCH   1  17
BRANCH   5  20
ATOM     20  O   UNK     1       5.913   3.720  19.091  0.00  0.00    +0.000 OA
ATOM     21  H   UNK     1       6.134   2.839  18.719  0.00  0.00    +0.000 HD
ENDBRANCH   5  20
TORSDOF 6
ENDMDL
MODEL 3
REMARK VINA RESULT:      -7.0      0.471      1.161
REMARK  Name = 
REMARK  6 active torsions:
REMARK  status: ('A' for Active; 'I' for Inactive)
REMARK    1  A    between atoms: C_2  and  O_3
REMARK    2  A    between atoms: C_2  and  C_4
REMARK    3  A    between atoms: C_7  and  C_8
REMARK    4  A    between atoms: C_10  and  C_11
REMARK    5  A    between atoms: C_11  and  O_13
REMARK    6  A    between atoms: C_16  and  O_17
REMARK                            x       y       z     vdW  Elec       q    Type
REMARK                         _______ _______ _______ _____ _____    ______ ____
ROOT
ATOM      1  C   UNK     1       6.412   5.248  15.653  0.00  0.00    +0.000 A 
ATOM      2  C   UNK     1       5.202   5.946  15.748  0.00  0.00    +0.000 A 
ATOM      3  C   UNK     1       4.630   6.193  17.000  0.00  0.00    +0.000 A 
ATOM      4  C   UNK     1       5.249   5.702  18.151  0.00  0.00    +0.000 A 
ATOM      5  C   UNK     1       6.556   5.188  18.055  0.00  0.00    +0.000 A 
ATOM      6  C   UNK     1       7.139   4.956  16.810  0.00  0.00    +0.000 A 
ENDROOT
BRANCH   4   7
ATOM      7  C   UNK     1       4.397   5.138  19.240  0.00  0.00    +0.000 C 
ATOM      8  N   UNK     1       4.416   3.878  19.583  0.00  0.00    +0.000 NA
ATOM      9  C   UNK     1       2.978   3.395  19.371  0.00  0.00    +0.000 C 
ATOM     10  C   UNK     1       2.123   4.508  18.768  0.00  0.00    +0.000 C 
ATOM     11  S   UNK     1       2.870   5.956  19.536  0.00  0.00    +0.000 S 
BRANCH   9  12
ATOM     12  C   UNK     1       2.309   2.857  20.620  0.00  0.00    +0.000 C 
ATOM     13  O   UNK     1       1.092   2.765  20.740  0.00  0.00    +0.000 OA
BRANCH  12  14
ATOM     14  O   UNK     1       3.170   2.505  21.597  0.00  0.00    +0.000 OA
ATOM     15  H   UNK     1       3.484   1.591  21.436  0.00  0.00    +0.000 HD
ENDBRANCH  12  14
ENDBRANCH   9  12
ENDBRANCH   4   7
BRANCH   1  17
ATOM     16  O   UNK     1       6.381   3.805  13.769  0.00  0.00    +0.000 OA
ATOM     17  C   UNK     1       6.846   4.790  14.309  0.00  0.00    +0.000 C 
BRANCH  17  18
ATOM     18  O   UNK     1       7.872   5.503  13.797  0.00  0.00    +0.000 OA
ATOM     19  H   UNK     1       7.636   6.318  13.317  0.00  0.00    +0.000 HD
ENDBRANCH  17  18
ENDBRANCH   1  17
BRANCH   5  20
ATOM     20  O   UNK     1       7.276   4.758  19.136  0.00  0.00    +0.000 OA
ATOM     21  H   UNK     1       6.745   4.090  19.621  0.00  0.00    +0.000 HD
ENDBRANCH   5  20
TORSDOF 6
ENDMDL
MODEL 4
REMARK VINA RESULT:      -6.9      2.283      2.926
REMARK  Name = 
REMARK  6 active torsions:
REMARK  status: ('A' for Active; 'I' for Inactive)
REMARK    1  A    between atoms: C_2  and  O_3
REMARK    2  A    between atoms: C_2  and  C_4
REMARK    3  A    between atoms: C_7  and  C_8
REMARK    4  A    between atoms: C_10  and  C_11
REMARK    5  A    between atoms: C_11  and  O_13
REMARK    6  A    between atoms: C_16  and  O_17
REMARK                            x       y       z     vdW  Elec       q    Type
REMARK                         _______ _______ _______ _____ _____    ______ ____
ROOT
ATOM      1  C   UNK     1       6.244   6.305  17.528  0.00  0.00    +0.000 A 
ATOM      2  C   UNK     1       6.347   4.932  17.271  0.00  0.00    +0.000 A 
ATOM      3  C   UNK     1       5.197   4.139  17.227  0.00  0.00    +0.000 A 
ATOM      4  C   UNK     1       3.951   4.713  17.485  0.00  0.00    +0.000 A 
ATOM      5  C   UNK     1       3.845   6.116  17.537  0.00  0.00    +0.000 A 
ATOM      6  C   UNK     1       4.987   6.914  17.563  0.00  0.00    +0.000 A 
ENDROOT
BRANCH   4   7
ATOM      7  C   UNK     1       2.961   3.947  18.299  0.00  0.00    +0.000 C 
ATOM      8  N   UNK     1       2.281   4.475  19.282  0.00  0.00    +0.000 NA
ATOM      9  C   UNK     1       2.658   3.639  20.509  0.00  0.00    +0.000 C 
ATOM     10  C   UNK     1       3.723   2.606  20.147  0.00  0.00    +0.000 C 
ATOM     11  S   UNK     1       3.250   2.220  18.452  0.00  0.00    +0.000 S 
BRANCH   9  12
ATOM     12  C   UNK     1       1.486   2.953  21.181  0.00  0.00    +0.000 C 
ATOM     13  O   UNK     1       1.574   2.394  22.269  0.00  0.00    +0.000 OA
BRANCH  12  14
ATOM     14  O   UNK     1       0.342   2.993  20.469  0.00  0.00    +0.000 OA
ATOM     15  H   UNK     1      -0.398   3.242  21.060  0.00  0.00    +0.000 HD
ENDBRANCH  12  14
ENDBRANCH   9  12
ENDBRANCH   4   7
BRANCH   1  17
ATOM     16  O   UNK     1       7.921   7.926  17.088  0.00  0.00    +0.000 OA
ATOM     17  C   UNK     1       7.494   7.052  17.817  0.00  0.00    +0.000 C 
BRANCH  17  18
ATOM     18  O   UNK     1       8.161   6.597  18.901  0.00  0.00    +0.000 OA
ATOM     19  H   UNK     1       7.706   6.687  19.758  0.00  0.00    +0.000 HD
ENDBRANCH  17  18
ENDBRANCH   1  17
BRANCH   5  20
ATOM     20  O   UNK     1       2.657   6.774  17.704  0.00  0.00    +0.000 OA
ATOM     21  H   UNK     1       1.923   6.142  17.547  0.00  0.00    +0.000 HD
ENDBRANCH   5  20
TORSDOF 6
ENDMDL
MODEL 5
REMARK VINA RESULT:      -6.8      1.946      6.344
REMARK  Name = 
REMARK  6 active torsions:
REMARK  status: ('A' for Active; 'I' for Inactive)
REMARK    1  A    between atoms: C_2  and  O_3
REMARK    2  A    between atoms: C_2  and  C_4
REMARK    3  A    between atoms: C_7  and  C_8
REMARK    4  A    between atoms: C_10  and  C_11
REMARK    5  A    between atoms: C_11  and  O_13
REMARK    6  A    between atoms: C_16  and  O_17
REMARK                            x       y       z     vdW  Elec       q    Type
REMARK                         _______ _______ _______ _____ _____    ______ ____
ROOT
ATOM      1  C   UNK     1       2.445   3.827  20.402  0.00  0.00    +0.000 A 
ATOM      2  C   UNK     1       3.647   3.151  20.161  0.00  0.00    +0.000 A 
ATOM      3  C   UNK     1       4.643   3.747  19.381  0.00  0.00    +0.000 A 
ATOM      4  C   UNK     1       4.415   4.998  18.807  0.00  0.00    +0.000 A 
ATOM      5  C   UNK     1       3.296   5.746  19.223  0.00  0.00    +0.000 A 
ATOM      6  C   UNK     1       2.309   5.163  20.016  0.00  0.00    +0.000 A 
ENDROOT
BRANCH   4   7
ATOM      7  C   UNK     1       4.893   5.249  17.414  0.00  0.00    +0.000 C 
ATOM      8  N   UNK     1       4.867   4.343  16.475  0.00  0.00    +0.000 NA
ATOM      9  C   UNK     1       6.327   4.191  16.039  0.00  0.00    +0.000 C 
ATOM     10  C   UNK     1       7.238   5.057  16.908  0.00  0.00    +0.000 C 
ATOM     11  S   UNK     1       6.155   6.459  17.231  0.00  0.00    +0.000 S 
BRANCH   9  12
ATOM     12  C   UNK     1       6.578   4.494  14.575  0.00  0.00    +0.000 C 
ATOM     13  O   UNK     1       5.905   4.014  13.669  0.00  0.00    +0.000 OA
BRANCH  12  14
ATOM     14  O   UNK     1       7.619   5.322  14.355  0.00  0.00    +0.000 OA
ATOM     15  H   UNK     1       7.303   6.249  14.378  0.00  0.00    +0.000 HD
ENDBRANCH  12  14
ENDBRANCH   9  12
ENDBRANCH   4   7
BRANCH   1  17
ATOM     16  O   UNK     1       1.425   2.503  22.087  0.00  0.00    +0.000 OA
ATOM     17  C   UNK     1       1.329   3.062  21.011  0.00  0.00    +0.000 C 
BRANCH  17  18
ATOM     18  O   UNK     1       0.242   2.957  20.215  0.00  0.00    +0.000 OA
ATOM     19  H   UNK     1      -0.134   3.792  19.884  0.00  0.00    +0.000 HD
ENDBRANCH  17  18
ENDBRANCH   1  17
BRANCH   5  20
ATOM     20  O   UNK     1       3.031   7.012  18.780  0.00  0.00    +0.000 OA
ATOM     21  H   UNK     1       3.880   7.446  18.545  0.00  0.00    +0.000 HD
ENDBRANCH   5  20
TORSDOF 6
ENDMDL
MODEL 6
REMARK VINA RESULT:      -6.8      1.832      6.280
REMARK  Name = 
REMARK  6 active torsions:
REMARK  status: ('A' for Active; 'I' for Inactive)
REMARK    1  A    between atoms: C_2  and  O_3
REMARK    2  A    between atoms: C_2  and  C_4
REMARK    3  A    between atoms: C_7  and  C_8
REMARK    4  A    between atoms: C_10  and  C_11
REMARK    5  A    between atoms: C_11  and  O_13
REMARK    6  A    between atoms: C_16  and  O_17
REMARK                            x       y       z     vdW  Elec       q    Type
REMARK                         _______ _______ _______ _____ _____    ______ ____
ROOT
ATOM      1  C   UNK     1       2.203   3.522  20.394  0.00  0.00    +0.000 A 
ATOM      2  C   UNK     1       2.634   4.851  20.487  0.00  0.00    +0.000 A 
ATOM      3  C   UNK     1       2.931   5.574  19.327  0.00  0.00    +0.000 A 
ATOM      4  C   UNK     1       2.840   4.952  18.081  0.00  0.00    +0.000 A 
ATOM      5  C   UNK     1       2.214   3.693  17.993  0.00  0.00    +0.000 A 
ATOM      6  C   UNK     1       1.898   2.975  19.145  0.00  0.00    +0.000 A 
ENDROOT
BRANCH   4   7
ATOM      7  C   UNK     1       3.884   5.241  17.054  0.00  0.00    +0.000 C 
ATOM      8  N   UNK     1       4.497   4.310  16.375  0.00  0.00    +0.000 NA
ATOM      9  C   UNK     1       5.981   4.501  16.704  0.00  0.00    +0.000 C 
ATOM     10  C   UNK     1       6.161   5.608  17.742  0.00  0.00    +0.000 C 
ATOM     11  S   UNK     1       4.815   6.714  17.285  0.00  0.00    +0.000 S 
BRANCH   9  12
ATOM     12  C   UNK     1       6.857   4.781  15.500  0.00  0.00    +0.000 C 
ATOM     13  O   UNK     1       7.689   5.683  15.473  0.00  0.00    +0.000 OA
BRANCH  12  14
ATOM     14  O   UNK     1       6.629   3.964  14.452  0.00  0.00    +0.000 OA
ATOM     15  H   UNK     1       5.719   3.609  14.512  0.00  0.00    +0.000 HD
ENDBRANCH  12  14
ENDBRANCH   9  12
ENDBRANCH   4   7
BRANCH   1  17
ATOM     16  O   UNK     1       3.113   2.141  22.096  0.00  0.00    +0.000 OA
ATOM     17  C   UNK     1       2.146   2.722  21.644  0.00  0.00    +0.000 C 
BRANCH  17  18
ATOM     18  O   UNK     1       0.905   2.616  22.165  0.00  0.00    +0.000 OA
ATOM     19  H   UNK     1       0.771   1.912  22.826  0.00  0.00    +0.000 HD
ENDBRANCH  17  18
ENDBRANCH   1  17
BRANCH   5  20
ATOM     20  O   UNK     1       2.004   3.040  16.810  0.00  0.00    +0.000 OA
ATOM     21  H   UNK     1       2.846   2.621  16.529  0.00  0.00    +0.000 HD
ENDBRANCH   5  20
TORSDOF 6
ENDMDL
MODEL 7
REMARK VINA RESULT:      -6.8      1.846      6.311
REMARK  Name = 
REMARK  6 active torsions:
REMARK  status: ('A' for Active; 'I' for Inactive)
REMARK    1  A    between atoms: C_2  and  O_3
REMARK    2  A    between atoms: C_2  and  C_4
REMARK    3  A    between atoms: C_7  and  C_8
REMARK    4  A    between atoms: C_10  and  C_11
REMARK    5  A    between atoms: C_11  and  O_13
REMARK    6  A    between atoms: C_16  and  O_17
REMARK                            x       y       z     vdW  Elec       q    Type
REMARK                         _______ _______ _______ _____ _____    ______ ____
ROOT
ATOM      1  C   UNK     1       2.050   3.461  20.449  0.00  0.00    +0.000 A 
ATOM      2  C   UNK     1       2.365   4.822  20.548  0.00  0.00    +0.000 A 
ATOM      3  C   UNK     1       2.670   5.557  19.399  0.00  0.00    +0.000 A 
ATOM      4  C   UNK     1       2.703   4.919  18.158  0.00  0.00    +0.000 A 
ATOM      5  C   UNK     1       2.188   3.612  18.050  0.00  0.00    +0.000 A 
ATOM      6  C   UNK     1       1.864   2.880  19.192  0.00  0.00    +0.000 A 
ENDROOT
BRANCH   4   7
ATOM      7  C   UNK     1       3.778   5.284  17.189  0.00  0.00    +0.000 C 
ATOM      8  N   UNK     1       4.512   4.401  16.567  0.00  0.00    +0.000 NA
ATOM      9  C   UNK     1       5.950   4.728  16.981  0.00  0.00    +0.000 C 
ATOM     10  C   UNK     1       5.968   5.863  18.004  0.00  0.00    +0.000 C 
ATOM     11  S   UNK     1       4.561   6.838  17.445  0.00  0.00    +0.000 S 
BRANCH   9  12
ATOM     12  C   UNK     1       6.871   5.067  15.825  0.00  0.00    +0.000 C 
ATOM     13  O   UNK     1       6.933   4.394  14.802  0.00  0.00    +0.000 OA
BRANCH  12  14
ATOM     14  O   UNK     1       7.630   6.162  16.029  0.00  0.00    +0.000 OA
ATOM     15  H   UNK     1       8.441   6.098  15.484  0.00  0.00    +0.000 HD
ENDBRANCH  12  14
ENDBRANCH   9  12
ENDBRANCH   4   7
BRANCH   1  17
ATOM     16  O   UNK     1       0.987   2.615  22.395  0.00  0.00    +0.000 OA
ATOM     17  C   UNK     1       1.985   2.670  21.703  0.00  0.00    +0.000 C 
BRANCH  17  18
ATOM     18  O   UNK     1       3.164   2.111  22.054  0.00  0.00    +0.000 OA
ATOM     19  H   UNK     1       3.296   1.181  21.796  0.00  0.00    +0.000 HD
ENDBRANCH  17  18
ENDBRANCH   1  17
BRANCH   5  20
ATOM     20  O   UNK     1       2.102   2.934  16.866  0.00  0.00    +0.000 OA
ATOM     21  H   UNK     1       2.976   2.532  16.670  0.00  0.00    +0.000 HD
ENDBRANCH   5  20
TORSDOF 6
ENDMDL
MODEL 8
REMARK VINA RESULT:      -6.8      1.304      1.419
REMARK  Name = 
REMARK  6 active torsions:
REMARK  status: ('A' for Active; 'I' for Inactive)
REMARK    1  A    between atoms: C_2  and  O_3
REMARK    2  A    between atoms: C_2  and  C_4
REMARK    3  A    between atoms: C_7  and  C_8
REMARK    4  A    between atoms: C_10  and  C_11
REMARK    5  A    between atoms: C_11  and  O_13
REMARK    6  A    between atoms: C_16  and  O_17
REMARK                            x       y       z     vdW  Elec       q    Type
REMARK                         _______ _______ _______ _____ _____    ______ ____
ROOT
ATOM      1  C   UNK     1       6.523   5.105  15.184  0.00  0.00    +0.000 A 
ATOM      2  C   UNK     1       5.392   5.928  15.248  0.00  0.00    +0.000 A 
ATOM      3  C   UNK     1       4.702   6.080  16.455  0.00  0.00    +0.000 A 
ATOM      4  C   UNK     1       5.119   5.373  17.583  0.00  0.00    +0.000 A 
ATOM      5  C   UNK     1       6.366   4.718  17.555  0.00  0.00    +0.000 A 
ATOM      6  C   UNK     1       7.067   4.579  16.358  0.00  0.00    +0.000 A 
ENDROOT
BRANCH   4   7
ATOM      7  C   UNK     1       4.086   4.783  18.485  0.00  0.00    +0.000 C 
ATOM      8  N   UNK     1       3.771   3.516  18.480  0.00  0.00    +0.000 NA
ATOM      9  C   UNK     1       2.276   3.487  18.151  0.00  0.00    +0.000 C 
ATOM     10  C   UNK     1       1.762   4.898  17.868  0.00  0.00    +0.000 C 
ATOM     11  S   UNK     1       2.791   5.858  18.992  0.00  0.00    +0.000 S 
BRANCH   9  12
ATOM     12  C   UNK     1       1.415   2.833  19.213  0.00  0.00    +0.000 C 
ATOM     13  O   UNK     1       0.710   3.470  19.989  0.00  0.00    +0.000 OA
BRANCH  12  14
ATOM     14  O   UNK     1       1.506   1.487  19.244  0.00  0.00    +0.000 OA
ATOM     15  H   UNK     1       1.307   1.171  20.149  0.00  0.00    +0.000 HD
ENDBRANCH  12  14
ENDBRANCH   9  12
ENDBRANCH   4   7
BRANCH   1  17
ATOM     16  O   UNK     1       7.817   5.511  13.236  0.00  0.00    +0.000 OA
ATOM     17  C   UNK     1       7.065   4.773  13.843  0.00  0.00    +0.000 C 
BRANCH  17  18
ATOM     18  O   UNK     1       6.561   3.633  13.319  0.00  0.00    +0.000 OA
ATOM     19  H   UNK     1       5.948   3.131  13.886  0.00  0.00    +0.000 HD
ENDBRANCH  17  18
ENDBRANCH   1  17
BRANCH   5  20
ATOM     20  O   UNK     1       6.898   4.068  18.634  0.00  0.00    +0.000 OA
ATOM     21  H   UNK     1       7.042   4.720  19.353  0.00  0.00    +0.000 HD
ENDBRANCH   5  20
TORSDOF 6
ENDMDL
MODEL 9
REMARK VINA RESULT:      -6.6      2.371      3.101
REMARK  Name = 
REMARK  6 active torsions:
REMARK  status: ('A' for Active; 'I' for Inactive)
REMARK    1  A    between atoms: C_2  and  O_3
REMARK    2  A    between atoms: C_2  and  C_4
REMARK    3  A    between atoms: C_7  and  C_8
REMARK    4  A    between atoms: C_10  and  C_11
REMARK    5  A    between atoms: C_11  and  O_13
REMARK    6  A    between atoms: C_16  and  O_17
REMARK                            x       y       z     vdW  Elec       q    Type
REMARK                         _______ _______ _______ _____ _____    ______ ____
ROOT
ATOM      1  C   UNK     1       6.558   6.567  17.408  0.00  0.00    +0.000 A 
ATOM      2  C   UNK     1       6.803   5.267  16.952  0.00  0.00    +0.000 A 
ATOM      3  C   UNK     1       5.740   4.379  16.759  0.00  0.00    +0.000 A 
ATOM      4  C   UNK     1       4.439   4.781  17.066  0.00  0.00    +0.000 A 
ATOM      5  C   UNK     1       4.190   6.143  17.324  0.00  0.00    +0.000 A 
ATOM      6  C   UNK     1       5.245   7.037  17.500  0.00  0.00    +0.000 A 
ENDROOT
BRANCH   4   7
ATOM      7  C   UNK     1       3.523   3.807  17.730  0.00  0.00    +0.000 C 
ATOM      8  N   UNK     1       2.221   3.889  17.664  0.00  0.00    +0.000 NA
ATOM      9  C   UNK     1       1.764   4.012  19.121  0.00  0.00    +0.000 C 
ATOM     10  C   UNK     1       2.970   4.087  20.056  0.00  0.00    +0.000 C 
ATOM     11  S   UNK     1       4.136   3.028  19.182  0.00  0.00    +0.000 S 
BRANCH   9  12
ATOM     12  C   UNK     1       0.830   2.910  19.578  0.00  0.00    +0.000 C 
ATOM     13  O   UNK     1       0.272   2.142  18.801  0.00  0.00    +0.000 OA
BRANCH  12  14
ATOM     14  O   UNK     1       0.650   2.860  20.913  0.00  0.00    +0.000 OA
ATOM     15  H   UNK     1       1.050   3.654  21.323  0.00  0.00    +0.000 HD
ENDBRANCH  12  14
ENDBRANCH   9  12
ENDBRANCH   4   7
BRANCH   1  17
ATOM     16  O   UNK     1       8.110   8.353  17.219  0.00  0.00    +0.000 OA
ATOM     17  C   UNK     1       7.721   7.382  17.839  0.00  0.00    +0.000 C 
BRANCH  17  18
ATOM     18  O   UNK     1       8.366   6.883  18.917  0.00  0.00    +0.000 OA
ATOM     19  H   UNK     1       8.095   7.233  19.784  0.00  0.00    +0.000 HD
ENDBRANCH  17  18
ENDBRANCH   1  17
BRANCH   5  20
ATOM     20  O   UNK     1       2.940   6.647  17.556  0.00  0.00    +0.000 OA
ATOM     21  H   UNK     1       2.519   6.126  18.273  0.00  0.00    +0.000 HD
ENDBRANCH   5  20
TORSDOF 6
ENDMDL
