MODEL 1
REMARK VINA RESULT:      -6.9      0.000      0.000
REMARK  Name = 
REMARK  3 active torsions:
REMARK  status: ('A' for Active; 'I' for Inactive)
REMARK    1  A    between atoms: C_1  and  C_2
REMARK    2  A    between atoms: C_3  and  C_4
REMARK    3  A    between atoms: C_7  and  C_8
REMARK                            x       y       z     vdW  Elec       q    Type
REMARK                         _______ _______ _______ _____ _____    ______ ____
ROOT
ATOM      1  C   UNL     1       2.161   3.380  21.806  0.00  0.00    +0.000 C 
ATOM      2  C   UNL     1       2.621   4.099  20.566  0.00  0.00    +0.000 C 
ATOM      3  C   UNL     1       3.306   3.655  19.488  0.00  0.00    +0.000 C 
ATOM      4  C   UNL     1       3.576   4.607  18.317  0.00  0.00    +0.000 C 
ATOM      5  N   UNL     1       3.344   5.992  18.678  0.00  0.00    +0.000 N 
ATOM      6  C   UNL     1       2.516   6.373  19.667  0.00  0.00    +0.000 C 
ATOM      7  O   UNL     1       2.108   7.529  19.768  0.00  0.00    +0.000 OA
ATOM      8  N   UNL     1       2.196   5.419  20.578  0.00  0.00    +0.000 N 
ATOM      9  H   UNL     1       3.547   6.710  18.000  0.00  0.00    +0.000 HD
ATOM     10  H   UNL     1       1.617   5.757  21.335  0.00  0.00    +0.000 HD
ENDROOT
BRANCH   3  11
ATOM     11  C   UNL     1       3.722   2.245  19.162  0.00  0.00    +0.000 C 
ATOM     12  N   UNL     1       4.804   1.684  19.748  0.00  0.00    +0.000 N 
ATOM     13  O   UNL     1       3.108   1.574  18.334  0.00  0.00    +0.000 OA
ATOM     14  H   UNL     1       5.438   2.115  20.392  0.00  0.00    +0.000 HD
ATOM     15  H   UNL     1       5.028   0.747  19.439  0.00  0.00    +0.000 HD
ENDBRANCH   3  11
BRANCH   4  16
ATOM     16  C   UNL     1       4.973   4.592  17.732  0.00  0.00    +0.000 A 
ATOM     17  C   UNL     1       5.327   4.284  16.375  0.00  0.00    +0.000 A 
ATOM     18  C   UNL     1       6.679   4.400  16.133  0.00  0.00    +0.000 A 
ATOM     19  S   UNL     1       7.548   4.814  17.542  0.00  0.00    +0.000 S 
ATOM     20  C   UNL     1       6.116   4.878  18.471  0.00  0.00    +0.000 A 
ENDBRANCH   4  16
TORSDOF 2
ENDMDL
MODEL 2
REMARK VINA RESULT:      -6.9      0.592      1.021
REMARK  Name = 
REMARK  3 active torsions:
REMARK  status: ('A' for Active; 'I' for Inactive)
REMARK    1  A    between atoms: C_1  and  C_2
REMARK    2  A    between atoms: C_3  and  C_4
REMARK    3  A    between atoms: C_7  and  C_8
REMARK                            x       y       z     vdW  Elec       q    Type
REMARK                         _______ _______ _______ _____ _____    ______ ____
ROOT
ATOM      1  C   UNL     1       2.233   3.472  21.751  0.00  0.00    +0.000 C 
ATOM      2  C   UNL     1       2.683   4.195  20.509  0.00  0.00    +0.000 C 
ATOM      3  C   UNL     1       3.371   3.757  19.431  0.00  0.00    +0.000 C 
ATOM      4  C   UNL     1       3.628   4.711  18.259  0.00  0.00    +0.000 C 
ATOM      5  N   UNL     1       3.381   6.094  18.619  0.00  0.00    +0.000 N 
ATOM      6  C   UNL     1       2.551   6.467  19.609  0.00  0.00    +0.000 C 
ATOM      7  O   UNL     1       2.130   7.618  19.709  0.00  0.00    +0.000 OA
ATOM      8  N   UNL     1       2.243   5.510  20.521  0.00  0.00    +0.000 N 
ATOM      9  H   UNL     1       3.575   6.814  17.940  0.00  0.00    +0.000 HD
ATOM     10  H   UNL     1       1.661   5.842  21.279  0.00  0.00    +0.000 HD
ENDROOT
BRANCH   3  11
ATOM     11  C   UNL     1       3.802   2.352  19.105  0.00  0.00    +0.000 C 
ATOM     12  N   UNL     1       4.863   1.787  19.724  0.00  0.00    +0.000 N 
ATOM     13  O   UNL     1       3.220   1.689  18.248  0.00  0.00    +0.000 OA
ATOM     14  H   UNL     1       5.472   2.213  20.396  0.00  0.00    +0.000 HD
ATOM     15  H   UNL     1       5.101   0.854  19.414  0.00  0.00    +0.000 HD
ENDBRANCH   3  11
BRANCH   4  16
ATOM     16  C   UNL     1       5.025   4.712  17.671  0.00  0.00    +0.000 A 
ATOM     17  C   UNL     1       6.251   4.925  18.386  0.00  0.00    +0.000 A 
ATOM     18  C   UNL     1       7.366   4.819  17.582  0.00  0.00    +0.000 A 
ATOM     19  S   UNL     1       6.955   4.527  15.952  0.00  0.00    +0.000 S 
ATOM     20  C   UNL     1       5.287   4.503  16.321  0.00  0.00    +0.000 A 
ENDBRANCH   4  16
TORSDOF 2
ENDMDL
MODEL 3
REMARK VINA RESULT:      -6.8      3.521      5.215
REMARK  Name = 
REMARK  3 active torsions:
REMARK  status: ('A' for Active; 'I' for Inactive)
REMARK    1  A    between atoms: C_1  and  C_2
REMARK    2  A    between atoms: C_3  and  C_4
REMARK    3  A    between atoms: C_7  and  C_8
REMARK                            x       y       z     vdW  Elec       q    Type
REMARK                         _______ _______ _______ _____ _____    ______ ____
ROOT
ATOM      1  C   UNL     1       7.962   8.267  17.405  0.00  0.00    +0.000 C 
ATOM      2  C   UNL     1       7.406   6.937  17.837  0.00  0.00    +0.000 C 
ATOM      3  C   UNL     1       6.519   6.112  17.237  0.00  0.00    +0.000 C 
ATOM      4  C   UNL     1       6.187   4.760  17.880  0.00  0.00    +0.000 C 
ATOM      5  N   UNL     1       6.631   4.690  19.258  0.00  0.00    +0.000 N 
ATOM      6  C   UNL     1       7.637   5.432  19.753  0.00  0.00    +0.000 C 
ATOM      7  O   UNL     1       8.187   5.158  20.818  0.00  0.00    +0.000 OA
ATOM      8  N   UNL     1       7.979   6.530  19.033  0.00  0.00    +0.000 N 
ATOM      9  H   UNL     1       6.411   3.866  19.797  0.00  0.00    +0.000 HD
ATOM     10  H   UNL     1       8.702   7.092  19.464  0.00  0.00    +0.000 HD
ENDROOT
BRANCH   3  11
ATOM     11  C   UNL     1       5.898   6.243  15.872  0.00  0.00    +0.000 C 
ATOM     12  N   UNL     1       6.340   5.500  14.832  0.00  0.00    +0.000 N 
ATOM     13  O   UNL     1       4.993   7.047  15.656  0.00  0.00    +0.000 OA
ATOM     14  H   UNL     1       7.101   4.849  14.830  0.00  0.00    +0.000 HD
ATOM     15  H   UNL     1       5.888   5.681  13.944  0.00  0.00    +0.000 HD
ENDBRANCH   3  11
BRANCH   4  16
ATOM     16  C   UNL     1       4.725   4.366  17.926  0.00  0.00    +0.000 A 
ATOM     17  C   UNL     1       4.111   3.278  17.219  0.00  0.00    +0.000 A 
ATOM     18  C   UNL     1       2.769   3.143  17.502  0.00  0.00    +0.000 A 
ATOM     19  S   UNL     1       2.213   4.355  18.566  0.00  0.00    +0.000 S 
ATOM     20  C   UNL     1       3.774   5.042  18.683  0.00  0.00    +0.000 A 
ENDBRANCH   4  16
TORSDOF 2
ENDMDL
MODEL 4
REMARK VINA RESULT:      -6.7      3.485      5.272
REMARK  Name = 
REMARK  3 active torsions:
REMARK  status: ('A' for Active; 'I' for Inactive)
REMARK    1  A    between atoms: C_1  and  C_2
REMARK    2  A    between atoms: C_3  and  C_4
REMARK    3  A    between atoms: C_7  and  C_8
REMARK                            x       y       z     vdW  Elec       q    Type
REMARK                         _______ _______ _______ _____ _____    ______ ____
ROOT
ATOM      1  C   UNL     1       7.985   8.242  17.407  0.00  0.00    +0.000 C 
ATOM      2  C   UNL     1       7.414   6.921  17.848  0.00  0.00    +0.000 C 
ATOM      3  C   UNL     1       6.517   6.102  17.254  0.00  0.00    +0.000 C 
ATOM      4  C   UNL     1       6.170   4.759  17.906  0.00  0.00    +0.000 C 
ATOM      5  N   UNL     1       6.613   4.694  19.285  0.00  0.00    +0.000 N 
ATOM      6  C   UNL     1       7.628   5.428  19.775  0.00  0.00    +0.000 C 
ATOM      7  O   UNL     1       8.174   5.155  20.843  0.00  0.00    +0.000 OA
ATOM      8  N   UNL     1       7.981   6.517  19.047  0.00  0.00    +0.000 N 
ATOM      9  H   UNL     1       6.384   3.876  19.830  0.00  0.00    +0.000 HD
ATOM     10  H   UNL     1       8.710   7.073  19.475  0.00  0.00    +0.000 HD
ENDROOT
BRANCH   3  11
ATOM     11  C   UNL     1       5.898   6.229  15.888  0.00  0.00    +0.000 C 
ATOM     12  N   UNL     1       6.329   5.471  14.854  0.00  0.00    +0.000 N 
ATOM     13  O   UNL     1       5.005   7.044  15.665  0.00  0.00    +0.000 OA
ATOM     14  H   UNL     1       7.082   4.810  14.858  0.00  0.00    +0.000 HD
ATOM     15  H   UNL     1       5.880   5.652  13.965  0.00  0.00    +0.000 HD
ENDBRANCH   3  11
BRANCH   4  16
ATOM     16  C   UNL     1       4.704   4.381  17.955  0.00  0.00    +0.000 A 
ATOM     17  C   UNL     1       3.653   5.122  18.595  0.00  0.00    +0.000 A 
ATOM     18  C   UNL     1       2.412   4.546  18.427  0.00  0.00    +0.000 A 
ATOM     19  S   UNL     1       2.498   3.080  17.559  0.00  0.00    +0.000 S 
ATOM     20  C   UNL     1       4.190   3.229  17.370  0.00  0.00    +0.000 A 
ENDBRANCH   4  16
TORSDOF 2
ENDMDL
MODEL 5
REMARK VINA RESULT:      -6.6      1.024      1.442
REMARK  Name = 
REMARK  3 active torsions:
REMARK  status: ('A' for Active; 'I' for Inactive)
REMARK    1  A    between atoms: C_1  and  C_2
REMARK    2  A    between atoms: C_3  and  C_4
REMARK    3  A    between atoms: C_7  and  C_8
REMARK                            x       y       z     vdW  Elec       q    Type
REMARK                         _______ _______ _______ _____ _____    ______ ____
ROOT
ATOM      1  C   UNL     1       1.987   2.979  21.862  0.00  0.00    +0.000 C 
ATOM      2  C   UNL     1       2.554   3.841  20.766  0.00  0.00    +0.000 C 
ATOM      3  C   UNL     1       3.458   3.562  19.800  0.00  0.00    +0.000 C 
ATOM      4  C   UNL     1       3.799   4.628  18.752  0.00  0.00    +0.000 C 
ATOM      5  N   UNL     1       3.341   5.945  19.147  0.00  0.00    +0.000 N 
ATOM      6  C   UNL     1       2.320   6.152  19.998  0.00  0.00    +0.000 C 
ATOM      7  O   UNL     1       1.762   7.244  20.093  0.00  0.00    +0.000 OA
ATOM      8  N   UNL     1       1.973   5.100  20.781  0.00  0.00    +0.000 N 
ATOM      9  H   UNL     1       3.564   6.733  18.559  0.00  0.00    +0.000 HD
ATOM     10  H   UNL     1       1.239   5.311  21.444  0.00  0.00    +0.000 HD
ENDROOT
BRANCH   3  11
ATOM     11  C   UNL     1       4.093   2.238  19.469  0.00  0.00    +0.000 C 
ATOM     12  N   UNL     1       3.723   1.544  18.368  0.00  0.00    +0.000 N 
ATOM     13  O   UNL     1       4.942   1.736  20.202  0.00  0.00    +0.000 OA
ATOM     14  H   UNL     1       3.009   1.786  17.709  0.00  0.00    +0.000 HD
ATOM     15  H   UNL     1       4.176   0.648  18.246  0.00  0.00    +0.000 HD
ENDBRANCH   3  11
BRANCH   4  16
ATOM     16  C   UNL     1       5.265   4.815  18.420  0.00  0.00    +0.000 A 
ATOM     17  C   UNL     1       6.265   5.398  19.269  0.00  0.00    +0.000 A 
ATOM     18  C   UNL     1       7.522   5.386  18.704  0.00  0.00    +0.000 A 
ATOM     19  S   UNL     1       7.509   4.740  17.125  0.00  0.00    +0.000 S 
ATOM     20  C   UNL     1       5.829   4.436  17.206  0.00  0.00    +0.000 A 
ENDBRANCH   4  16
TORSDOF 2
ENDMDL
MODEL 6
REMARK VINA RESULT:      -6.6      2.697      4.317
REMARK  Name = 
REMARK  3 active torsions:
REMARK  status: ('A' for Active; 'I' for Inactive)
REMARK    1  A    between atoms: C_1  and  C_2
REMARK    2  A    between atoms: C_3  and  C_4
REMARK    3  A    between atoms: C_7  and  C_8
REMARK                            x       y       z     vdW  Elec       q    Type
REMARK                         _______ _______ _______ _____ _____    ______ ____
ROOT
ATOM      1  C   UNL     1       5.179   6.581  16.106  0.00  0.00    +0.000 C 
ATOM      2  C   UNL     1       4.309   6.521  17.333  0.00  0.00    +0.000 C 
ATOM      3  C   UNL     1       4.226   5.594  18.314  0.00  0.00    +0.000 C 
ATOM      4  C   UNL     1       3.288   5.833  19.503  0.00  0.00    +0.000 C 
ATOM      5  N   UNL     1       2.339   6.897  19.242  0.00  0.00    +0.000 N 
ATOM      6  C   UNL     1       2.558   7.888  18.359  0.00  0.00    +0.000 C 
ATOM      7  O   UNL     1       1.892   8.922  18.361  0.00  0.00    +0.000 OA
ATOM      8  N   UNL     1       3.523   7.659  17.433  0.00  0.00    +0.000 N 
ATOM      9  H   UNL     1       1.634   7.100  19.935  0.00  0.00    +0.000 HD
ATOM     10  H   UNL     1       3.621   8.403  16.755  0.00  0.00    +0.000 HD
ENDROOT
BRANCH   3  11
ATOM     11  C   UNL     1       5.084   4.375  18.522  0.00  0.00    +0.000 C 
ATOM     12  N   UNL     1       4.867   3.242  17.817  0.00  0.00    +0.000 N 
ATOM     13  O   UNL     1       5.986   4.365  19.358  0.00  0.00    +0.000 OA
ATOM     14  H   UNL     1       4.141   3.071  17.148  0.00  0.00    +0.000 HD
ATOM     15  H   UNL     1       5.469   2.462  18.050  0.00  0.00    +0.000 HD
ENDBRANCH   3  11
BRANCH   4  16
ATOM     16  C   UNL     1       2.438   4.661  19.950  0.00  0.00    +0.000 A 
ATOM     17  C   UNL     1       1.461   3.966  19.160  0.00  0.00    +0.000 A 
ATOM     18  C   UNL     1       0.883   2.910  19.830  0.00  0.00    +0.000 A 
ATOM     19  S   UNL     1       1.454   2.777  21.433  0.00  0.00    +0.000 S 
ATOM     20  C   UNL     1       2.505   4.108  21.224  0.00  0.00    +0.000 A 
ENDBRANCH   4  16
TORSDOF 2
ENDMDL
MODEL 7
REMARK VINA RESULT:      -6.6      1.730      3.439
REMARK  Name = 
REMARK  3 active torsions:
REMARK  status: ('A' for Active; 'I' for Inactive)
REMARK    1  A    between atoms: C_1  and  C_2
REMARK    2  A    between atoms: C_3  and  C_4
REMARK    3  A    between atoms: C_7  and  C_8
REMARK                            x       y       z     vdW  Elec       q    Type
REMARK                         _______ _______ _______ _____ _____    ______ ____
ROOT
ATOM      1  C   UNL     1       1.137   3.449  20.565  0.00  0.00    +0.000 C 
ATOM      2  C   UNL     1       2.566   3.581  20.110  0.00  0.00    +0.000 C 
ATOM      3  C   UNL     1       3.187   4.560  19.415  0.00  0.00    +0.000 C 
ATOM      4  C   UNL     1       4.694   4.464  19.155  0.00  0.00    +0.000 C 
ATOM      5  N   UNL     1       5.206   3.131  19.406  0.00  0.00    +0.000 N 
ATOM      6  C   UNL     1       4.619   2.256  20.243  0.00  0.00    +0.000 C 
ATOM      7  O   UNL     1       5.208   1.263  20.666  0.00  0.00    +0.000 OA
ATOM      8  N   UNL     1       3.322   2.506  20.553  0.00  0.00    +0.000 N 
ATOM      9  H   UNL     1       6.176   2.939  19.210  0.00  0.00    +0.000 HD
ATOM     10  H   UNL     1       2.900   1.798  21.139  0.00  0.00    +0.000 HD
ENDROOT
BRANCH   3  11
ATOM     11  C   UNL     1       2.634   5.891  18.980  0.00  0.00    +0.000 C 
ATOM     12  N   UNL     1       2.584   6.938  19.835  0.00  0.00    +0.000 N 
ATOM     13  O   UNL     1       2.186   6.057  17.847  0.00  0.00    +0.000 OA
ATOM     14  H   UNL     1       2.850   6.947  20.801  0.00  0.00    +0.000 HD
ATOM     15  H   UNL     1       2.162   7.781  19.467  0.00  0.00    +0.000 HD
ENDBRANCH   3  11
BRANCH   4  16
ATOM     16  C   UNL     1       5.168   4.799  17.755  0.00  0.00    +0.000 A 
ATOM     17  C   UNL     1       5.938   5.948  17.367  0.00  0.00    +0.000 A 
ATOM     18  C   UNL     1       6.257   5.951  16.026  0.00  0.00    +0.000 A 
ATOM     19  S   UNL     1       5.584   4.616  15.204  0.00  0.00    +0.000 S 
ATOM     20  C   UNL     1       4.897   4.007  16.645  0.00  0.00    +0.000 A 
ENDBRANCH   4  16
TORSDOF 2
ENDMDL
MODEL 8
REMARK VINA RESULT:      -6.5      1.636      3.332
REMARK  Name = 
REMARK  3 active torsions:
REMARK  status: ('A' for Active; 'I' for Inactive)
REMARK    1  A    between atoms: C_1  and  C_2
REMARK    2  A    between atoms: C_3  and  C_4
REMARK    3  A    between atoms: C_7  and  C_8
REMARK                            x       y       z     vdW  Elec       q    Type
REMARK                         _______ _______ _______ _____ _____    ______ ____
ROOT
ATOM      1  C   UNL     1       1.207   3.342  20.804  0.00  0.00    +0.000 C 
ATOM      2  C   UNL     1       2.618   3.462  20.294  0.00  0.00    +0.000 C 
ATOM      3  C   UNL     1       3.208   4.415  19.538  0.00  0.00    +0.000 C 
ATOM      4  C   UNL     1       4.706   4.316  19.228  0.00  0.00    +0.000 C 
ATOM      5  N   UNL     1       5.234   2.996  19.514  0.00  0.00    +0.000 N 
ATOM      6  C   UNL     1       4.682   2.153  20.405  0.00  0.00    +0.000 C 
ATOM      7  O   UNL     1       5.292   1.180  20.847  0.00  0.00    +0.000 OA
ATOM      8  N   UNL     1       3.396   2.409  20.752  0.00  0.00    +0.000 N 
ATOM      9  H   UNL     1       6.198   2.800  19.291  0.00  0.00    +0.000 HD
ATOM     10  H   UNL     1       2.999   1.723  21.381  0.00  0.00    +0.000 HD
ENDROOT
BRANCH   3  11
ATOM     11  C   UNL     1       2.632   5.725  19.071  0.00  0.00    +0.000 C 
ATOM     12  N   UNL     1       2.678   6.826  19.855  0.00  0.00    +0.000 N 
ATOM     13  O   UNL     1       2.079   5.825  17.977  0.00  0.00    +0.000 OA
ATOM     14  H   UNL     1       3.037   6.893  20.788  0.00  0.00    +0.000 HD
ATOM     15  H   UNL     1       2.233   7.651  19.473  0.00  0.00    +0.000 HD
ENDBRANCH   3  11
BRANCH   4  16
ATOM     16  C   UNL     1       5.127   4.596  17.800  0.00  0.00    +0.000 A 
ATOM     17  C   UNL     1       4.758   3.840  16.637  0.00  0.00    +0.000 A 
ATOM     18  C   UNL     1       5.262   4.372  15.469  0.00  0.00    +0.000 A 
ATOM     19  S   UNL     1       6.237   5.742  15.757  0.00  0.00    +0.000 S 
ATOM     20  C   UNL     1       5.956   5.653  17.440  0.00  0.00    +0.000 A 
ENDBRANCH   4  16
TORSDOF 2
ENDMDL
MODEL 9
REMARK VINA RESULT:      -6.4      2.676      4.256
REMARK  Name = 
REMARK  3 active torsions:
REMARK  status: ('A' for Active; 'I' for Inactive)
REMARK    1  A    between atoms: C_1  and  C_2
REMARK    2  A    between atoms: C_3  and  C_4
REMARK    3  A    between atoms: C_7  and  C_8
REMARK                            x       y       z     vdW  Elec       q    Type
REMARK                         _______ _______ _______ _____ _____    ______ ____
ROOT
ATOM      1  C   UNL     1       3.667   1.634  18.176  0.00  0.00    +0.000 C 
ATOM      2  C   UNL     1       3.906   3.019  18.715  0.00  0.00    +0.000 C 
ATOM      3  C   UNL     1       3.042   3.952  19.173  0.00  0.00    +0.000 C 
ATOM      4  C   UNL     1       3.581   5.269  19.743  0.00  0.00    +0.000 C 
ATOM      5  N   UNL     1       4.972   5.482  19.395  0.00  0.00    +0.000 N 
ATOM      6  C   UNL     1       5.827   4.485  19.104  0.00  0.00    +0.000 C 
ATOM      7  O   UNL     1       7.046   4.650  19.102  0.00  0.00    +0.000 OA
ATOM      8  N   UNL     1       5.264   3.298  18.765  0.00  0.00    +0.000 N 
ATOM      9  H   UNL     1       5.414   6.347  19.668  0.00  0.00    +0.000 HD
ATOM     10  H   UNL     1       5.936   2.589  18.500  0.00  0.00    +0.000 HD
ENDROOT
BRANCH   3  11
ATOM     11  C   UNL     1       1.556   3.825  19.383  0.00  0.00    +0.000 C 
ATOM     12  N   UNL     1       1.026   3.831  20.627  0.00  0.00    +0.000 N 
ATOM     13  O   UNL     1       0.787   3.685  18.434  0.00  0.00    +0.000 OA
ATOM     14  H   UNL     1       1.519   3.877  21.498  0.00  0.00    +0.000 HD
ATOM     15  H   UNL     1       0.023   3.704  20.673  0.00  0.00    +0.000 HD
ENDBRANCH   3  11
BRANCH   4  16
ATOM     16  C   UNL     1       2.878   6.539  19.310  0.00  0.00    +0.000 A 
ATOM     17  C   UNL     1       1.989   7.337  20.107  0.00  0.00    +0.000 A 
ATOM     18  C   UNL     1       1.543   8.462  19.449  0.00  0.00    +0.000 A 
ATOM     19  S   UNL     1       2.129   8.544  17.848  0.00  0.00    +0.000 S 
ATOM     20  C   UNL     1       3.014   7.095  18.042  0.00  0.00    +0.000 A 
ENDBRANCH   4  16
TORSDOF 2
ENDMDL
