MODEL 1
REMARK VINA RESULT:      -7.9      0.000      0.000
REMARK  Name = 
REMARK  5 active torsions:
REMARK  status: ('A' for Active; 'I' for Inactive)
REMARK    1  A    between atoms: C_1  and  C_2
REMARK    2  A    between atoms: C_2  and  C_3
REMARK    3  A    between atoms: C_2  and  C_4
REMARK    4  A    between atoms: N_8  and  C_9
REMARK    5  A    between atoms: C_16  and  C_17
REMARK                            x       y       z     vdW  Elec       q    Type
REMARK                         _______ _______ _______ _____ _____    ______ ____
ROOT
ATOM      1  C   UNL     1       3.021   4.335  19.985  0.00  0.00    +0.000 A 
ATOM      2  C   UNL     1       1.768   4.707  20.440  0.00  0.00    +0.000 A 
ATOM      3  N   UNL     1       1.270   5.956  20.399  0.00  0.00    +0.000 NA
ATOM      4  C   UNL     1       2.050   6.895  19.859  0.00  0.00    +0.000 A 
ATOM      5  N   UNL     1       1.635   8.217  19.832  0.00  0.00    +0.000 N 
ATOM      6  N   UNL     1       3.245   6.640  19.324  0.00  0.00    +0.000 NA
ATOM      7  C   UNL     1       3.746   5.384  19.422  0.00  0.00    +0.000 A 
ATOM      8  H   UNL     1       1.425   8.428  18.864  0.00  0.00    +0.000 HD
ENDROOT
BRANCH   7   9
ATOM      9  C   UNL     1       5.083   5.235  18.823  0.00  0.00    +0.000 A 
ATOM     10  C   UNL     1       6.288   5.338  19.498  0.00  0.00    +0.000 A 
ATOM     11  N   UNL     1       7.303   4.997  18.646  0.00  0.00    +0.000 N 
ATOM     12  C   UNL     1       6.811   4.793  17.386  0.00  0.00    +0.000 A 
ATOM     13  C   UNL     1       7.484   4.447  16.209  0.00  0.00    +0.000 A 
ATOM     14  C   UNL     1       6.728   4.345  15.041  0.00  0.00    +0.000 A 
ATOM     15  C   UNL     1       5.356   4.585  15.053  0.00  0.00    +0.000 A 
ATOM     16  C   UNL     1       4.697   4.903  16.246  0.00  0.00    +0.000 A 
ATOM     17  C   UNL     1       5.430   4.997  17.447  0.00  0.00    +0.000 A 
ATOM     18  H   UNL     1       8.277   4.921  18.904  0.00  0.00    +0.000 HD
ENDBRANCH   7   9
BRANCH   5  19
ATOM     19  C   UNL     1       0.604   8.642  20.786  0.00  0.00    +0.000 C 
ATOM     20  C   UNL     1       1.261   8.972  22.142  0.00  0.00    +0.000 C 
ATOM     21  C   UNL     1       0.351   9.780  23.060  0.00  0.00    +0.000 C 
ATOM     22  C   UNL     1      -0.201  11.010  22.353  0.00  0.00    +0.000 C 
ATOM     23  N   UNL     1      -0.957  10.619  21.163  0.00  0.00    +0.000 NA
ATOM     24  C   UNL     1      -0.088   9.911  20.213  0.00  0.00    +0.000 C 
ATOM     25  H   UNL     1      -1.323  11.458  20.714  0.00  0.00    +0.000 HD
ENDBRANCH   5  19
BRANCH   1  27
ATOM     26  C   UNL     1       2.886   2.290  21.404  0.00  0.00    +0.000 C 
ATOM     27  C   UNL     1       3.523   2.920  20.158  0.00  0.00    +0.000 C 
ATOM     28  C   UNL     1       3.297   2.002  18.951  0.00  0.00    +0.000 C 
ENDBRANCH   1  27
TORSDOF 3
ENDMDL
MODEL 2
REMARK VINA RESULT:      -7.2      1.791      7.108
REMARK  Name = 
REMARK  5 active torsions:
REMARK  status: ('A' for Active; 'I' for Inactive)
REMARK    1  A    between atoms: C_1  and  C_2
REMARK    2  A    between atoms: C_2  and  C_3
REMARK    3  A    between atoms: C_2  and  C_4
REMARK    4  A    between atoms: N_8  and  C_9
REMARK    5  A    between atoms: C_16  and  C_17
REMARK                            x       y       z     vdW  Elec       q    Type
REMARK                         _______ _______ _______ _____ _____    ______ ____
ROOT
ATOM      1  C   UNL     1       2.634   4.393  19.573  0.00  0.00    +0.000 A 
ATOM      2  C   UNL     1       3.562   3.549  18.990  0.00  0.00    +0.000 A 
ATOM      3  N   UNL     1       4.620   3.949  18.262  0.00  0.00    +0.000 NA
ATOM      4  C   UNL     1       4.783   5.266  18.115  0.00  0.00    +0.000 A 
ATOM      5  N   UNL     1       5.815   5.758  17.331  0.00  0.00    +0.000 N 
ATOM      6  N   UNL     1       3.994   6.174  18.692  0.00  0.00    +0.000 NA
ATOM      7  C   UNL     1       2.906   5.746  19.379  0.00  0.00    +0.000 A 
ATOM      8  H   UNL     1       6.484   6.170  17.971  0.00  0.00    +0.000 HD
ENDROOT
BRANCH   7   9
ATOM      9  C   UNL     1       2.097   6.840  19.940  0.00  0.00    +0.000 A 
ATOM     10  C   UNL     1       1.441   6.818  21.160  0.00  0.00    +0.000 A 
ATOM     11  N   UNL     1       0.919   8.059  21.404  0.00  0.00    +0.000 N 
ATOM     12  C   UNL     1       1.105   8.870  20.317  0.00  0.00    +0.000 A 
ATOM     13  C   UNL     1       0.722  10.201  20.121  0.00  0.00    +0.000 A 
ATOM     14  C   UNL     1       1.006  10.776  18.882  0.00  0.00    +0.000 A 
ATOM     15  C   UNL     1       1.641  10.044  17.882  0.00  0.00    +0.000 A 
ATOM     16  C   UNL     1       2.041   8.722  18.108  0.00  0.00    +0.000 A 
ATOM     17  C   UNL     1       1.784   8.118  19.356  0.00  0.00    +0.000 A 
ATOM     18  H   UNL     1       0.451   8.335  22.256  0.00  0.00    +0.000 HD
ENDBRANCH   7   9
BRANCH   5  19
ATOM     19  C   UNL     1       6.403   4.873  16.319  0.00  0.00    +0.000 C 
ATOM     20  C   UNL     1       5.305   4.410  15.340  0.00  0.00    +0.000 C 
ATOM     21  C   UNL     1       5.870   3.819  14.053  0.00  0.00    +0.000 C 
ATOM     22  C   UNL     1       6.882   4.757  13.409  0.00  0.00    +0.000 C 
ATOM     23  N   UNL     1       7.986   5.027  14.330  0.00  0.00    +0.000 NA
ATOM     24  C   UNL     1       7.489   5.678  15.550  0.00  0.00    +0.000 C 
ATOM     25  H   UNL     1       8.652   5.648  13.872  0.00  0.00    +0.000 HD
ENDBRANCH   5  19
BRANCH   1  27
ATOM     26  C   UNL     1       0.648   2.901  19.369  0.00  0.00    +0.000 C 
ATOM     27  C   UNL     1       1.427   3.840  20.298  0.00  0.00    +0.000 C 
ATOM     28  C   UNL     1       1.739   3.114  21.612  0.00  0.00    +0.000 C 
ENDBRANCH   1  27
TORSDOF 3
ENDMDL
MODEL 3
REMARK VINA RESULT:      -7.2      2.732      8.314
REMARK  Name = 
REMARK  5 active torsions:
REMARK  status: ('A' for Active; 'I' for Inactive)
REMARK    1  A    between atoms: C_1  and  C_2
REMARK    2  A    between atoms: C_2  and  C_3
REMARK    3  A    between atoms: C_2  and  C_4
REMARK    4  A    between atoms: N_8  and  C_9
REMARK    5  A    between atoms: C_16  and  C_17
REMARK                            x       y       z     vdW  Elec       q    Type
REMARK                         _______ _______ _______ _____ _____    ______ ____
ROOT
ATOM      1  C   UNL     1       0.409   9.563  20.920  0.00  0.00    +0.000 A 
ATOM      2  C   UNL     1       1.063   8.403  21.294  0.00  0.00    +0.000 A 
ATOM      3  N   UNL     1       1.837   7.656  20.486  0.00  0.00    +0.000 NA
ATOM      4  C   UNL     1       1.990   8.090  19.233  0.00  0.00    +0.000 A 
ATOM      5  N   UNL     1       2.723   7.348  18.322  0.00  0.00    +0.000 N 
ATOM      6  N   UNL     1       1.466   9.231  18.781  0.00  0.00    +0.000 NA
ATOM      7  C   UNL     1       0.650   9.941  19.599  0.00  0.00    +0.000 A 
ATOM      8  H   UNL     1       3.579   7.864  18.160  0.00  0.00    +0.000 HD
ENDROOT
BRANCH   7   9
ATOM      9  C   UNL     1       0.110  11.161  18.978  0.00  0.00    +0.000 A 
ATOM     10  C   UNL     1      -1.085  11.255  18.285  0.00  0.00    +0.000 A 
ATOM     11  N   UNL     1      -1.319  12.570  17.984  0.00  0.00    +0.000 N 
ATOM     12  C   UNL     1      -0.245  13.335  18.350  0.00  0.00    +0.000 A 
ATOM     13  C   UNL     1      -0.044  14.713  18.217  0.00  0.00    +0.000 A 
ATOM     14  C   UNL     1       1.180  15.229  18.643  0.00  0.00    +0.000 A 
ATOM     15  C   UNL     1       2.162  14.396  19.173  0.00  0.00    +0.000 A 
ATOM     16  C   UNL     1       1.931  13.023  19.323  0.00  0.00    +0.000 A 
ATOM     17  C   UNL     1       0.697  12.474  18.919  0.00  0.00    +0.000 A 
ATOM     18  H   UNL     1      -2.156  12.924  17.542  0.00  0.00    +0.000 HD
ENDBRANCH   7   9
BRANCH   5  19
ATOM     19  C   UNL     1       2.914   5.916  18.583  0.00  0.00    +0.000 C 
ATOM     20  C   UNL     1       1.842   5.107  17.825  0.00  0.00    +0.000 C 
ATOM     21  C   UNL     1       2.185   3.626  17.716  0.00  0.00    +0.000 C 
ATOM     22  C   UNL     1       3.586   3.420  17.160  0.00  0.00    +0.000 C 
ATOM     23  N   UNL     1       4.577   4.072  18.016  0.00  0.00    +0.000 NA
ATOM     24  C   UNL     1       4.329   5.520  18.075  0.00  0.00    +0.000 C 
ATOM     25  H   UNL     1       5.505   3.912  17.628  0.00  0.00    +0.000 HD
ENDBRANCH   5  19
BRANCH   1  27
ATOM     26  C   UNL     1      -0.427   9.631  23.267  0.00  0.00    +0.000 C 
ATOM     27  C   UNL     1      -0.511  10.283  21.880  0.00  0.00    +0.000 C 
ATOM     28  C   UNL     1      -0.260  11.789  22.008  0.00  0.00    +0.000 C 
ENDBRANCH   1  27
TORSDOF 3
ENDMDL
MODEL 4
REMARK VINA RESULT:      -7.1      2.653      8.351
REMARK  Name = 
REMARK  5 active torsions:
REMARK  status: ('A' for Active; 'I' for Inactive)
REMARK    1  A    between atoms: C_1  and  C_2
REMARK    2  A    between atoms: C_2  and  C_3
REMARK    3  A    between atoms: C_2  and  C_4
REMARK    4  A    between atoms: N_8  and  C_9
REMARK    5  A    between atoms: C_16  and  C_17
REMARK                            x       y       z     vdW  Elec       q    Type
REMARK                         _______ _______ _______ _____ _____    ______ ____
ROOT
ATOM      1  C   UNL     1       0.391   9.505  20.653  0.00  0.00    +0.000 A 
ATOM      2  C   UNL     1       1.329   8.567  21.047  0.00  0.00    +0.000 A 
ATOM      3  N   UNL     1       2.130   7.879  20.215  0.00  0.00    +0.000 NA
ATOM      4  C   UNL     1       2.012   8.145  18.912  0.00  0.00    +0.000 A 
ATOM      5  N   UNL     1       2.760   7.437  17.985  0.00  0.00    +0.000 N 
ATOM      6  N   UNL     1       1.195   9.079  18.423  0.00  0.00    +0.000 NA
ATOM      7  C   UNL     1       0.362   9.724  19.276  0.00  0.00    +0.000 A 
ATOM      8  H   UNL     1       3.452   8.084  17.626  0.00  0.00    +0.000 HD
ENDROOT
BRANCH   7   9
ATOM      9  C   UNL     1      -0.513  10.706  18.615  0.00  0.00    +0.000 A 
ATOM     10  C   UNL     1      -0.203  12.035  18.379  0.00  0.00    +0.000 A 
ATOM     11  N   UNL     1      -1.195  12.592  17.619  0.00  0.00    +0.000 N 
ATOM     12  C   UNL     1      -2.219  11.698  17.452  0.00  0.00    +0.000 A 
ATOM     13  C   UNL     1      -3.429  11.845  16.767  0.00  0.00    +0.000 A 
ATOM     14  C   UNL     1      -4.319  10.771  16.796  0.00  0.00    +0.000 A 
ATOM     15  C   UNL     1      -4.009   9.603  17.488  0.00  0.00    +0.000 A 
ATOM     16  C   UNL     1      -2.780   9.466  18.144  0.00  0.00    +0.000 A 
ATOM     17  C   UNL     1      -1.852  10.527  18.119  0.00  0.00    +0.000 A 
ATOM     18  H   UNL     1      -1.184  13.532  17.246  0.00  0.00    +0.000 HD
ENDBRANCH   7   9
BRANCH   5  19
ATOM     19  C   UNL     1       3.295   6.127  18.375  0.00  0.00    +0.000 C 
ATOM     20  C   UNL     1       2.321   5.019  17.925  0.00  0.00    +0.000 C 
ATOM     21  C   UNL     1       2.957   3.633  17.932  0.00  0.00    +0.000 C 
ATOM     22  C   UNL     1       4.269   3.620  17.160  0.00  0.00    +0.000 C 
ATOM     23  N   UNL     1       5.212   4.576  17.740  0.00  0.00    +0.000 NA
ATOM     24  C   UNL     1       4.669   5.940  17.671  0.00  0.00    +0.000 C 
ATOM     25  H   UNL     1       6.084   4.541  17.212  0.00  0.00    +0.000 HD
ENDBRANCH   5  19
BRANCH   1  27
ATOM     26  C   UNL     1      -0.492   9.377  22.981  0.00  0.00    +0.000 C 
ATOM     27  C   UNL     1      -0.526  10.160  21.661  0.00  0.00    +0.000 C 
ATOM     28  C   UNL     1      -0.230  11.639  21.938  0.00  0.00    +0.000 C 
ENDBRANCH   1  27
TORSDOF 3
ENDMDL
MODEL 5
REMARK VINA RESULT:      -7.1      1.378      1.579
REMARK  Name = 
REMARK  5 active torsions:
REMARK  status: ('A' for Active; 'I' for Inactive)
REMARK    1  A    between atoms: C_1  and  C_2
REMARK    2  A    between atoms: C_2  and  C_3
REMARK    3  A    between atoms: C_2  and  C_4
REMARK    4  A    between atoms: N_8  and  C_9
REMARK    5  A    between atoms: C_16  and  C_17
REMARK                            x       y       z     vdW  Elec       q    Type
REMARK                         _______ _______ _______ _____ _____    ______ ____
ROOT
ATOM      1  C   UNL     1       3.453   4.692  18.337  0.00  0.00    +0.000 A 
ATOM      2  C   UNL     1       2.244   4.919  18.970  0.00  0.00    +0.000 A 
ATOM      3  N   UNL     1       1.670   6.124  19.131  0.00  0.00    +0.000 NA
ATOM      4  C   UNL     1       2.321   7.171  18.619  0.00  0.00    +0.000 A 
ATOM      5  N   UNL     1       1.826   8.454  18.793  0.00  0.00    +0.000 N 
ATOM      6  N   UNL     1       3.455   7.065  17.926  0.00  0.00    +0.000 NA
ATOM      7  C   UNL     1       4.040   5.846  17.820  0.00  0.00    +0.000 A 
ATOM      8  H   UNL     1       1.488   8.753  17.886  0.00  0.00    +0.000 HD
ENDROOT
BRANCH   7   9
ATOM      9  C   UNL     1       5.301   5.862  17.060  0.00  0.00    +0.000 A 
ATOM     10  C   UNL     1       6.460   6.523  17.431  0.00  0.00    +0.000 A 
ATOM     11  N   UNL     1       7.459   6.188  16.556  0.00  0.00    +0.000 N 
ATOM     12  C   UNL     1       6.956   5.421  15.540  0.00  0.00    +0.000 A 
ATOM     13  C   UNL     1       7.607   4.874  14.429  0.00  0.00    +0.000 A 
ATOM     14  C   UNL     1       6.831   4.159  13.516  0.00  0.00    +0.000 A 
ATOM     15  C   UNL     1       5.460   4.006  13.708  0.00  0.00    +0.000 A 
ATOM     16  C   UNL     1       4.833   4.537  14.840  0.00  0.00    +0.000 A 
ATOM     17  C   UNL     1       5.593   5.250  15.791  0.00  0.00    +0.000 A 
ATOM     18  H   UNL     1       8.423   6.477  16.638  0.00  0.00    +0.000 HD
ENDBRANCH   7   9
BRANCH   5  19
ATOM     19  C   UNL     1       0.894   8.697  19.900  0.00  0.00    +0.000 C 
ATOM     20  C   UNL     1       1.678   8.766  21.227  0.00  0.00    +0.000 C 
ATOM     21  C   UNL     1       0.871   9.391  22.360  0.00  0.00    +0.000 C 
ATOM     22  C   UNL     1       0.282  10.733  21.947  0.00  0.00    +0.000 C 
ATOM     23  N   UNL     1      -0.586  10.573  20.781  0.00  0.00    +0.000 NA
ATOM     24  C   UNL     1       0.179  10.053  19.639  0.00  0.00    +0.000 C 
ATOM     25  H   UNL     1      -0.974  11.482  20.532  0.00  0.00    +0.000 HD
ENDBRANCH   5  19
BRANCH   1  27
ATOM     26  C   UNL     1       4.459   2.863  19.699  0.00  0.00    +0.000 C 
ATOM     27  C   UNL     1       4.057   3.307  18.286  0.00  0.00    +0.000 C 
ATOM     28  C   UNL     1       3.165   2.235  17.649  0.00  0.00    +0.000 C 
ENDBRANCH   1  27
TORSDOF 3
ENDMDL
MODEL 6
REMARK VINA RESULT:      -7.0      2.051      2.391
REMARK  Name = 
REMARK  5 active torsions:
REMARK  status: ('A' for Active; 'I' for Inactive)
REMARK    1  A    between atoms: C_1  and  C_2
REMARK    2  A    between atoms: C_2  and  C_3
REMARK    3  A    between atoms: C_2  and  C_4
REMARK    4  A    between atoms: N_8  and  C_9
REMARK    5  A    between atoms: C_16  and  C_17
REMARK                            x       y       z     vdW  Elec       q    Type
REMARK                         _______ _______ _______ _____ _____    ______ ____
ROOT
ATOM      1  C   UNL     1       3.438   5.607  18.369  0.00  0.00    +0.000 A 
ATOM      2  C   UNL     1       2.237   6.048  18.897  0.00  0.00    +0.000 A 
ATOM      3  N   UNL     1       1.722   7.278  18.723  0.00  0.00    +0.000 NA
ATOM      4  C   UNL     1       2.426   8.122  17.966  0.00  0.00    +0.000 A 
ATOM      5  N   UNL     1       1.993   9.426  17.786  0.00  0.00    +0.000 N 
ATOM      6  N   UNL     1       3.560   7.785  17.348  0.00  0.00    +0.000 NA
ATOM      7  C   UNL     1       4.085   6.556  17.579  0.00  0.00    +0.000 A 
ATOM      8  H   UNL     1       1.678   9.489  16.826  0.00  0.00    +0.000 HD
ENDROOT
BRANCH   7   9
ATOM      9  C   UNL     1       5.351   6.314  16.867  0.00  0.00    +0.000 A 
ATOM     10  C   UNL     1       6.581   6.856  17.198  0.00  0.00    +0.000 A 
ATOM     11  N   UNL     1       7.542   6.290  16.404  0.00  0.00    +0.000 N 
ATOM     12  C   UNL     1       6.960   5.479  15.468  0.00  0.00    +0.000 A 
ATOM     13  C   UNL     1       7.552   4.721  14.452  0.00  0.00    +0.000 A 
ATOM     14  C   UNL     1       6.704   4.009  13.603  0.00  0.00    +0.000 A 
ATOM     15  C   UNL     1       5.322   4.062  13.762  0.00  0.00    +0.000 A 
ATOM     16  C   UNL     1       4.750   4.805  14.802  0.00  0.00    +0.000 A 
ATOM     17  C   UNL     1       5.581   5.521  15.689  0.00  0.00    +0.000 A 
ATOM     18  H   UNL     1       8.535   6.457  16.485  0.00  0.00    +0.000 HD
ENDBRANCH   7   9
BRANCH   5  19
ATOM     19  C   UNL     1       1.066   9.994  18.772  0.00  0.00    +0.000 C 
ATOM     20  C   UNL     1       1.507  11.429  19.126  0.00  0.00    +0.000 C 
ATOM     21  C   UNL     1       0.414  12.229  19.826  0.00  0.00    +0.000 C 
ATOM     22  C   UNL     1      -0.892  12.185  19.046  0.00  0.00    +0.000 C 
ATOM     23  N   UNL     1      -1.346  10.803  18.887  0.00  0.00    +0.000 NA
ATOM     24  C   UNL     1      -0.353  10.021  18.137  0.00  0.00    +0.000 C 
ATOM     25  H   UNL     1      -2.225  10.802  18.371  0.00  0.00    +0.000 HD
ENDBRANCH   5  19
BRANCH   1  27
ATOM     26  C   UNL     1       3.557   3.837  20.120  0.00  0.00    +0.000 C 
ATOM     27  C   UNL     1       3.974   4.232  18.697  0.00  0.00    +0.000 C 
ATOM     28  C   UNL     1       3.560   3.127  17.719  0.00  0.00    +0.000 C 
ENDBRANCH   1  27
TORSDOF 3
ENDMDL
MODEL 7
REMARK VINA RESULT:      -6.9      1.062      1.086
REMARK  Name = 
REMARK  5 active torsions:
REMARK  status: ('A' for Active; 'I' for Inactive)
REMARK    1  A    between atoms: C_1  and  C_2
REMARK    2  A    between atoms: C_2  and  C_3
REMARK    3  A    between atoms: C_2  and  C_4
REMARK    4  A    between atoms: N_8  and  C_9
REMARK    5  A    between atoms: C_16  and  C_17
REMARK                            x       y       z     vdW  Elec       q    Type
REMARK                         _______ _______ _______ _____ _____    ______ ____
ROOT
ATOM      1  C   UNL     1       3.697   4.002  19.525  0.00  0.00    +0.000 A 
ATOM      2  C   UNL     1       2.533   4.157  20.258  0.00  0.00    +0.000 A 
ATOM      3  N   UNL     1       1.951   5.336  20.544  0.00  0.00    +0.000 NA
ATOM      4  C   UNL     1       2.544   6.430  20.062  0.00  0.00    +0.000 A 
ATOM      5  N   UNL     1       2.041   7.686  20.360  0.00  0.00    +0.000 N 
ATOM      6  N   UNL     1       3.627   6.398  19.284  0.00  0.00    +0.000 NA
ATOM      7  C   UNL     1       4.224   5.203  19.051  0.00  0.00    +0.000 A 
ATOM      8  H   UNL     1       1.633   8.039  19.503  0.00  0.00    +0.000 HD
ENDROOT
BRANCH   7   9
ATOM      9  C   UNL     1       5.427   5.300  18.207  0.00  0.00    +0.000 A 
ATOM     10  C   UNL     1       6.673   5.739  18.621  0.00  0.00    +0.000 A 
ATOM     11  N   UNL     1       7.569   5.551  17.603  0.00  0.00    +0.000 N 
ATOM     12  C   UNL     1       6.920   5.116  16.480  0.00  0.00    +0.000 A 
ATOM     13  C   UNL     1       7.433   4.814  15.214  0.00  0.00    +0.000 A 
ATOM     14  C   UNL     1       6.524   4.427  14.227  0.00  0.00    +0.000 A 
ATOM     15  C   UNL     1       5.161   4.352  14.500  0.00  0.00    +0.000 A 
ATOM     16  C   UNL     1       4.671   4.631  15.781  0.00  0.00    +0.000 A 
ATOM     17  C   UNL     1       5.565   5.008  16.804  0.00  0.00    +0.000 A 
ATOM     18  H   UNL     1       8.563   5.723  17.666  0.00  0.00    +0.000 HD
ENDBRANCH   7   9
BRANCH   5  19
ATOM     19  C   UNL     1       1.187   7.830  21.545  0.00  0.00    +0.000 C 
ATOM     20  C   UNL     1       1.715   8.984  22.423  0.00  0.00    +0.000 C 
ATOM     21  C   UNL     1       0.695   9.461  23.451  0.00  0.00    +0.000 C 
ATOM     22  C   UNL     1      -0.644   9.775  22.800  0.00  0.00    +0.000 C 
ATOM     23  N   UNL     1      -1.174   8.591  22.123  0.00  0.00    +0.000 NA
ATOM     24  C   UNL     1      -0.255   8.153  21.063  0.00  0.00    +0.000 C 
ATOM     25  H   UNL     1      -2.073   8.825  21.705  0.00  0.00    +0.000 HD
ENDBRANCH   5  19
BRANCH   1  27
ATOM     26  C   UNL     1       4.475   1.943  20.693  0.00  0.00    +0.000 C 
ATOM     27  C   UNL     1       4.320   2.638  19.334  0.00  0.00    +0.000 C 
ATOM     28  C   UNL     1       3.569   1.713  18.371  0.00  0.00    +0.000 C 
ENDBRANCH   1  27
TORSDOF 3
ENDMDL
MODEL 8
REMARK VINA RESULT:      -6.7      2.270      3.101
REMARK  Name = 
REMARK  5 active torsions:
REMARK  status: ('A' for Active; 'I' for Inactive)
REMARK    1  A    between atoms: C_1  and  C_2
REMARK    2  A    between atoms: C_2  and  C_3
REMARK    3  A    between atoms: C_2  and  C_4
REMARK    4  A    between atoms: N_8  and  C_9
REMARK    5  A    between atoms: C_16  and  C_17
REMARK                            x       y       z     vdW  Elec       q    Type
REMARK                         _______ _______ _______ _____ _____    ______ ____
ROOT
ATOM      1  C   UNL     1       2.123   6.286  19.972  0.00  0.00    +0.000 A 
ATOM      2  C   UNL     1       1.511   7.399  20.521  0.00  0.00    +0.000 A 
ATOM      3  N   UNL     1       1.364   8.584  19.903  0.00  0.00    +0.000 NA
ATOM      4  C   UNL     1       1.835   8.673  18.657  0.00  0.00    +0.000 A 
ATOM      5  N   UNL     1       1.776   9.877  17.973  0.00  0.00    +0.000 N 
ATOM      6  N   UNL     1       2.379   7.646  18.001  0.00  0.00    +0.000 NA
ATOM      7  C   UNL     1       2.560   6.477  18.662  0.00  0.00    +0.000 A 
ATOM      8  H   UNL     1       1.075   9.757  17.251  0.00  0.00    +0.000 HD
ENDROOT
BRANCH   7   9
ATOM      9  C   UNL     1       3.197   5.431  17.844  0.00  0.00    +0.000 A 
ATOM     10  C   UNL     1       2.591   4.264  17.409  0.00  0.00    +0.000 A 
ATOM     11  N   UNL     1       3.443   3.615  16.557  0.00  0.00    +0.000 N 
ATOM     12  C   UNL     1       4.650   4.259  16.518  0.00  0.00    +0.000 A 
ATOM     13  C   UNL     1       5.809   3.941  15.801  0.00  0.00    +0.000 A 
ATOM     14  C   UNL     1       6.924   4.760  15.984  0.00  0.00    +0.000 A 
ATOM     15  C   UNL     1       6.878   5.847  16.853  0.00  0.00    +0.000 A 
ATOM     16  C   UNL     1       5.701   6.164  17.540  0.00  0.00    +0.000 A 
ATOM     17  C   UNL     1       4.551   5.367  17.363  0.00  0.00    +0.000 A 
ATOM     18  H   UNL     1       3.222   2.773  16.044  0.00  0.00    +0.000 HD
ENDBRANCH   7   9
BRANCH   5  19
ATOM     19  C   UNL     1       1.647  11.114  18.750  0.00  0.00    +0.000 C 
ATOM     20  C   UNL     1       2.469  12.233  18.077  0.00  0.00    +0.000 C 
ATOM     21  C   UNL     1       2.094  13.625  18.575  0.00  0.00    +0.000 C 
ATOM     22  C   UNL     1       0.593  13.859  18.489  0.00  0.00    +0.000 C 
ATOM     23  N   UNL     1      -0.125  12.863  19.285  0.00  0.00    +0.000 NA
ATOM     24  C   UNL     1       0.144  11.510  18.778  0.00  0.00    +0.000 C 
ATOM     25  H   UNL     1      -1.126  13.047  19.219  0.00  0.00    +0.000 HD
ENDBRANCH   5  19
BRANCH   1  27
ATOM     26  C   UNL     1       1.127   4.080  20.568  0.00  0.00    +0.000 C 
ATOM     27  C   UNL     1       2.317   5.025  20.784  0.00  0.00    +0.000 C 
ATOM     28  C   UNL     1       3.623   4.272  20.504  0.00  0.00    +0.000 C 
ENDBRANCH   1  27
TORSDOF 3
ENDMDL
MODEL 9
REMARK VINA RESULT:      -6.7      4.095      7.879
REMARK  Name = 
REMARK  5 active torsions:
REMARK  status: ('A' for Active; 'I' for Inactive)
REMARK    1  A    between atoms: C_1  and  C_2
REMARK    2  A    between atoms: C_2  and  C_3
REMARK    3  A    between atoms: C_2  and  C_4
REMARK    4  A    between atoms: N_8  and  C_9
REMARK    5  A    between atoms: C_16  and  C_17
REMARK                            x       y       z     vdW  Elec       q    Type
REMARK                         _______ _______ _______ _____ _____    ______ ____
ROOT
ATOM      1  C   UNL     1       0.319  12.613  21.183  0.00  0.00    +0.000 A 
ATOM      2  C   UNL     1      -0.536  13.619  21.594  0.00  0.00    +0.000 A 
ATOM      3  N   UNL     1      -1.656  13.436  22.315  0.00  0.00    +0.000 NA
ATOM      4  C   UNL     1      -1.942  12.181  22.670  0.00  0.00    +0.000 A 
ATOM      5  N   UNL     1      -3.108  11.900  23.364  0.00  0.00    +0.000 N 
ATOM      6  N   UNL     1      -1.154  11.141  22.393  0.00  0.00    +0.000 NA
ATOM      7  C   UNL     1      -0.057  11.344  21.622  0.00  0.00    +0.000 A 
ATOM      8  H   UNL     1      -2.825  11.657  24.306  0.00  0.00    +0.000 HD
ENDROOT
BRANCH   7   9
ATOM      9  C   UNL     1       0.714  10.117  21.359  0.00  0.00    +0.000 A 
ATOM     10  C   UNL     1       1.226   9.262  22.321  0.00  0.00    +0.000 A 
ATOM     11  N   UNL     1       1.751   8.162  21.699  0.00  0.00    +0.000 N 
ATOM     12  C   UNL     1       1.714   8.326  20.341  0.00  0.00    +0.000 A 
ATOM     13  C   UNL     1       2.155   7.471  19.325  0.00  0.00    +0.000 A 
ATOM     14  C   UNL     1       2.031   7.917  18.009  0.00  0.00    +0.000 A 
ATOM     15  C   UNL     1       1.493   9.169  17.725  0.00  0.00    +0.000 A 
ATOM     16  C   UNL     1       1.033   9.999  18.754  0.00  0.00    +0.000 A 
ATOM     17  C   UNL     1       1.128   9.570  20.094  0.00  0.00    +0.000 A 
ATOM     18  H   UNL     1       2.127   7.352  22.172  0.00  0.00    +0.000 HD
ENDBRANCH   7   9
BRANCH   5  19
ATOM     19  C   UNL     1      -4.212  12.863  23.288  0.00  0.00    +0.000 C 
ATOM     20  C   UNL     1      -4.982  12.660  21.967  0.00  0.00    +0.000 C 
ATOM     21  C   UNL     1      -6.352  13.329  21.971  0.00  0.00    +0.000 C 
ATOM     22  C   UNL     1      -7.161  12.930  23.196  0.00  0.00    +0.000 C 
ATOM     23  N   UNL     1      -6.451  13.301  24.420  0.00  0.00    +0.000 NA
ATOM     24  C   UNL     1      -5.159  12.604  24.494  0.00  0.00    +0.000 C 
ATOM     25  H   UNL     1      -7.017  13.032  25.224  0.00  0.00    +0.000 HD
ENDBRANCH   5  19
BRANCH   1  27
ATOM     26  C   UNL     1       1.044  13.675  19.048  0.00  0.00    +0.000 C 
ATOM     27  C   UNL     1       1.507  12.913  20.297  0.00  0.00    +0.000 C 
ATOM     28  C   UNL     1       2.640  13.690  20.977  0.00  0.00    +0.000 C 
ENDBRANCH   1  27
TORSDOF 3
ENDMDL
