MODEL 1
REMARK VINA RESULT:      -7.5      0.000      0.000
REMARK  Name = 
REMARK  5 active torsions:
REMARK  status: ('A' for Active; 'I' for Inactive)
REMARK    1  A    between atoms: C_1  and  C_2
REMARK    2  A    between atoms: C_5  and  C_6
REMARK    3  A    between atoms: C_7  and  C_8
REMARK    4  A    between atoms: N_10  and  C_11
REMARK    5  A    between atoms: C_15  and  C_16
REMARK                            x       y       z     vdW  Elec       q    Type
REMARK                         _______ _______ _______ _____ _____    ______ ____
ROOT
ATOM      1  C   UNL     1       7.168   7.044  17.175  0.00  0.00    +0.000 C 
ATOM      2  O   UNL     1       7.066   6.445  16.109  0.00  0.00    +0.000 OA
ATOM      3  N   UNL     1       6.331   6.873  18.266  0.00  0.00    +0.000 N 
ATOM      4  H   UNL     1       6.205   7.655  18.894  0.00  0.00    +0.000 HD
ENDROOT
BRANCH   3   5
ATOM      5  C   UNL     1       5.295   5.958  18.172  0.00  0.00    +0.000 A 
ATOM      6  S   UNL     1       5.750   4.318  18.281  0.00  0.00    +0.000 S 
ATOM      7  C   UNL     1       4.120   3.808  18.252  0.00  0.00    +0.000 A 
ATOM      8  C   UNL     1       3.247   4.856  18.019  0.00  0.00    +0.000 A 
ATOM      9  C   UNL     1       3.938   6.117  17.982  0.00  0.00    +0.000 A 
ATOM     10  C   UNL     1       1.778   4.635  17.793  0.00  0.00    +0.000 C 
ATOM     11  C   UNL     1       1.312   3.260  18.289  0.00  0.00    +0.000 C 
ATOM     12  C   UNL     1       2.288   2.143  17.892  0.00  0.00    +0.000 C 
ATOM     13  C   UNL     1       3.704   2.379  18.448  0.00  0.00    +0.000 C 
BRANCH   9  14
ATOM     14  C   UNL     1       3.307   7.360  17.664  0.00  0.00    +0.000 C 
ATOM     15  N   UNL     1       2.751   8.367  17.493  0.00  0.00    +0.000 NA
ENDBRANCH   9  14
ENDBRANCH   3   5
BRANCH   1  17
ATOM     16  C   UNL     1       8.141   8.884  18.455  0.00  0.00    +0.000 C 
ATOM     17  C   UNL     1       8.192   8.116  17.364  0.00  0.00    +0.000 C 
BRANCH  16  22
ATOM     18  C   UNL     1      11.114  12.598  17.353  0.00  0.00    +0.000 C 
ATOM     19  C   UNL     1      10.412  11.671  18.261  0.00  0.00    +0.000 A 
ATOM     20  C   UNL     1      10.374  11.549  19.629  0.00  0.00    +0.000 A 
ATOM     21  C   UNL     1       9.511  10.463  19.894  0.00  0.00    +0.000 A 
ATOM     22  C   UNL     1       9.048   9.963  18.682  0.00  0.00    +0.000 A 
ATOM     23  O   UNL     1       9.624  10.722  17.681  0.00  0.00    +0.000 OA
ENDBRANCH  16  22
ENDBRANCH   1  17
TORSDOF 4
ENDMDL
MODEL 2
REMARK VINA RESULT:      -7.3      4.052      9.492
REMARK  Name = 
REMARK  5 active torsions:
REMARK  status: ('A' for Active; 'I' for Inactive)
REMARK    1  A    between atoms: C_1  and  C_2
REMARK    2  A    between atoms: C_5  and  C_6
REMARK    3  A    between atoms: C_7  and  C_8
REMARK    4  A    between atoms: N_10  and  C_11
REMARK    5  A    between atoms: C_15  and  C_16
REMARK                            x       y       z     vdW  Elec       q    Type
REMARK                         _______ _______ _______ _____ _____    ______ ____
ROOT
ATOM      1  C   UNL     1       8.860   9.953  18.805  0.00  0.00    +0.000 C 
ATOM      2  O   UNL     1       8.448  10.813  18.034  0.00  0.00    +0.000 OA
ATOM      3  N   UNL     1       9.652  10.196  19.916  0.00  0.00    +0.000 N 
ATOM      4  H   UNL     1      10.276   9.462  20.223  0.00  0.00    +0.000 HD
ENDROOT
BRANCH   3   5
ATOM      5  C   UNL     1      10.018  11.503  20.199  0.00  0.00    +0.000 A 
ATOM      6  S   UNL     1      11.348  12.101  19.316  0.00  0.00    +0.000 S 
ATOM      7  C   UNL     1      11.162  13.661  19.989  0.00  0.00    +0.000 A 
ATOM      8  C   UNL     1      10.193  13.693  20.976  0.00  0.00    +0.000 A 
ATOM      9  C   UNL     1       9.517  12.428  21.091  0.00  0.00    +0.000 A 
ATOM     10  C   UNL     1       9.957  14.911  21.822  0.00  0.00    +0.000 C 
ATOM     11  C   UNL     1      10.544  16.181  21.191  0.00  0.00    +0.000 C 
ATOM     12  C   UNL     1      11.952  15.947  20.626  0.00  0.00    +0.000 C 
ATOM     13  C   UNL     1      11.973  14.845  19.551  0.00  0.00    +0.000 C 
BRANCH   9  14
ATOM     14  C   UNL     1       8.536  12.139  22.091  0.00  0.00    +0.000 C 
ATOM     15  N   UNL     1       7.739  11.813  22.871  0.00  0.00    +0.000 NA
ENDBRANCH   9  14
ENDBRANCH   3   5
BRANCH   1  17
ATOM     16  C   UNL     1       7.782   8.145  17.564  0.00  0.00    +0.000 C 
ATOM     17  C   UNL     1       8.603   8.503  18.555  0.00  0.00    +0.000 C 
BRANCH  16  22
ATOM     18  C   UNL     1       6.243   4.292  14.988  0.00  0.00    +0.000 C 
ATOM     19  C   UNL     1       6.761   4.979  16.187  0.00  0.00    +0.000 A 
ATOM     20  C   UNL     1       7.114   4.538  17.439  0.00  0.00    +0.000 A 
ATOM     21  C   UNL     1       7.543   5.686  18.143  0.00  0.00    +0.000 A 
ATOM     22  C   UNL     1       7.443   6.785  17.296  0.00  0.00    +0.000 A 
ATOM     23  O   UNL     1       6.949   6.325  16.090  0.00  0.00    +0.000 OA
ENDBRANCH  16  22
ENDBRANCH   1  17
TORSDOF 4
ENDMDL
MODEL 3
REMARK VINA RESULT:      -7.3      1.699      2.611
REMARK  Name = 
REMARK  5 active torsions:
REMARK  status: ('A' for Active; 'I' for Inactive)
REMARK    1  A    between atoms: C_1  and  C_2
REMARK    2  A    between atoms: C_5  and  C_6
REMARK    3  A    between atoms: C_7  and  C_8
REMARK    4  A    between atoms: N_10  and  C_11
REMARK    5  A    between atoms: C_15  and  C_16
REMARK                            x       y       z     vdW  Elec       q    Type
REMARK                         _______ _______ _______ _____ _____    ______ ____
ROOT
ATOM      1  C   UNL     1       7.441   7.810  17.838  0.00  0.00    +0.000 C 
ATOM      2  O   UNL     1       7.782   6.989  18.684  0.00  0.00    +0.000 OA
ATOM      3  N   UNL     1       6.289   7.729  17.072  0.00  0.00    +0.000 N 
ATOM      4  H   UNL     1       6.297   8.162  16.158  0.00  0.00    +0.000 HD
ENDROOT
BRANCH   3   5
ATOM      5  C   UNL     1       5.440   6.651  17.259  0.00  0.00    +0.000 A 
ATOM      6  S   UNL     1       3.893   7.030  17.867  0.00  0.00    +0.000 S 
ATOM      7  C   UNL     1       3.376   5.409  17.714  0.00  0.00    +0.000 A 
ATOM      8  C   UNL     1       4.406   4.563  17.340  0.00  0.00    +0.000 A 
ATOM      9  C   UNL     1       5.613   5.296  17.066  0.00  0.00    +0.000 A 
ATOM     10  C   UNL     1       4.236   3.072  17.293  0.00  0.00    +0.000 C 
ATOM     11  C   UNL     1       2.760   2.655  17.247  0.00  0.00    +0.000 C 
ATOM     12  C   UNL     1       1.903   3.456  18.237  0.00  0.00    +0.000 C 
ATOM     13  C   UNL     1       1.963   4.971  17.969  0.00  0.00    +0.000 C 
BRANCH   9  14
ATOM     14  C   UNL     1       6.864   4.677  16.751  0.00  0.00    +0.000 C 
ATOM     15  N   UNL     1       7.848   4.166  16.405  0.00  0.00    +0.000 NA
ENDBRANCH   9  14
ENDBRANCH   3   5
BRANCH   1  17
ATOM     16  C   UNL     1       8.623   9.866  18.427  0.00  0.00    +0.000 C 
ATOM     17  C   UNL     1       8.317   8.968  17.487  0.00  0.00    +0.000 C 
BRANCH  16  22
ATOM     18  C   UNL     1       9.658  14.618  17.983  0.00  0.00    +0.000 C 
ATOM     19  C   UNL     1       9.959  13.174  17.941  0.00  0.00    +0.000 A 
ATOM     20  C   UNL     1      11.098  12.463  17.654  0.00  0.00    +0.000 A 
ATOM     21  C   UNL     1      10.746  11.101  17.789  0.00  0.00    +0.000 A 
ATOM     22  C   UNL     1       9.407  11.028  18.159  0.00  0.00    +0.000 A 
ATOM     23  O   UNL     1       8.936  12.325  18.241  0.00  0.00    +0.000 OA
ENDBRANCH  16  22
ENDBRANCH   1  17
TORSDOF 4
ENDMDL
MODEL 4
REMARK VINA RESULT:      -7.2      1.208      1.371
REMARK  Name = 
REMARK  5 active torsions:
REMARK  status: ('A' for Active; 'I' for Inactive)
REMARK    1  A    between atoms: C_1  and  C_2
REMARK    2  A    between atoms: C_5  and  C_6
REMARK    3  A    between atoms: C_7  and  C_8
REMARK    4  A    between atoms: N_10  and  C_11
REMARK    5  A    between atoms: C_15  and  C_16
REMARK                            x       y       z     vdW  Elec       q    Type
REMARK                         _______ _______ _______ _____ _____    ______ ____
ROOT
ATOM      1  C   UNL     1       7.330   7.628  17.791  0.00  0.00    +0.000 C 
ATOM      2  O   UNL     1       7.642   6.737  18.575  0.00  0.00    +0.000 OA
ATOM      3  N   UNL     1       6.155   7.666  17.059  0.00  0.00    +0.000 N 
ATOM      4  H   UNL     1       6.165   8.153  16.172  0.00  0.00    +0.000 HD
ENDROOT
BRANCH   3   5
ATOM      5  C   UNL     1       5.245   6.631  17.207  0.00  0.00    +0.000 A 
ATOM      6  S   UNL     1       5.834   5.075  16.836  0.00  0.00    +0.000 S 
ATOM      7  C   UNL     1       4.376   4.343  17.344  0.00  0.00    +0.000 A 
ATOM      8  C   UNL     1       3.403   5.275  17.657  0.00  0.00    +0.000 A 
ATOM      9  C   UNL     1       3.919   6.617  17.584  0.00  0.00    +0.000 A 
ATOM     10  C   UNL     1       1.991   4.877  17.976  0.00  0.00    +0.000 C 
ATOM     11  C   UNL     1       1.875   3.395  18.358  0.00  0.00    +0.000 C 
ATOM     12  C   UNL     1       2.693   2.494  17.422  0.00  0.00    +0.000 C 
ATOM     13  C   UNL     1       4.190   2.856  17.424  0.00  0.00    +0.000 C 
BRANCH   9  14
ATOM     14  C   UNL     1       3.116   7.787  17.763  0.00  0.00    +0.000 C 
ATOM     15  N   UNL     1       2.410   8.687  17.971  0.00  0.00    +0.000 NA
ENDBRANCH   9  14
ENDBRANCH   3   5
BRANCH   1  17
ATOM     16  C   UNL     1       8.459   9.711  18.392  0.00  0.00    +0.000 C 
ATOM     17  C   UNL     1       8.268   8.750  17.484  0.00  0.00    +0.000 C 
BRANCH  16  22
ATOM     18  C   UNL     1       9.654  14.417  17.868  0.00  0.00    +0.000 C 
ATOM     19  C   UNL     1       9.919  12.966  17.907  0.00  0.00    +0.000 A 
ATOM     20  C   UNL     1      11.061  12.218  17.750  0.00  0.00    +0.000 A 
ATOM     21  C   UNL     1      10.662  10.871  17.902  0.00  0.00    +0.000 A 
ATOM     22  C   UNL     1       9.294  10.843  18.152  0.00  0.00    +0.000 A 
ATOM     23  O   UNL     1       8.851  12.153  18.144  0.00  0.00    +0.000 OA
ENDBRANCH  16  22
ENDBRANCH   1  17
TORSDOF 4
ENDMDL
MODEL 5
REMARK VINA RESULT:      -7.2      1.666      2.216
REMARK  Name = 
REMARK  5 active torsions:
REMARK  status: ('A' for Active; 'I' for Inactive)
REMARK    1  A    between atoms: C_1  and  C_2
REMARK    2  A    between atoms: C_5  and  C_6
REMARK    3  A    between atoms: C_7  and  C_8
REMARK    4  A    between atoms: N_10  and  C_11
REMARK    5  A    between atoms: C_15  and  C_16
REMARK                            x       y       z     vdW  Elec       q    Type
REMARK                         _______ _______ _______ _____ _____    ______ ____
ROOT
ATOM      1  C   UNL     1       7.279   7.173  17.852  0.00  0.00    +0.000 C 
ATOM      2  O   UNL     1       7.898   6.256  18.381  0.00  0.00    +0.000 OA
ATOM      3  N   UNL     1       5.946   7.121  17.480  0.00  0.00    +0.000 N 
ATOM      4  H   UNL     1       5.646   7.700  16.706  0.00  0.00    +0.000 HD
ENDROOT
BRANCH   3   5
ATOM      5  C   UNL     1       5.235   5.954  17.714  0.00  0.00    +0.000 A 
ATOM      6  S   UNL     1       4.466   5.855  19.232  0.00  0.00    +0.000 S 
ATOM      7  C   UNL     1       3.721   4.374  18.819  0.00  0.00    +0.000 A 
ATOM      8  C   UNL     1       4.160   3.889  17.600  0.00  0.00    +0.000 A 
ATOM      9  C   UNL     1       5.042   4.823  16.950  0.00  0.00    +0.000 A 
ATOM     10  C   UNL     1       3.769   2.530  17.095  0.00  0.00    +0.000 C 
ATOM     11  C   UNL     1       2.532   1.975  17.813  0.00  0.00    +0.000 C 
ATOM     12  C   UNL     1       2.597   2.199  19.330  0.00  0.00    +0.000 C 
ATOM     13  C   UNL     1       2.714   3.690  19.696  0.00  0.00    +0.000 C 
BRANCH   9  14
ATOM     14  C   UNL     1       5.724   4.549  15.723  0.00  0.00    +0.000 C 
ATOM     15  N   UNL     1       6.321   4.413  14.735  0.00  0.00    +0.000 NA
ENDBRANCH   9  14
ENDBRANCH   3   5
BRANCH   1  17
ATOM     16  C   UNL     1       8.420   9.256  18.431  0.00  0.00    +0.000 C 
ATOM     17  C   UNL     1       7.961   8.448  17.472  0.00  0.00    +0.000 C 
BRANCH  16  22
ATOM     18  C   UNL     1      12.023  12.499  17.840  0.00  0.00    +0.000 C 
ATOM     19  C   UNL     1      10.618  12.049  17.856  0.00  0.00    +0.000 A 
ATOM     20  C   UNL     1       9.429  12.681  17.583  0.00  0.00    +0.000 A 
ATOM     21  C   UNL     1       8.424  11.707  17.774  0.00  0.00    +0.000 A 
ATOM     22  C   UNL     1       9.032  10.515  18.151  0.00  0.00    +0.000 A 
ATOM     23  O   UNL     1      10.393  10.750  18.202  0.00  0.00    +0.000 OA
ENDBRANCH  16  22
ENDBRANCH   1  17
TORSDOF 4
ENDMDL
MODEL 6
REMARK VINA RESULT:      -7.1      1.128      1.324
REMARK  Name = 
REMARK  5 active torsions:
REMARK  status: ('A' for Active; 'I' for Inactive)
REMARK    1  A    between atoms: C_1  and  C_2
REMARK    2  A    between atoms: C_5  and  C_6
REMARK    3  A    between atoms: C_7  and  C_8
REMARK    4  A    between atoms: N_10  and  C_11
REMARK    5  A    between atoms: C_15  and  C_16
REMARK                            x       y       z     vdW  Elec       q    Type
REMARK                         _______ _______ _______ _____ _____    ______ ____
ROOT
ATOM      1  C   UNL     1       7.204   7.371  18.002  0.00  0.00    +0.000 C 
ATOM      2  O   UNL     1       7.506   6.436  18.738  0.00  0.00    +0.000 OA
ATOM      3  N   UNL     1       6.029   7.460  17.274  0.00  0.00    +0.000 N 
ATOM      4  H   UNL     1       6.044   7.994  16.414  0.00  0.00    +0.000 HD
ENDROOT
BRANCH   3   5
ATOM      5  C   UNL     1       5.108   6.429  17.368  0.00  0.00    +0.000 A 
ATOM      6  S   UNL     1       5.701   4.877  16.989  0.00  0.00    +0.000 S 
ATOM      7  C   UNL     1       4.220   4.145  17.428  0.00  0.00    +0.000 A 
ATOM      8  C   UNL     1       3.242   5.078  17.723  0.00  0.00    +0.000 A 
ATOM      9  C   UNL     1       3.768   6.417  17.696  0.00  0.00    +0.000 A 
ATOM     10  C   UNL     1       1.817   4.683  17.982  0.00  0.00    +0.000 C 
ATOM     11  C   UNL     1       1.678   3.195  18.330  0.00  0.00    +0.000 C 
ATOM     12  C   UNL     1       2.524   2.306  17.407  0.00  0.00    +0.000 C 
ATOM     13  C   UNL     1       4.022   2.658  17.472  0.00  0.00    +0.000 C 
BRANCH   9  14
ATOM     14  C   UNL     1       2.966   7.589  17.868  0.00  0.00    +0.000 C 
ATOM     15  N   UNL     1       2.357   8.552  18.095  0.00  0.00    +0.000 NA
ENDBRANCH   9  14
ENDBRANCH   3   5
BRANCH   1  17
ATOM     16  C   UNL     1       8.602   9.216  18.786  0.00  0.00    +0.000 C 
ATOM     17  C   UNL     1       8.154   8.497  17.754  0.00  0.00    +0.000 C 
BRANCH  16  22
ATOM     18  C   UNL     1      12.315  12.237  19.753  0.00  0.00    +0.000 C 
ATOM     19  C   UNL     1      11.141  11.760  18.998  0.00  0.00    +0.000 A 
ATOM     20  C   UNL     1      10.499  12.222  17.874  0.00  0.00    +0.000 A 
ATOM     21  C   UNL     1       9.435  11.322  17.642  0.00  0.00    +0.000 A 
ATOM     22  C   UNL     1       9.466  10.340  18.627  0.00  0.00    +0.000 A 
ATOM     23  O   UNL     1      10.528  10.634  19.462  0.00  0.00    +0.000 OA
ENDBRANCH  16  22
ENDBRANCH   1  17
TORSDOF 4
ENDMDL
MODEL 7
REMARK VINA RESULT:      -7.1      4.136      9.779
REMARK  Name = 
REMARK  5 active torsions:
REMARK  status: ('A' for Active; 'I' for Inactive)
REMARK    1  A    between atoms: C_1  and  C_2
REMARK    2  A    between atoms: C_5  and  C_6
REMARK    3  A    between atoms: C_7  and  C_8
REMARK    4  A    between atoms: N_10  and  C_11
REMARK    5  A    between atoms: C_15  and  C_16
REMARK                            x       y       z     vdW  Elec       q    Type
REMARK                         _______ _______ _______ _____ _____    ______ ____
ROOT
ATOM      1  C   UNL     1       8.971  10.387  18.848  0.00  0.00    +0.000 C 
ATOM      2  O   UNL     1       8.566  11.223  18.047  0.00  0.00    +0.000 OA
ATOM      3  N   UNL     1       9.665  10.675  20.012  0.00  0.00    +0.000 N 
ATOM      4  H   UNL     1      10.307   9.977  20.366  0.00  0.00    +0.000 HD
ENDROOT
BRANCH   3   5
ATOM      5  C   UNL     1       9.932  12.000  20.318  0.00  0.00    +0.000 A 
ATOM      6  S   UNL     1       9.027  12.654  21.606  0.00  0.00    +0.000 S 
ATOM      7  C   UNL     1       9.897  14.123  21.544  0.00  0.00    +0.000 A 
ATOM      8  C   UNL     1      10.767  14.170  20.469  0.00  0.00    +0.000 A 
ATOM      9  C   UNL     1      10.792  12.920  19.757  0.00  0.00    +0.000 A 
ATOM     10  C   UNL     1      11.526  15.417  20.112  0.00  0.00    +0.000 C 
ATOM     11  C   UNL     1      11.587  16.415  21.276  0.00  0.00    +0.000 C 
ATOM     12  C   UNL     1      10.230  16.563  21.980  0.00  0.00    +0.000 C 
ATOM     13  C   UNL     1       9.717  15.226  22.545  0.00  0.00    +0.000 C 
BRANCH   9  14
ATOM     14  C   UNL     1      11.527  12.709  18.548  0.00  0.00    +0.000 C 
ATOM     15  N   UNL     1      12.136  12.633  17.561  0.00  0.00    +0.000 NA
ENDBRANCH   9  14
ENDBRANCH   3   5
BRANCH   1  17
ATOM     16  C   UNL     1       7.838   8.504  17.780  0.00  0.00    +0.000 C 
ATOM     17  C   UNL     1       8.818   8.925  18.584  0.00  0.00    +0.000 C 
BRANCH  16  22
ATOM     18  C   UNL     1       6.870   4.496  15.163  0.00  0.00    +0.000 C 
ATOM     19  C   UNL     1       7.162   5.249  16.398  0.00  0.00    +0.000 A 
ATOM     20  C   UNL     1       7.320   4.871  17.709  0.00  0.00    +0.000 A 
ATOM     21  C   UNL     1       7.589   6.061  18.422  0.00  0.00    +0.000 A 
ATOM     22  C   UNL     1       7.593   7.122  17.522  0.00  0.00    +0.000 A 
ATOM     23  O   UNL     1       7.318   6.597  16.273  0.00  0.00    +0.000 OA
ENDBRANCH  16  22
ENDBRANCH   1  17
TORSDOF 4
ENDMDL
MODEL 8
REMARK VINA RESULT:      -7.0      1.670      2.600
REMARK  Name = 
REMARK  5 active torsions:
REMARK  status: ('A' for Active; 'I' for Inactive)
REMARK    1  A    between atoms: C_1  and  C_2
REMARK    2  A    between atoms: C_5  and  C_6
REMARK    3  A    between atoms: C_7  and  C_8
REMARK    4  A    between atoms: N_10  and  C_11
REMARK    5  A    between atoms: C_15  and  C_16
REMARK                            x       y       z     vdW  Elec       q    Type
REMARK                         _______ _______ _______ _____ _____    ______ ____
ROOT
ATOM      1  C   UNL     1       7.523   7.748  17.913  0.00  0.00    +0.000 C 
ATOM      2  O   UNL     1       7.861   6.879  18.710  0.00  0.00    +0.000 OA
ATOM      3  N   UNL     1       6.358   7.728  17.164  0.00  0.00    +0.000 N 
ATOM      4  H   UNL     1       6.359   8.207  16.273  0.00  0.00    +0.000 HD
ENDROOT
BRANCH   3   5
ATOM      5  C   UNL     1       5.490   6.658  17.312  0.00  0.00    +0.000 A 
ATOM      6  S   UNL     1       3.942   7.044  17.912  0.00  0.00    +0.000 S 
ATOM      7  C   UNL     1       3.402   5.436  17.708  0.00  0.00    +0.000 A 
ATOM      8  C   UNL     1       4.423   4.586  17.323  0.00  0.00    +0.000 A 
ATOM      9  C   UNL     1       5.645   5.307  17.082  0.00  0.00    +0.000 A 
ATOM     10  C   UNL     1       4.231   3.099  17.233  0.00  0.00    +0.000 C 
ATOM     11  C   UNL     1       2.749   2.706  17.158  0.00  0.00    +0.000 C 
ATOM     12  C   UNL     1       1.893   3.493  18.160  0.00  0.00    +0.000 C 
ATOM     13  C   UNL     1       1.980   5.014  17.935  0.00  0.00    +0.000 C 
BRANCH   9  14
ATOM     14  C   UNL     1       6.890   4.678  16.765  0.00  0.00    +0.000 C 
ATOM     15  N   UNL     1       7.863   4.145  16.420  0.00  0.00    +0.000 NA
ENDBRANCH   9  14
ENDBRANCH   3   5
BRANCH   1  17
ATOM     16  C   UNL     1       8.319  10.019  18.336  0.00  0.00    +0.000 C 
ATOM     17  C   UNL     1       8.417   8.905  17.605  0.00  0.00    +0.000 C 
BRANCH  16  22
ATOM     18  C   UNL     1      12.326  12.775  17.886  0.00  0.00    +0.000 C 
ATOM     19  C   UNL     1      10.876  12.505  17.835  0.00  0.00    +0.000 A 
ATOM     20  C   UNL     1       9.791  13.274  17.493  0.00  0.00    +0.000 A 
ATOM     21  C   UNL     1       8.663  12.437  17.646  0.00  0.00    +0.000 A 
ATOM     22  C   UNL     1       9.097  11.186  18.070  0.00  0.00    +0.000 A 
ATOM     23  O   UNL     1      10.473  11.251  18.188  0.00  0.00    +0.000 OA
ENDBRANCH  16  22
ENDBRANCH   1  17
TORSDOF 4
ENDMDL
MODEL 9
REMARK VINA RESULT:      -7.0      4.215     10.013
REMARK  Name = 
REMARK  5 active torsions:
REMARK  status: ('A' for Active; 'I' for Inactive)
REMARK    1  A    between atoms: C_1  and  C_2
REMARK    2  A    between atoms: C_5  and  C_6
REMARK    3  A    between atoms: C_7  and  C_8
REMARK    4  A    between atoms: N_10  and  C_11
REMARK    5  A    between atoms: C_15  and  C_16
REMARK                            x       y       z     vdW  Elec       q    Type
REMARK                         _______ _______ _______ _____ _____    ______ ____
ROOT
ATOM      1  C   UNL     1       8.912  10.913  18.251  0.00  0.00    +0.000 C 
ATOM      2  O   UNL     1       8.083  11.597  17.658  0.00  0.00    +0.000 OA
ATOM      3  N   UNL     1      10.085  11.395  18.810  0.00  0.00    +0.000 N 
ATOM      4  H   UNL     1      10.871  10.762  18.881  0.00  0.00    +0.000 HD
ENDROOT
BRANCH   3   5
ATOM      5  C   UNL     1      10.364  12.748  18.707  0.00  0.00    +0.000 A 
ATOM      6  S   UNL     1      11.095  13.240  17.248  0.00  0.00    +0.000 S 
ATOM      7  C   UNL     1      11.016  14.886  17.699  0.00  0.00    +0.000 A 
ATOM      8  C   UNL     1      10.571  15.051  18.999  0.00  0.00    +0.000 A 
ATOM      9  C   UNL     1      10.181  13.796  19.585  0.00  0.00    +0.000 A 
ATOM     10  C   UNL     1      10.566  16.393  19.675  0.00  0.00    +0.000 C 
ATOM     11  C   UNL     1      10.654  17.551  18.672  0.00  0.00    +0.000 C 
ATOM     12  C   UNL     1      11.699  17.289  17.578  0.00  0.00    +0.000 C 
ATOM     13  C   UNL     1      11.399  16.007  16.779  0.00  0.00    +0.000 C 
BRANCH   9  14
ATOM     14  C   UNL     1       9.772  13.649  20.947  0.00  0.00    +0.000 C 
ATOM     15  N   UNL     1       9.500  13.454  22.060  0.00  0.00    +0.000 NA
ENDBRANCH   9  14
ENDBRANCH   3   5
BRANCH   1  17
ATOM     16  C   UNL     1       7.908   8.802  17.538  0.00  0.00    +0.000 C 
ATOM     17  C   UNL     1       8.763   9.430  18.350  0.00  0.00    +0.000 C 
BRANCH  16  22
ATOM     18  C   UNL     1       6.566   4.364  16.005  0.00  0.00    +0.000 C 
ATOM     19  C   UNL     1       7.083   5.342  16.981  0.00  0.00    +0.000 A 
ATOM     20  C   UNL     1       7.530   5.227  18.275  0.00  0.00    +0.000 A 
ATOM     21  C   UNL     1       7.897   6.532  18.672  0.00  0.00    +0.000 A 
ATOM     22  C   UNL     1       7.668   7.397  17.607  0.00  0.00    +0.000 A 
ATOM     23  O   UNL     1       7.157   6.640  16.570  0.00  0.00    +0.000 OA
ENDBRANCH  16  22
ENDBRANCH   1  17
TORSDOF 4
ENDMDL
