MODEL 1
REMARK VINA RESULT:      -8.1      0.000      0.000
REMARK  Name = 
REMARK  8 active torsions:
REMARK  status: ('A' for Active; 'I' for Inactive)
REMARK    1  A    between atoms: C_1  and  C_2
REMARK    2  A    between atoms: C_2  and  C_3
REMARK    3  A    between atoms: C_2  and  C_4
REMARK    4  A    between atoms: C_2  and  O_5
REMARK    5  A    between atoms: O_5  and  C_6
REMARK    6  A    between atoms: N_8  and  C_9
REMARK    7  A    between atoms: C_9  and  C_10
REMARK    8  A    between atoms: N_15  and  C_16
REMARK                            x       y       z     vdW  Elec       q    Type
REMARK                         _______ _______ _______ _____ _____    ______ ____
ROOT
ATOM      1  C   UNL     1       1.275   8.890  21.144  0.00  0.00    +0.000 C 
ATOM      2  O   UNL     1       1.449   8.664  22.344  0.00  0.00    +0.000 OA
ATOM      3  N   UNL     1       0.567   9.989  20.686  0.00  0.00    +0.000 N 
ATOM      4  C   UNL     1       0.087  10.949  21.671  0.00  0.00    +0.000 C 
ATOM      5  C   UNL     1      -0.197  12.346  21.089  0.00  0.00    +0.000 C 
ATOM      6  N   UNL     1      -0.866  12.414  19.755  0.00  0.00    +0.000 NA
ATOM      7  C   UNL     1      -0.061  11.534  18.883  0.00  0.00    +0.000 C 
ATOM      8  C   UNL     1      -0.044  10.076  19.352  0.00  0.00    +0.000 C 
ENDROOT
BRANCH   6   9
ATOM      9  C   UNL     1      -2.382  12.192  19.808  0.00  0.00    +0.000 C 
ATOM     10  C   UNL     1      -3.055  13.412  20.527  0.00  0.00    +0.000 A 
ATOM     11  C   UNL     1      -2.336  14.585  20.852  0.00  0.00    +0.000 A 
ATOM     12  C   UNL     1      -2.912  15.657  21.540  0.00  0.00    +0.000 A 
ATOM     13  C   UNL     1      -4.262  15.628  21.839  0.00  0.00    +0.000 A 
ATOM     14 CL   UNL     1      -5.010  16.991  22.572  0.00  0.00    +0.000 Cl
ATOM     15  C   UNL     1      -5.013  14.503  21.523  0.00  0.00    +0.000 A 
ATOM     16  C   UNL     1      -4.410  13.379  20.918  0.00  0.00    +0.000 A 
ATOM     17  C   UNL     1      -5.273  12.192  20.609  0.00  0.00    +0.000 C 
ATOM     18  C   UNL     1      -5.605  12.198  19.133  0.00  0.00    +0.000 C 
ATOM     19  C   UNL     1      -4.491  11.838  18.185  0.00  0.00    +0.000 A 
ATOM     20  C   UNL     1      -4.954  11.487  16.889  0.00  0.00    +0.000 A 
ATOM     21  C   UNL     1      -4.094  11.040  15.904  0.00  0.00    +0.000 A 
ATOM     22  C   UNL     1      -2.777  10.936  16.253  0.00  0.00    +0.000 A 
ATOM     23  N   UNL     1      -2.306  11.282  17.470  0.00  0.00    +0.000 NA
ATOM     24  C   UNL     1      -3.106  11.807  18.440  0.00  0.00    +0.000 A 
ENDBRANCH   6   9
BRANCH   1  25
ATOM     25  C   UNL     1       1.837   7.948  20.096  0.00  0.00    +0.000 C 
BRANCH  25  28
ATOM     26  C   UNL     1       2.632   5.725  19.725  0.00  0.00    +0.000 C 
ATOM     27  O   UNL     1       2.646   5.932  18.518  0.00  0.00    +0.000 OA
ATOM     28  N   UNL     1       2.135   6.629  20.615  0.00  0.00    +0.000 N 
ATOM     29  H   UNL     1       2.307   6.477  21.594  0.00  0.00    +0.000 HD
BRANCH  26  30
ATOM     30  O   UNL     1       3.106   4.621  20.357  0.00  0.00    +0.000 OA
BRANCH  30  32
ATOM     31  C   UNL     1       2.763   2.475  19.188  0.00  0.00    +0.000 C 
ATOM     32  C   UNL     1       2.265   3.425  20.289  0.00  0.00    +0.000 C 
ATOM     33  C   UNL     1       0.780   3.787  20.122  0.00  0.00    +0.000 C 
ATOM     34  C   UNL     1       2.430   2.709  21.637  0.00  0.00    +0.000 C 
ENDBRANCH  30  32
ENDBRANCH  26  30
ENDBRANCH  25  28
ENDBRANCH   1  25
TORSDOF 5
ENDMDL
MODEL 2
REMARK VINA RESULT:      -7.6      0.839      1.097
REMARK  Name = 
REMARK  8 active torsions:
REMARK  status: ('A' for Active; 'I' for Inactive)
REMARK    1  A    between atoms: C_1  and  C_2
REMARK    2  A    between atoms: C_2  and  C_3
REMARK    3  A    between atoms: C_2  and  C_4
REMARK    4  A    between atoms: C_2  and  O_5
REMARK    5  A    between atoms: O_5  and  C_6
REMARK    6  A    between atoms: N_8  and  C_9
REMARK    7  A    between atoms: C_9  and  C_10
REMARK    8  A    between atoms: N_15  and  C_16
REMARK                            x       y       z     vdW  Elec       q    Type
REMARK                         _______ _______ _______ _____ _____    ______ ____
ROOT
ATOM      1  C   UNL     1       1.349   8.789  20.943  0.00  0.00    +0.000 C 
ATOM      2  O   UNL     1       1.507   8.485  22.127  0.00  0.00    +0.000 OA
ATOM      3  N   UNL     1       0.635   9.910  20.549  0.00  0.00    +0.000 N 
ATOM      4  C   UNL     1       0.130  10.796  21.589  0.00  0.00    +0.000 C 
ATOM      5  C   UNL     1      -0.161  12.226  21.098  0.00  0.00    +0.000 C 
ATOM      6  N   UNL     1      -0.811  12.377  19.762  0.00  0.00    +0.000 NA
ATOM      7  C   UNL     1       0.016  11.566  18.845  0.00  0.00    +0.000 C 
ATOM      8  C   UNL     1       0.043  10.081  19.215  0.00  0.00    +0.000 C 
ENDROOT
BRANCH   6   9
ATOM      9  C   UNL     1      -2.325  12.137  19.776  0.00  0.00    +0.000 C 
ATOM     10  C   UNL     1      -3.030  13.341  20.492  0.00  0.00    +0.000 A 
ATOM     11  C   UNL     1      -2.332  14.519  20.845  0.00  0.00    +0.000 A 
ATOM     12  C   UNL     1      -2.938  15.577  21.530  0.00  0.00    +0.000 A 
ATOM     13  C   UNL     1      -4.294  15.529  21.797  0.00  0.00    +0.000 A 
ATOM     14 CL   UNL     1      -5.076  16.875  22.526  0.00  0.00    +0.000 Cl
ATOM     15  C   UNL     1      -5.024  14.398  21.453  0.00  0.00    +0.000 A 
ATOM     16  C   UNL     1      -4.393  13.288  20.850  0.00  0.00    +0.000 A 
ATOM     17  C   UNL     1      -5.235  12.094  20.508  0.00  0.00    +0.000 C 
ATOM     18  C   UNL     1      -5.532  12.111  19.026  0.00  0.00    +0.000 C 
ATOM     19  C   UNL     1      -4.391  11.775  18.100  0.00  0.00    +0.000 A 
ATOM     20  C   UNL     1      -4.819  11.432  16.790  0.00  0.00    +0.000 A 
ATOM     21  C   UNL     1      -3.931  11.006  15.822  0.00  0.00    +0.000 A 
ATOM     22  C   UNL     1      -2.621  10.913  16.201  0.00  0.00    +0.000 A 
ATOM     23  N   UNL     1      -2.184  11.252  17.431  0.00  0.00    +0.000 NA
ATOM     24  C   UNL     1      -3.012  11.758  18.388  0.00  0.00    +0.000 A 
ENDBRANCH   6   9
BRANCH   1  25
ATOM     25  C   UNL     1       1.936   7.926  19.843  0.00  0.00    +0.000 C 
BRANCH  25  28
ATOM     26  C   UNL     1       2.379   5.653  19.253  0.00  0.00    +0.000 C 
ATOM     27  O   UNL     1       2.205   5.926  18.072  0.00  0.00    +0.000 OA
ATOM     28  N   UNL     1       2.158   6.554  20.251  0.00  0.00    +0.000 N 
ATOM     29  H   UNL     1       2.480   6.328  21.177  0.00  0.00    +0.000 HD
BRANCH  26  30
ATOM     30  O   UNL     1       2.818   4.468  19.748  0.00  0.00    +0.000 OA
BRANCH  30  32
ATOM     31  C   UNL     1       5.189   4.880  19.199  0.00  0.00    +0.000 C 
ATOM     32  C   UNL     1       4.007   3.900  19.110  0.00  0.00    +0.000 C 
ATOM     33  C   UNL     1       3.718   3.460  17.666  0.00  0.00    +0.000 C 
ATOM     34  C   UNL     1       4.373   2.650  19.924  0.00  0.00    +0.000 C 
ENDBRANCH  30  32
ENDBRANCH  26  30
ENDBRANCH  25  28
ENDBRANCH   1  25
TORSDOF 5
ENDMDL
MODEL 3
REMARK VINA RESULT:      -7.3      1.324      1.821
REMARK  Name = 
REMARK  8 active torsions:
REMARK  status: ('A' for Active; 'I' for Inactive)
REMARK    1  A    between atoms: C_1  and  C_2
REMARK    2  A    between atoms: C_2  and  C_3
REMARK    3  A    between atoms: C_2  and  C_4
REMARK    4  A    between atoms: C_2  and  O_5
REMARK    5  A    between atoms: O_5  and  C_6
REMARK    6  A    between atoms: N_8  and  C_9
REMARK    7  A    between atoms: C_9  and  C_10
REMARK    8  A    between atoms: N_15  and  C_16
REMARK                            x       y       z     vdW  Elec       q    Type
REMARK                         _______ _______ _______ _____ _____    ______ ____
ROOT
ATOM      1  C   UNL     1       1.293   8.610  20.755  0.00  0.00    +0.000 C 
ATOM      2  O   UNL     1       1.472   8.263  21.923  0.00  0.00    +0.000 OA
ATOM      3  N   UNL     1       0.628   9.778  20.416  0.00  0.00    +0.000 N 
ATOM      4  C   UNL     1       0.204  10.658  21.498  0.00  0.00    +0.000 C 
ATOM      5  C   UNL     1      -0.027  12.115  21.058  0.00  0.00    +0.000 C 
ATOM      6  N   UNL     1      -0.709  12.341  19.749  0.00  0.00    +0.000 NA
ATOM      7  C   UNL     1       0.044  11.516  18.782  0.00  0.00    +0.000 C 
ATOM      8  C   UNL     1       0.004  10.020  19.108  0.00  0.00    +0.000 C 
ENDROOT
BRANCH   6   9
ATOM      9  C   UNL     1      -2.233  12.179  19.806  0.00  0.00    +0.000 C 
ATOM     10  C   UNL     1      -2.856  13.425  20.526  0.00  0.00    +0.000 A 
ATOM     11  C   UNL     1      -2.089  14.569  20.847  0.00  0.00    +0.000 A 
ATOM     12  C   UNL     1      -2.620  15.664  21.536  0.00  0.00    +0.000 A 
ATOM     13  C   UNL     1      -3.969  15.689  21.839  0.00  0.00    +0.000 A 
ATOM     14 CL   UNL     1      -4.661  17.081  22.573  0.00  0.00    +0.000 Cl
ATOM     15  C   UNL     1      -4.765  14.594  21.527  0.00  0.00    +0.000 A 
ATOM     16  C   UNL     1      -4.209  13.447  20.921  0.00  0.00    +0.000 A 
ATOM     17  C   UNL     1      -5.120  12.294  20.616  0.00  0.00    +0.000 C 
ATOM     18  C   UNL     1      -5.456  12.312  19.141  0.00  0.00    +0.000 C 
ATOM     19  C   UNL     1      -4.359  11.907  18.190  0.00  0.00    +0.000 A 
ATOM     20  C   UNL     1      -4.840  11.573  16.896  0.00  0.00    +0.000 A 
ATOM     21  C   UNL     1      -4.002  11.092  15.909  0.00  0.00    +0.000 A 
ATOM     22  C   UNL     1      -2.688  10.935  16.255  0.00  0.00    +0.000 A 
ATOM     23  N   UNL     1      -2.201  11.264  17.469  0.00  0.00    +0.000 NA
ATOM     24  C   UNL     1      -2.976  11.822  18.441  0.00  0.00    +0.000 A 
ENDBRANCH   6   9
BRANCH   1  25
ATOM     25  C   UNL     1       1.799   7.752  19.611  0.00  0.00    +0.000 C 
BRANCH  25  28
ATOM     26  C   UNL     1       3.171   5.840  19.194  0.00  0.00    +0.000 C 
ATOM     27  O   UNL     1       2.364   5.442  18.364  0.00  0.00    +0.000 OA
ATOM     28  N   UNL     1       2.939   6.935  19.972  0.00  0.00    +0.000 N 
ATOM     29  H   UNL     1       3.704   7.309  20.508  0.00  0.00    +0.000 HD
BRANCH  26  30
ATOM     30  O   UNL     1       4.387   5.297  19.460  0.00  0.00    +0.000 OA
BRANCH  30  32
ATOM     31  C   UNL     1       6.801   5.501  18.990  0.00  0.00    +0.000 C 
ATOM     32  C   UNL     1       5.387   5.397  18.396  0.00  0.00    +0.000 C 
ATOM     33  C   UNL     1       5.071   6.552  17.430  0.00  0.00    +0.000 C 
ATOM     34  C   UNL     1       5.305   4.082  17.606  0.00  0.00    +0.000 C 
ENDBRANCH  30  32
ENDBRANCH  26  30
ENDBRANCH  25  28
ENDBRANCH   1  25
TORSDOF 5
ENDMDL
MODEL 4
REMARK VINA RESULT:      -7.3      1.354      1.965
REMARK  Name = 
REMARK  8 active torsions:
REMARK  status: ('A' for Active; 'I' for Inactive)
REMARK    1  A    between atoms: C_1  and  C_2
REMARK    2  A    between atoms: C_2  and  C_3
REMARK    3  A    between atoms: C_2  and  C_4
REMARK    4  A    between atoms: C_2  and  O_5
REMARK    5  A    between atoms: O_5  and  C_6
REMARK    6  A    between atoms: N_8  and  C_9
REMARK    7  A    between atoms: C_9  and  C_10
REMARK    8  A    between atoms: N_15  and  C_16
REMARK                            x       y       z     vdW  Elec       q    Type
REMARK                         _______ _______ _______ _____ _____    ______ ____
ROOT
ATOM      1  C   UNL     1       1.158   9.132  21.588  0.00  0.00    +0.000 C 
ATOM      2  O   UNL     1       1.823   9.359  22.600  0.00  0.00    +0.000 OA
ATOM      3  N   UNL     1       0.442  10.117  20.927  0.00  0.00    +0.000 N 
ATOM      4  C   UNL     1       0.559  11.486  21.414  0.00  0.00    +0.000 C 
ATOM      5  C   UNL     1       0.197  12.551  20.364  0.00  0.00    +0.000 C 
ATOM      6  N   UNL     1      -0.986  12.285  19.490  0.00  0.00    +0.000 NA
ATOM      7  C   UNL     1      -0.756  10.932  18.944  0.00  0.00    +0.000 C 
ATOM      8  C   UNL     1      -0.687   9.850  20.025  0.00  0.00    +0.000 C 
ENDROOT
BRANCH   6   9
ATOM      9  C   UNL     1      -2.333  12.574  20.163  0.00  0.00    +0.000 C 
ATOM     10  C   UNL     1      -2.329  14.043  20.711  0.00  0.00    +0.000 A 
ATOM     11  C   UNL     1      -1.295  14.958  20.403  0.00  0.00    +0.000 A 
ATOM     12  C   UNL     1      -1.253  16.254  20.928  0.00  0.00    +0.000 A 
ATOM     13  C   UNL     1      -2.305  16.709  21.703  0.00  0.00    +0.000 A 
ATOM     14 CL   UNL     1      -2.327  18.338  22.251  0.00  0.00    +0.000 Cl
ATOM     15  C   UNL     1      -3.351  15.850  22.017  0.00  0.00    +0.000 A 
ATOM     16  C   UNL     1      -3.345  14.511  21.570  0.00  0.00    +0.000 A 
ATOM     17  C   UNL     1      -4.500  13.632  21.949  0.00  0.00    +0.000 C 
ATOM     18  C   UNL     1      -5.433  13.511  20.764  0.00  0.00    +0.000 C 
ATOM     19  C   UNL     1      -4.959  12.666  19.610  0.00  0.00    +0.000 A 
ATOM     20  C   UNL     1      -6.008  12.282  18.733  0.00  0.00    +0.000 A 
ATOM     21  C   UNL     1      -5.791  11.432  17.666  0.00  0.00    +0.000 A 
ATOM     22  C   UNL     1      -4.515  10.965  17.514  0.00  0.00    +0.000 A 
ATOM     23  N   UNL     1      -3.495  11.330  18.319  0.00  0.00    +0.000 NA
ATOM     24  C   UNL     1      -3.648  12.231  19.329  0.00  0.00    +0.000 A 
ENDBRANCH   6   9
BRANCH   1  25
ATOM     25  C   UNL     1       1.088   7.730  21.013  0.00  0.00    +0.000 C 
BRANCH  25  28
ATOM     26  C   UNL     1       2.549   6.019  20.205  0.00  0.00    +0.000 C 
ATOM     27  O   UNL     1       1.947   5.190  20.876  0.00  0.00    +0.000 OA
ATOM     28  N   UNL     1       2.279   7.353  20.280  0.00  0.00    +0.000 N 
ATOM     29  H   UNL     1       2.682   7.960  19.587  0.00  0.00    +0.000 HD
BRANCH  26  30
ATOM     30  O   UNL     1       3.528   5.765  19.300  0.00  0.00    +0.000 OA
BRANCH  30  32
ATOM     31  C   UNL     1       1.804   4.751  17.855  0.00  0.00    +0.000 C 
ATOM     32  C   UNL     1       3.261   4.692  18.341  0.00  0.00    +0.000 C 
ATOM     33  C   UNL     1       3.632   3.315  18.916  0.00  0.00    +0.000 C 
ATOM     34  C   UNL     1       4.171   4.963  17.133  0.00  0.00    +0.000 C 
ENDBRANCH  30  32
ENDBRANCH  26  30
ENDBRANCH  25  28
ENDBRANCH   1  25
TORSDOF 5
ENDMDL
MODEL 5
REMARK VINA RESULT:      -7.2      1.351      1.863
REMARK  Name = 
REMARK  8 active torsions:
REMARK  status: ('A' for Active; 'I' for Inactive)
REMARK    1  A    between atoms: C_1  and  C_2
REMARK    2  A    between atoms: C_2  and  C_3
REMARK    3  A    between atoms: C_2  and  C_4
REMARK    4  A    between atoms: C_2  and  O_5
REMARK    5  A    between atoms: O_5  and  C_6
REMARK    6  A    between atoms: N_8  and  C_9
REMARK    7  A    between atoms: C_9  and  C_10
REMARK    8  A    between atoms: N_15  and  C_16
REMARK                            x       y       z     vdW  Elec       q    Type
REMARK                         _______ _______ _______ _____ _____    ______ ____
ROOT
ATOM      1  C   UNL     1       1.214   8.920  21.089  0.00  0.00    +0.000 C 
ATOM      2  O   UNL     1       1.661   8.806  22.231  0.00  0.00    +0.000 OA
ATOM      3  N   UNL     1       0.493  10.030  20.676  0.00  0.00    +0.000 N 
ATOM      4  C   UNL     1       0.339  11.130  21.619  0.00  0.00    +0.000 C 
ATOM      5  C   UNL     1       0.019  12.480  20.950  0.00  0.00    +0.000 C 
ATOM      6  N   UNL     1      -0.951  12.474  19.814  0.00  0.00    +0.000 NA
ATOM      7  C   UNL     1      -0.450  11.432  18.895  0.00  0.00    +0.000 C 
ATOM      8  C   UNL     1      -0.419  10.037  19.525  0.00  0.00    +0.000 C 
ENDROOT
BRANCH   6   9
ATOM      9  C   UNL     1      -2.420  12.408  20.251  0.00  0.00    +0.000 C 
ATOM     10  C   UNL     1      -2.753  13.668  21.123  0.00  0.00    +0.000 A 
ATOM     11  C   UNL     1      -1.852  14.750  21.258  0.00  0.00    +0.000 A 
ATOM     12  C   UNL     1      -2.116  15.854  22.074  0.00  0.00    +0.000 A 
ATOM     13  C   UNL     1      -3.341  15.956  22.707  0.00  0.00    +0.000 A 
ATOM     14 CL   UNL     1      -3.727  17.365  23.612  0.00  0.00    +0.000 Cl
ATOM     15  C   UNL     1      -4.265  14.925  22.590  0.00  0.00    +0.000 A 
ATOM     16  C   UNL     1      -3.960  13.764  21.846  0.00  0.00    +0.000 A 
ATOM     17  C   UNL     1      -4.997  12.682  21.764  0.00  0.00    +0.000 C 
ATOM     18  C   UNL     1      -5.689  12.768  20.422  0.00  0.00    +0.000 C 
ATOM     19  C   UNL     1      -4.896  12.325  19.219  0.00  0.00    +0.000 A 
ATOM     20  C   UNL     1      -5.708  12.064  18.083  0.00  0.00    +0.000 A 
ATOM     21  C   UNL     1      -5.179  11.562  16.910  0.00  0.00    +0.000 A 
ATOM     22  C   UNL     1      -3.835  11.310  16.911  0.00  0.00    +0.000 A 
ATOM     23  N   UNL     1      -3.038  11.568  17.968  0.00  0.00    +0.000 NA
ATOM     24  C   UNL     1      -3.503  12.143  19.112  0.00  0.00    +0.000 A 
ENDBRANCH   6   9
BRANCH   1  25
ATOM     25  C   UNL     1       1.433   7.824  20.064  0.00  0.00    +0.000 C 
BRANCH  25  28
ATOM     26  C   UNL     1       2.816   5.957  19.503  0.00  0.00    +0.000 C 
ATOM     27  O   UNL     1       1.971   5.570  18.707  0.00  0.00    +0.000 OA
ATOM     28  N   UNL     1       2.608   7.021  20.330  0.00  0.00    +0.000 N 
ATOM     29  H   UNL     1       3.395   7.393  20.834  0.00  0.00    +0.000 HD
BRANCH  26  30
ATOM     30  O   UNL     1       4.056   5.432  19.679  0.00  0.00    +0.000 OA
BRANCH  30  32
ATOM     31  C   UNL     1       4.719   6.600  17.609  0.00  0.00    +0.000 C 
ATOM     32  C   UNL     1       4.900   5.351  18.487  0.00  0.00    +0.000 C 
ATOM     33  C   UNL     1       4.656   4.048  17.708  0.00  0.00    +0.000 C 
ATOM     34  C   UNL     1       6.351   5.338  18.990  0.00  0.00    +0.000 C 
ENDBRANCH  30  32
ENDBRANCH  26  30
ENDBRANCH  25  28
ENDBRANCH   1  25
TORSDOF 5
ENDMDL
MODEL 6
REMARK VINA RESULT:      -7.2      1.317      1.739
REMARK  Name = 
REMARK  8 active torsions:
REMARK  status: ('A' for Active; 'I' for Inactive)
REMARK    1  A    between atoms: C_1  and  C_2
REMARK    2  A    between atoms: C_2  and  C_3
REMARK    3  A    between atoms: C_2  and  C_4
REMARK    4  A    between atoms: C_2  and  O_5
REMARK    5  A    between atoms: O_5  and  C_6
REMARK    6  A    between atoms: N_8  and  C_9
REMARK    7  A    between atoms: C_9  and  C_10
REMARK    8  A    between atoms: N_15  and  C_16
REMARK                            x       y       z     vdW  Elec       q    Type
REMARK                         _______ _______ _______ _____ _____    ______ ____
ROOT
ATOM      1  C   UNL     1       0.547   9.879  22.423  0.00  0.00    +0.000 C 
ATOM      2  O   UNL     1       0.465   9.624  23.627  0.00  0.00    +0.000 OA
ATOM      3  N   UNL     1      -0.262  10.818  21.802  0.00  0.00    +0.000 N 
ATOM      4  C   UNL     1      -1.181  11.582  22.636  0.00  0.00    +0.000 C 
ATOM      5  C   UNL     1      -1.630  12.913  22.005  0.00  0.00    +0.000 C 
ATOM      6  N   UNL     1      -1.944  12.912  20.544  0.00  0.00    +0.000 NA
ATOM      7  C   UNL     1      -0.767  12.291  19.904  0.00  0.00    +0.000 C 
ATOM      8  C   UNL     1      -0.526  10.849  20.358  0.00  0.00    +0.000 C 
ENDROOT
BRANCH   6   9
ATOM      9  C   UNL     1      -3.331  12.352  20.207  0.00  0.00    +0.000 C 
ATOM     10  C   UNL     1      -4.427  13.345  20.729  0.00  0.00    +0.000 A 
ATOM     11  C   UNL     1      -4.104  14.629  21.226  0.00  0.00    +0.000 A 
ATOM     12  C   UNL     1      -5.066  15.502  21.743  0.00  0.00    +0.000 A 
ATOM     13  C   UNL     1      -6.403  15.152  21.686  0.00  0.00    +0.000 A 
ATOM     14 CL   UNL     1      -7.606  16.266  22.203  0.00  0.00    +0.000 Cl
ATOM     15  C   UNL     1      -6.769  13.907  21.190  0.00  0.00    +0.000 A 
ATOM     16  C   UNL     1      -5.791  12.986  20.760  0.00  0.00    +0.000 A 
ATOM     17  C   UNL     1      -6.249  11.655  20.241  0.00  0.00    +0.000 C 
ATOM     18  C   UNL     1      -6.195  11.672  18.730  0.00  0.00    +0.000 C 
ATOM     19  C   UNL     1      -4.828  11.629  18.099  0.00  0.00    +0.000 A 
ATOM     20  C   UNL     1      -4.859  11.259  16.728  0.00  0.00    +0.000 A 
ATOM     21  C   UNL     1      -3.701  11.076  15.996  0.00  0.00    +0.000 A 
ATOM     22  C   UNL     1      -2.525  11.250  16.671  0.00  0.00    +0.000 A 
ATOM     23  N   UNL     1      -2.466  11.621  17.967  0.00  0.00    +0.000 NA
ATOM     24  C   UNL     1      -3.582  11.895  18.700  0.00  0.00    +0.000 A 
ENDBRANCH   6   9
BRANCH   1  25
ATOM     25  C   UNL     1       1.554   9.156  21.551  0.00  0.00    +0.000 C 
BRANCH  25  28
ATOM     26  C   UNL     1       1.778   7.093  20.365  0.00  0.00    +0.000 C 
ATOM     27  O   UNL     1       2.169   7.703  19.378  0.00  0.00    +0.000 OA
ATOM     28  N   UNL     1       1.329   7.726  21.484  0.00  0.00    +0.000 N 
ATOM     29  H   UNL     1       1.185   7.179  22.316  0.00  0.00    +0.000 HD
BRANCH  26  30
ATOM     30  O   UNL     1       1.743   5.744  20.515  0.00  0.00    +0.000 OA
BRANCH  30  32
ATOM     31  C   UNL     1       2.020   5.234  18.116  0.00  0.00    +0.000 C 
ATOM     32  C   UNL     1       2.515   4.964  19.546  0.00  0.00    +0.000 C 
ATOM     33  C   UNL     1       2.511   3.466  19.894  0.00  0.00    +0.000 C 
ATOM     34  C   UNL     1       3.962   5.470  19.646  0.00  0.00    +0.000 C 
ENDBRANCH  30  32
ENDBRANCH  26  30
ENDBRANCH  25  28
ENDBRANCH   1  25
TORSDOF 5
ENDMDL
MODEL 7
REMARK VINA RESULT:      -7.1      1.665      2.264
REMARK  Name = 
REMARK  8 active torsions:
REMARK  status: ('A' for Active; 'I' for Inactive)
REMARK    1  A    between atoms: C_1  and  C_2
REMARK    2  A    between atoms: C_2  and  C_3
REMARK    3  A    between atoms: C_2  and  C_4
REMARK    4  A    between atoms: C_2  and  O_5
REMARK    5  A    between atoms: O_5  and  C_6
REMARK    6  A    between atoms: N_8  and  C_9
REMARK    7  A    between atoms: C_9  and  C_10
REMARK    8  A    between atoms: N_15  and  C_16
REMARK                            x       y       z     vdW  Elec       q    Type
REMARK                         _______ _______ _______ _____ _____    ______ ____
ROOT
ATOM      1  C   UNL     1       0.755  10.192  20.832  0.00  0.00    +0.000 C 
ATOM      2  O   UNL     1       1.396  10.031  21.872  0.00  0.00    +0.000 OA
ATOM      3  N   UNL     1      -0.208  11.178  20.694  0.00  0.00    +0.000 N 
ATOM      4  C   UNL     1      -0.399  12.104  21.803  0.00  0.00    +0.000 C 
ATOM      5  C   UNL     1      -1.058  13.434  21.395  0.00  0.00    +0.000 C 
ATOM      6  N   UNL     1      -2.184  13.373  20.414  0.00  0.00    +0.000 NA
ATOM      7  C   UNL     1      -1.663  12.571  19.289  0.00  0.00    +0.000 C 
ATOM      8  C   UNL     1      -1.283  11.144  19.693  0.00  0.00    +0.000 C 
ENDROOT
BRANCH   6   9
ATOM      9  C   UNL     1      -3.526  12.966  21.034  0.00  0.00    +0.000 C 
ATOM     10  C   UNL     1      -3.982  14.073  22.047  0.00  0.00    +0.000 A 
ATOM     11  C   UNL     1      -3.316  15.316  22.153  0.00  0.00    +0.000 A 
ATOM     12  C   UNL     1      -3.681  16.290  23.087  0.00  0.00    +0.000 A 
ATOM     13  C   UNL     1      -4.794  16.087  23.883  0.00  0.00    +0.000 A 
ATOM     14 CL   UNL     1      -5.327  17.326  24.948  0.00  0.00    +0.000 Cl
ATOM     15  C   UNL     1      -5.490  14.888  23.802  0.00  0.00    +0.000 A 
ATOM     16  C   UNL     1      -5.063  13.864  22.928  0.00  0.00    +0.000 A 
ATOM     17  C   UNL     1      -5.853  12.589  22.891  0.00  0.00    +0.000 C 
ATOM     18  C   UNL     1      -6.737  12.595  21.665  0.00  0.00    +0.000 C 
ATOM     19  C   UNL     1      -6.056  12.402  20.334  0.00  0.00    +0.000 A 
ATOM     20  C   UNL     1      -6.954  12.033  19.297  0.00  0.00    +0.000 A 
ATOM     21  C   UNL     1      -6.510  11.723  18.026  0.00  0.00    +0.000 A 
ATOM     22  C   UNL     1      -5.158  11.771  17.829  0.00  0.00    +0.000 A 
ATOM     23  N   UNL     1      -4.285  12.138  18.789  0.00  0.00    +0.000 NA
ATOM     24  C   UNL     1      -4.687  12.534  20.030  0.00  0.00    +0.000 A 
ENDBRANCH   6   9
BRANCH   1  25
ATOM     25  C   UNL     1       0.995   9.293  19.634  0.00  0.00    +0.000 C 
BRANCH  25  28
ATOM     26  C   UNL     1       2.415   7.477  19.002  0.00  0.00    +0.000 C 
ATOM     27  O   UNL     1       2.396   7.867  17.841  0.00  0.00    +0.000 OA
ATOM     28  N   UNL     1       1.653   8.049  19.977  0.00  0.00    +0.000 N 
ATOM     29  H   UNL     1       1.839   7.801  20.934  0.00  0.00    +0.000 HD
BRANCH  26  30
ATOM     30  O   UNL     1       3.175   6.469  19.500  0.00  0.00    +0.000 OA
BRANCH  30  32
ATOM     31  C   UNL     1       4.334   5.440  17.579  0.00  0.00    +0.000 C 
ATOM     32  C   UNL     1       3.272   5.263  18.676  0.00  0.00    +0.000 C 
ATOM     33  C   UNL     1       1.902   4.857  18.106  0.00  0.00    +0.000 C 
ATOM     34  C   UNL     1       3.747   4.142  19.613  0.00  0.00    +0.000 C 
ENDBRANCH  30  32
ENDBRANCH  26  30
ENDBRANCH  25  28
ENDBRANCH   1  25
TORSDOF 5
ENDMDL
MODEL 8
REMARK VINA RESULT:      -7.0      1.047      1.433
REMARK  Name = 
REMARK  8 active torsions:
REMARK  status: ('A' for Active; 'I' for Inactive)
REMARK    1  A    between atoms: C_1  and  C_2
REMARK    2  A    between atoms: C_2  and  C_3
REMARK    3  A    between atoms: C_2  and  C_4
REMARK    4  A    between atoms: C_2  and  O_5
REMARK    5  A    between atoms: O_5  and  C_6
REMARK    6  A    between atoms: N_8  and  C_9
REMARK    7  A    between atoms: C_9  and  C_10
REMARK    8  A    between atoms: N_15  and  C_16
REMARK                            x       y       z     vdW  Elec       q    Type
REMARK                         _______ _______ _______ _____ _____    ______ ____
ROOT
ATOM      1  C   UNL     1       1.176   8.820  21.103  0.00  0.00    +0.000 C 
ATOM      2  O   UNL     1       1.625   8.683  22.243  0.00  0.00    +0.000 OA
ATOM      3  N   UNL     1       0.478   9.950  20.707  0.00  0.00    +0.000 N 
ATOM      4  C   UNL     1       0.353  11.043  21.663  0.00  0.00    +0.000 C 
ATOM      5  C   UNL     1       0.060  12.407  21.011  0.00  0.00    +0.000 C 
ATOM      6  N   UNL     1      -0.915  12.435  19.879  0.00  0.00    +0.000 NA
ATOM      7  C   UNL     1      -0.441  11.393  18.945  0.00  0.00    +0.000 C 
ATOM      8  C   UNL     1      -0.439   9.991  19.560  0.00  0.00    +0.000 C 
ENDROOT
BRANCH   6   9
ATOM      9  C   UNL     1      -2.383  12.397  20.322  0.00  0.00    +0.000 C 
ATOM     10  C   UNL     1      -2.683  13.653  21.211  0.00  0.00    +0.000 A 
ATOM     11  C   UNL     1      -1.757  14.713  21.355  0.00  0.00    +0.000 A 
ATOM     12  C   UNL     1      -1.992  15.812  22.186  0.00  0.00    +0.000 A 
ATOM     13  C   UNL     1      -3.212  15.934  22.827  0.00  0.00    +0.000 A 
ATOM     14 CL   UNL     1      -3.562  17.340  23.751  0.00  0.00    +0.000 Cl
ATOM     15  C   UNL     1      -4.159  14.925  22.701  0.00  0.00    +0.000 A 
ATOM     16  C   UNL     1      -3.885  13.767  21.941  0.00  0.00    +0.000 A 
ATOM     17  C   UNL     1      -4.946  12.711  21.850  0.00  0.00    +0.000 C 
ATOM     18  C   UNL     1      -5.642  12.830  20.513  0.00  0.00    +0.000 C 
ATOM     19  C   UNL     1      -4.865  12.383  19.301  0.00  0.00    +0.000 A 
ATOM     20  C   UNL     1      -5.688  12.155  18.165  0.00  0.00    +0.000 A 
ATOM     21  C   UNL     1      -5.175  11.656  16.984  0.00  0.00    +0.000 A 
ATOM     22  C   UNL     1      -3.838  11.374  16.975  0.00  0.00    +0.000 A 
ATOM     23  N   UNL     1      -3.030  11.601  18.032  0.00  0.00    +0.000 NA
ATOM     24  C   UNL     1      -3.477  12.171  19.185  0.00  0.00    +0.000 A 
ENDBRANCH   6   9
BRANCH   1  25
ATOM     25  C   UNL     1       1.366   7.731  20.065  0.00  0.00    +0.000 C 
BRANCH  25  28
ATOM     26  C   UNL     1       1.927   5.458  20.546  0.00  0.00    +0.000 C 
ATOM     27  O   UNL     1       0.740   5.159  20.518  0.00  0.00    +0.000 OA
ATOM     28  N   UNL     1       2.359   6.747  20.446  0.00  0.00    +0.000 N 
ATOM     29  H   UNL     1       3.341   6.911  20.304  0.00  0.00    +0.000 HD
BRANCH  26  30
ATOM     30  O   UNL     1       2.972   4.598  20.659  0.00  0.00    +0.000 OA
BRANCH  30  32
ATOM     31  C   UNL     1       1.874   2.522  19.898  0.00  0.00    +0.000 C 
ATOM     32  C   UNL     1       3.027   3.515  19.675  0.00  0.00    +0.000 C 
ATOM     33  C   UNL     1       4.401   2.825  19.670  0.00  0.00    +0.000 C 
ATOM     34  C   UNL     1       2.821   4.173  18.303  0.00  0.00    +0.000 C 
ENDBRANCH  30  32
ENDBRANCH  26  30
ENDBRANCH  25  28
ENDBRANCH   1  25
TORSDOF 5
ENDMDL
MODEL 9
REMARK VINA RESULT:      -6.8      2.047      2.646
REMARK  Name = 
REMARK  8 active torsions:
REMARK  status: ('A' for Active; 'I' for Inactive)
REMARK    1  A    between atoms: C_1  and  C_2
REMARK    2  A    between atoms: C_2  and  C_3
REMARK    3  A    between atoms: C_2  and  C_4
REMARK    4  A    between atoms: C_2  and  O_5
REMARK    5  A    between atoms: O_5  and  C_6
REMARK    6  A    between atoms: N_8  and  C_9
REMARK    7  A    between atoms: C_9  and  C_10
REMARK    8  A    between atoms: N_15  and  C_16
REMARK                            x       y       z     vdW  Elec       q    Type
REMARK                         _______ _______ _______ _____ _____    ______ ____
ROOT
ATOM      1  C   UNL     1       1.696   8.243  19.817  0.00  0.00    +0.000 C 
ATOM      2  O   UNL     1       1.987   7.776  20.920  0.00  0.00    +0.000 OA
ATOM      3  N   UNL     1       1.049   9.459  19.667  0.00  0.00    +0.000 N 
ATOM      4  C   UNL     1       0.784  10.242  20.867  0.00  0.00    +0.000 C 
ATOM      5  C   UNL     1       0.571  11.742  20.595  0.00  0.00    +0.000 C 
ATOM      6  N   UNL     1      -0.241  12.117  19.398  0.00  0.00    +0.000 NA
ATOM      7  C   UNL     1       0.366  11.366  18.279  0.00  0.00    +0.000 C 
ATOM      8  C   UNL     1       0.297   9.848  18.466  0.00  0.00    +0.000 C 
ENDROOT
BRANCH   6   9
ATOM      9  C   UNL     1      -1.755  12.000  19.612  0.00  0.00    +0.000 C 
ATOM     10  C   UNL     1      -2.260  13.255  20.404  0.00  0.00    +0.000 A 
ATOM     11  C   UNL     1      -1.429  14.372  20.654  0.00  0.00    +0.000 A 
ATOM     12  C   UNL     1      -1.852  15.474  21.404  0.00  0.00    +0.000 A 
ATOM     13  C   UNL     1      -3.161  15.536  21.846  0.00  0.00    +0.000 A 
ATOM     14 CL   UNL     1      -3.729  16.938  22.660  0.00  0.00    +0.000 Cl
ATOM     15  C   UNL     1      -4.019  14.469  21.608  0.00  0.00    +0.000 A 
ATOM     16  C   UNL     1      -3.565  13.313  20.937  0.00  0.00    +0.000 A 
ATOM     17  C   UNL     1      -4.537  12.192  20.718  0.00  0.00    +0.000 C 
ATOM     18  C   UNL     1      -5.023  12.237  19.287  0.00  0.00    +0.000 C 
ATOM     19  C   UNL     1      -4.044  11.812  18.223  0.00  0.00    +0.000 A 
ATOM     20  C   UNL     1      -4.667  11.508  16.983  0.00  0.00    +0.000 A 
ATOM     21  C   UNL     1      -3.950  11.014  15.910  0.00  0.00    +0.000 A 
ATOM     22  C   UNL     1      -2.613  10.814  16.115  0.00  0.00    +0.000 A 
ATOM     23  N   UNL     1      -1.993  11.114  17.276  0.00  0.00    +0.000 NA
ATOM     24  C   UNL     1      -2.645  11.682  18.328  0.00  0.00    +0.000 A 
ENDBRANCH   6   9
BRANCH   1  25
ATOM     25  C   UNL     1       2.036   7.484  18.548  0.00  0.00    +0.000 C 
BRANCH  25  28
ATOM     26  C   UNL     1       3.988   6.577  17.509  0.00  0.00    +0.000 C 
ATOM     27  O   UNL     1       3.448   5.479  17.455  0.00  0.00    +0.000 OA
ATOM     28  N   UNL     1       3.418   7.640  18.143  0.00  0.00    +0.000 N 
ATOM     29  H   UNL     1       3.826   8.550  18.008  0.00  0.00    +0.000 HD
BRANCH  26  30
ATOM     30  O   UNL     1       5.182   6.914  16.959  0.00  0.00    +0.000 OA
BRANCH  30  32
ATOM     31  C   UNL     1       6.014   5.563  18.849  0.00  0.00    +0.000 C 
ATOM     32  C   UNL     1       6.364   6.264  17.526  0.00  0.00    +0.000 C 
ATOM     33  C   UNL     1       7.534   7.250  17.678  0.00  0.00    +0.000 C 
ATOM     34  C   UNL     1       6.783   5.183  16.519  0.00  0.00    +0.000 C 
ENDBRANCH  30  32
ENDBRANCH  26  30
ENDBRANCH  25  28
ENDBRANCH   1  25
TORSDOF 5
ENDMDL
