MODEL 1
REMARK VINA RESULT:      -7.8      0.000      0.000
REMARK  Name = 
REMARK  3 active torsions:
REMARK  status: ('A' for Active; 'I' for Inactive)
REMARK    1  A    between atoms: N_4  and  N_5
REMARK    2  A    between atoms: C_6  and  C_7
REMARK    3  A    between atoms: C_8  and  C_9
REMARK                            x       y       z     vdW  Elec       q    Type
REMARK                         _______ _______ _______ _____ _____    ______ ____
ROOT
ATOM      1  C   UNL     1       3.272   5.437  19.018  0.00  0.00    +0.000 A 
ATOM      2  C   UNL     1       2.402   6.245  19.760  0.00  0.00    +0.000 A 
ATOM      3  N   UNL     1       1.906   5.528  20.799  0.00  0.00    +0.000 NA
ATOM      4  C   UNL     1       2.462   4.313  20.643  0.00  0.00    +0.000 A 
ATOM      5  N   UNL     1       3.283   4.232  19.612  0.00  0.00    +0.000 N 
ATOM      6  C   UNL     1       3.912   2.951  19.395  0.00  0.00    +0.000 C 
ATOM      7  C   UNL     1       3.673   2.172  20.711  0.00  0.00    +0.000 C 
ATOM      8  S   UNL     1       2.164   2.819  21.551  0.00  0.00    +0.000 S 
ENDROOT
BRANCH   2   9
ATOM      9  C   UNL     1       1.991   7.642  19.457  0.00  0.00    +0.000 A 
ATOM     10  C   UNL     1       2.217   8.209  18.183  0.00  0.00    +0.000 A 
ATOM     11  C   UNL     1       1.844   9.521  17.906  0.00  0.00    +0.000 A 
ATOM     12  C   UNL     1       1.232  10.294  18.892  0.00  0.00    +0.000 A 
ATOM     13 CL   UNL     1       0.780  11.951  18.537  0.00  0.00    +0.000 Cl
ATOM     14  C   UNL     1       0.975   9.742  20.150  0.00  0.00    +0.000 A 
ATOM     15  C   UNL     1       1.342   8.419  20.430  0.00  0.00    +0.000 A 
ENDBRANCH   2   9
BRANCH   1  17
ATOM     16  N   UNL     1       5.288   5.559  17.666  0.00  0.00    +0.000 NA
ATOM     17  C   UNL     1       4.051   5.856  17.837  0.00  0.00    +0.000 C 
BRANCH  16  21
ATOM     18  N   UNL     1       7.606   4.314  16.760  0.00  0.00    +0.000 NA
ATOM     19  C   UNL     1       7.069   5.226  16.033  0.00  0.00    +0.000 C 
ATOM     20  N   UNL     1       7.622   5.553  14.764  0.00  0.00    +0.000 N 
ATOM     21  N   UNL     1       5.906   5.901  16.479  0.00  0.00    +0.000 N 
ATOM     22  H   UNL     1       8.446   3.804  16.448  0.00  0.00    +0.000 HD
ATOM     23  H   UNL     1       8.464   5.077  14.416  0.00  0.00    +0.000 HD
ATOM     24  H   UNL     1       7.183   6.277  14.176  0.00  0.00    +0.000 HD
ATOM     25  H   UNL     1       5.474   6.598  15.850  0.00  0.00    +0.000 HD
ENDBRANCH  16  21
ENDBRANCH   1  17
TORSDOF 3
ENDMDL
MODEL 2
REMARK VINA RESULT:      -7.7      0.162      1.068
REMARK  Name = 
REMARK  3 active torsions:
REMARK  status: ('A' for Active; 'I' for Inactive)
REMARK    1  A    between atoms: N_4  and  N_5
REMARK    2  A    between atoms: C_6  and  C_7
REMARK    3  A    between atoms: C_8  and  C_9
REMARK                            x       y       z     vdW  Elec       q    Type
REMARK                         _______ _______ _______ _____ _____    ______ ____
ROOT
ATOM      1  C   UNL     1       3.203   5.507  19.070  0.00  0.00    +0.000 A 
ATOM      2  C   UNL     1       2.333   6.330  19.794  0.00  0.00    +0.000 A 
ATOM      3  N   UNL     1       1.807   5.624  20.826  0.00  0.00    +0.000 NA
ATOM      4  C   UNL     1       2.348   4.400  20.683  0.00  0.00    +0.000 A 
ATOM      5  N   UNL     1       3.186   4.303  19.668  0.00  0.00    +0.000 N 
ATOM      6  C   UNL     1       3.801   3.013  19.466  0.00  0.00    +0.000 C 
ATOM      7  C   UNL     1       3.526   2.242  20.779  0.00  0.00    +0.000 C 
ATOM      8  S   UNL     1       2.011   2.913  21.590  0.00  0.00    +0.000 S 
ENDROOT
BRANCH   2   9
ATOM      9  C   UNL     1       1.948   7.732  19.479  0.00  0.00    +0.000 A 
ATOM     10  C   UNL     1       1.321   8.551  20.443  0.00  0.00    +0.000 A 
ATOM     11  C   UNL     1       0.949   9.858  20.142  0.00  0.00    +0.000 A 
ATOM     12  C   UNL     1       1.201  10.378  18.874  0.00  0.00    +0.000 A 
ATOM     13 CL   UNL     1       0.714  12.021  18.499  0.00  0.00    +0.000 Cl
ATOM     14  C   UNL     1       1.845   9.593  17.913  0.00  0.00    +0.000 A 
ATOM     15  C   UNL     1       2.228   8.279  18.216  0.00  0.00    +0.000 A 
ENDBRANCH   2   9
BRANCH   1  17
ATOM     16  N   UNL     1       5.286   5.786  17.849  0.00  0.00    +0.000 NA
ATOM     17  C   UNL     1       4.011   5.910  17.902  0.00  0.00    +0.000 C 
BRANCH  16  21
ATOM     18  N   UNL     1       7.488   4.346  16.940  0.00  0.00    +0.000 NA
ATOM     19  C   UNL     1       7.045   5.317  16.225  0.00  0.00    +0.000 C 
ATOM     20  N   UNL     1       7.639   5.613  14.967  0.00  0.00    +0.000 N 
ATOM     21  N   UNL     1       5.946   6.089  16.673  0.00  0.00    +0.000 N 
ATOM     22  H   UNL     1       8.280   3.766  16.626  0.00  0.00    +0.000 HD
ATOM     23  H   UNL     1       8.437   5.066  14.618  0.00  0.00    +0.000 HD
ATOM     24  H   UNL     1       7.275   6.384  14.389  0.00  0.00    +0.000 HD
ATOM     25  H   UNL     1       5.586   6.834  16.054  0.00  0.00    +0.000 HD
ENDBRANCH  16  21
ENDBRANCH   1  17
TORSDOF 3
ENDMDL
MODEL 3
REMARK VINA RESULT:      -7.6      3.328      5.891
REMARK  Name = 
REMARK  3 active torsions:
REMARK  status: ('A' for Active; 'I' for Inactive)
REMARK    1  A    between atoms: N_4  and  N_5
REMARK    2  A    between atoms: C_6  and  C_7
REMARK    3  A    between atoms: C_8  and  C_9
REMARK                            x       y       z     vdW  Elec       q    Type
REMARK                         _______ _______ _______ _____ _____    ______ ____
ROOT
ATOM      1  C   UNL     1       3.191   4.964  18.594  0.00  0.00    +0.000 A 
ATOM      2  C   UNL     1       4.206   4.134  18.103  0.00  0.00    +0.000 A 
ATOM      3  N   UNL     1       4.304   3.036  18.894  0.00  0.00    +0.000 NA
ATOM      4  C   UNL     1       3.374   3.244  19.844  0.00  0.00    +0.000 A 
ATOM      5  N   UNL     1       2.691   4.362  19.686  0.00  0.00    +0.000 N 
ATOM      6  C   UNL     1       1.677   4.638  20.675  0.00  0.00    +0.000 C 
ATOM      7  C   UNL     1       1.485   3.295  21.420  0.00  0.00    +0.000 C 
ATOM      8  S   UNL     1       3.027   2.290  21.300  0.00  0.00    +0.000 S 
ENDROOT
BRANCH   2   9
ATOM      9  C   UNL     1       5.114   4.402  16.956  0.00  0.00    +0.000 A 
ATOM     10  C   UNL     1       6.379   4.998  17.150  0.00  0.00    +0.000 A 
ATOM     11  C   UNL     1       7.221   5.260  16.073  0.00  0.00    +0.000 A 
ATOM     12  C   UNL     1       6.821   4.928  14.780  0.00  0.00    +0.000 A 
ATOM     13 CL   UNL     1       7.883   5.277  13.428  0.00  0.00    +0.000 Cl
ATOM     14  C   UNL     1       5.584   4.313  14.569  0.00  0.00    +0.000 A 
ATOM     15  C   UNL     1       4.737   4.039  15.652  0.00  0.00    +0.000 A 
ENDBRANCH   2   9
BRANCH   1  17
ATOM     16  N   UNL     1       2.664   7.336  18.640  0.00  0.00    +0.000 NA
ATOM     17  C   UNL     1       2.740   6.233  17.990  0.00  0.00    +0.000 C 
BRANCH  16  21
ATOM     18  N   UNL     1       1.040   9.311  19.740  0.00  0.00    +0.000 NA
ATOM     19  C   UNL     1       1.529   9.494  18.567  0.00  0.00    +0.000 C 
ATOM     20  N   UNL     1       1.287  10.710  17.868  0.00  0.00    +0.000 N 
ATOM     21  N   UNL     1       2.335   8.496  17.966  0.00  0.00    +0.000 N 
ATOM     22  H   UNL     1       0.461  10.029  20.198  0.00  0.00    +0.000 HD
ATOM     23  H   UNL     1       0.708  11.451  18.283  0.00  0.00    +0.000 HD
ATOM     24  H   UNL     1       1.690  10.861  16.933  0.00  0.00    +0.000 HD
ATOM     25  H   UNL     1       2.749   8.694  17.041  0.00  0.00    +0.000 HD
ENDBRANCH  16  21
ENDBRANCH   1  17
TORSDOF 3
ENDMDL
MODEL 4
REMARK VINA RESULT:      -7.6      3.316      5.813
REMARK  Name = 
REMARK  3 active torsions:
REMARK  status: ('A' for Active; 'I' for Inactive)
REMARK    1  A    between atoms: N_4  and  N_5
REMARK    2  A    between atoms: C_6  and  C_7
REMARK    3  A    between atoms: C_8  and  C_9
REMARK                            x       y       z     vdW  Elec       q    Type
REMARK                         _______ _______ _______ _____ _____    ______ ____
ROOT
ATOM      1  C   UNL     1       3.121   4.942  18.635  0.00  0.00    +0.000 A 
ATOM      2  C   UNL     1       4.156   4.139  18.139  0.00  0.00    +0.000 A 
ATOM      3  N   UNL     1       4.278   3.038  18.922  0.00  0.00    +0.000 NA
ATOM      4  C   UNL     1       3.343   3.217  19.873  0.00  0.00    +0.000 A 
ATOM      5  N   UNL     1       2.635   4.321  19.723  0.00  0.00    +0.000 N 
ATOM      6  C   UNL     1       1.614   4.566  20.712  0.00  0.00    +0.000 C 
ATOM      7  C   UNL     1       1.452   3.213  21.447  0.00  0.00    +0.000 C 
ATOM      8  S   UNL     1       3.016   2.245  21.321  0.00  0.00    +0.000 S 
ENDROOT
BRANCH   2   9
ATOM      9  C   UNL     1       5.058   4.436  16.995  0.00  0.00    +0.000 A 
ATOM     10  C   UNL     1       4.748   4.001  15.688  0.00  0.00    +0.000 A 
ATOM     11  C   UNL     1       5.600   4.268  14.621  0.00  0.00    +0.000 A 
ATOM     12  C   UNL     1       6.779   4.982  14.835  0.00  0.00    +0.000 A 
ATOM     13 CL   UNL     1       7.854   5.300  13.486  0.00  0.00    +0.000 Cl
ATOM     14  C   UNL     1       7.092   5.445  16.116  0.00  0.00    +0.000 A 
ATOM     15  C   UNL     1       6.231   5.185  17.191  0.00  0.00    +0.000 A 
ENDBRANCH   2   9
BRANCH   1  17
ATOM     16  N   UNL     1       2.717   7.339  18.635  0.00  0.00    +0.000 NA
ATOM     17  C   UNL     1       2.641   6.204  18.040  0.00  0.00    +0.000 C 
BRANCH  16  21
ATOM     18  N   UNL     1       1.062   9.277  19.750  0.00  0.00    +0.000 NA
ATOM     19  C   UNL     1       1.521   9.463  18.566  0.00  0.00    +0.000 C 
ATOM     20  N   UNL     1       1.231  10.665  17.862  0.00  0.00    +0.000 N 
ATOM     21  N   UNL     1       2.342   8.482  17.957  0.00  0.00    +0.000 N 
ATOM     22  H   UNL     1       0.471   9.983  20.214  0.00  0.00    +0.000 HD
ATOM     23  H   UNL     1       0.639  11.393  18.282  0.00  0.00    +0.000 HD
ATOM     24  H   UNL     1       1.611  10.818  16.917  0.00  0.00    +0.000 HD
ATOM     25  H   UNL     1       2.732   8.683  17.022  0.00  0.00    +0.000 HD
ENDBRANCH  16  21
ENDBRANCH   1  17
TORSDOF 3
ENDMDL
MODEL 5
REMARK VINA RESULT:      -7.5      4.111      6.496
REMARK  Name = 
REMARK  3 active torsions:
REMARK  status: ('A' for Active; 'I' for Inactive)
REMARK    1  A    between atoms: N_4  and  N_5
REMARK    2  A    between atoms: C_6  and  C_7
REMARK    3  A    between atoms: C_8  and  C_9
REMARK                            x       y       z     vdW  Elec       q    Type
REMARK                         _______ _______ _______ _____ _____    ______ ____
ROOT
ATOM      1  C   UNL     1       2.269   7.504  19.404  0.00  0.00    +0.000 A 
ATOM      2  C   UNL     1       2.796   7.623  18.113  0.00  0.00    +0.000 A 
ATOM      3  N   UNL     1       2.368   8.788  17.564  0.00  0.00    +0.000 NA
ATOM      4  C   UNL     1       1.582   9.320  18.517  0.00  0.00    +0.000 A 
ATOM      5  N   UNL     1       1.516   8.596  19.619  0.00  0.00    +0.000 N 
ATOM      6  C   UNL     1       0.688   9.118  20.679  0.00  0.00    +0.000 C 
ATOM      7  C   UNL     1       0.429  10.591  20.280  0.00  0.00    +0.000 C 
ATOM      8  S   UNL     1       0.568  10.774  18.451  0.00  0.00    +0.000 S 
ENDROOT
BRANCH   2   9
ATOM      9  C   UNL     1       3.627   6.629  17.384  0.00  0.00    +0.000 A 
ATOM     10  C   UNL     1       3.389   5.243  17.512  0.00  0.00    +0.000 A 
ATOM     11  C   UNL     1       4.176   4.314  16.839  0.00  0.00    +0.000 A 
ATOM     12  C   UNL     1       5.217   4.748  16.019  0.00  0.00    +0.000 A 
ATOM     13 CL   UNL     1       6.214   3.569  15.187  0.00  0.00    +0.000 Cl
ATOM     14  C   UNL     1       5.453   6.116  15.857  0.00  0.00    +0.000 A 
ATOM     15  C   UNL     1       4.656   7.055  16.526  0.00  0.00    +0.000 A 
ENDBRANCH   2   9
BRANCH   1  17
ATOM     16  N   UNL     1       1.681   5.483  20.621  0.00  0.00    +0.000 NA
ATOM     17  C   UNL     1       2.533   6.403  20.352  0.00  0.00    +0.000 C 
BRANCH  16  21
ATOM     18  N   UNL     1       0.587   2.934  20.397  0.00  0.00    +0.000 NA
ATOM     19  C   UNL     1       1.499   3.141  21.277  0.00  0.00    +0.000 C 
ATOM     20  N   UNL     1       1.977   2.071  22.083  0.00  0.00    +0.000 N 
ATOM     21  N   UNL     1       2.055   4.434  21.437  0.00  0.00    +0.000 N 
ATOM     22  H   UNL     1       0.177   1.999  20.258  0.00  0.00    +0.000 HD
ATOM     23  H   UNL     1       1.592   1.123  21.984  0.00  0.00    +0.000 HD
ATOM     24  H   UNL     1       2.718   2.235  22.779  0.00  0.00    +0.000 HD
ATOM     25  H   UNL     1       2.819   4.556  22.122  0.00  0.00    +0.000 HD
ENDBRANCH  16  21
ENDBRANCH   1  17
TORSDOF 3
ENDMDL
MODEL 6
REMARK VINA RESULT:      -7.5      4.123      6.457
REMARK  Name = 
REMARK  3 active torsions:
REMARK  status: ('A' for Active; 'I' for Inactive)
REMARK    1  A    between atoms: N_4  and  N_5
REMARK    2  A    between atoms: C_6  and  C_7
REMARK    3  A    between atoms: C_8  and  C_9
REMARK                            x       y       z     vdW  Elec       q    Type
REMARK                         _______ _______ _______ _____ _____    ______ ____
ROOT
ATOM      1  C   UNL     1       2.194   7.573  19.454  0.00  0.00    +0.000 A 
ATOM      2  C   UNL     1       2.745   7.680  18.172  0.00  0.00    +0.000 A 
ATOM      3  N   UNL     1       2.330   8.841  17.604  0.00  0.00    +0.000 NA
ATOM      4  C   UNL     1       1.528   9.383  18.539  0.00  0.00    +0.000 A 
ATOM      5  N   UNL     1       1.440   8.669  19.646  0.00  0.00    +0.000 N 
ATOM      6  C   UNL     1       0.595   9.203  20.686  0.00  0.00    +0.000 C 
ATOM      7  C   UNL     1       0.347  10.673  20.270  0.00  0.00    +0.000 C 
ATOM      8  S   UNL     1       0.519  10.839  18.441  0.00  0.00    +0.000 S 
ENDROOT
BRANCH   2   9
ATOM      9  C   UNL     1       3.587   6.677  17.466  0.00  0.00    +0.000 A 
ATOM     10  C   UNL     1       4.692   7.074  16.682  0.00  0.00    +0.000 A 
ATOM     11  C   UNL     1       5.470   6.135  16.012  0.00  0.00    +0.000 A 
ATOM     12  C   UNL     1       5.165   4.778  16.114  0.00  0.00    +0.000 A 
ATOM     13 CL   UNL     1       6.142   3.604  15.253  0.00  0.00    +0.000 Cl
ATOM     14  C   UNL     1       4.091   4.363  16.906  0.00  0.00    +0.000 A 
ATOM     15  C   UNL     1       3.311   5.305  17.590  0.00  0.00    +0.000 A 
ENDBRANCH   2   9
BRANCH   1  17
ATOM     16  N   UNL     1       1.672   5.459  20.535  0.00  0.00    +0.000 NA
ATOM     17  C   UNL     1       2.439   6.481  20.416  0.00  0.00    +0.000 C 
BRANCH  16  21
ATOM     18  N   UNL     1       0.552   2.916  20.402  0.00  0.00    +0.000 NA
ATOM     19  C   UNL     1       1.469   3.143  21.271  0.00  0.00    +0.000 C 
ATOM     20  N   UNL     1       1.939   2.096  22.111  0.00  0.00    +0.000 N 
ATOM     21  N   UNL     1       2.039   4.435  21.385  0.00  0.00    +0.000 N 
ATOM     22  H   UNL     1       0.132   1.980  20.296  0.00  0.00    +0.000 HD
ATOM     23  H   UNL     1       1.544   1.149  22.047  0.00  0.00    +0.000 HD
ATOM     24  H   UNL     1       2.685   2.277  22.799  0.00  0.00    +0.000 HD
ATOM     25  H   UNL     1       2.807   4.572  22.063  0.00  0.00    +0.000 HD
ENDBRANCH  16  21
ENDBRANCH   1  17
TORSDOF 3
ENDMDL
MODEL 7
REMARK VINA RESULT:      -7.3      2.518      4.642
REMARK  Name = 
REMARK  3 active torsions:
REMARK  status: ('A' for Active; 'I' for Inactive)
REMARK    1  A    between atoms: N_4  and  N_5
REMARK    2  A    between atoms: C_6  and  C_7
REMARK    3  A    between atoms: C_8  and  C_9
REMARK                            x       y       z     vdW  Elec       q    Type
REMARK                         _______ _______ _______ _____ _____    ______ ____
ROOT
ATOM      1  C   UNL     1       2.965   5.636  18.538  0.00  0.00    +0.000 A 
ATOM      2  C   UNL     1       2.942   6.990  18.183  0.00  0.00    +0.000 A 
ATOM      3  N   UNL     1       3.891   7.219  17.241  0.00  0.00    +0.000 NA
ATOM      4  C   UNL     1       4.470   6.017  17.073  0.00  0.00    +0.000 A 
ATOM      5  N   UNL     1       3.938   5.060  17.811  0.00  0.00    +0.000 N 
ATOM      6  C   UNL     1       4.518   3.747  17.672  0.00  0.00    +0.000 C 
ATOM      7  C   UNL     1       5.375   3.834  16.386  0.00  0.00    +0.000 C 
ATOM      8  S   UNL     1       5.887   5.582  16.097  0.00  0.00    +0.000 S 
ENDROOT
BRANCH   2   9
ATOM      9  C   UNL     1       2.094   8.061  18.771  0.00  0.00    +0.000 A 
ATOM     10  C   UNL     1       1.546   9.083  17.966  0.00  0.00    +0.000 A 
ATOM     11  C   UNL     1       0.764  10.092  18.520  0.00  0.00    +0.000 A 
ATOM     12  C   UNL     1       0.507  10.100  19.890  0.00  0.00    +0.000 A 
ATOM     13 CL   UNL     1      -0.467  11.384  20.581  0.00  0.00    +0.000 Cl
ATOM     14  C   UNL     1       1.018   9.083  20.701  0.00  0.00    +0.000 A 
ATOM     15  C   UNL     1       1.799   8.060  20.145  0.00  0.00    +0.000 A 
ENDBRANCH   2   9
BRANCH   1  17
ATOM     16  N   UNL     1       1.761   3.727  19.441  0.00  0.00    +0.000 NA
ATOM     17  C   UNL     1       2.058   4.974  19.496  0.00  0.00    +0.000 C 
BRANCH  16  21
ATOM     18  N   UNL     1       2.858   2.639  21.755  0.00  0.00    +0.000 NA
ATOM     19  C   UNL     1       1.580   2.653  21.623  0.00  0.00    +0.000 C 
ATOM     20  N   UNL     1       0.744   2.168  22.667  0.00  0.00    +0.000 N 
ATOM     21  N   UNL     1       0.991   3.171  20.444  0.00  0.00    +0.000 N 
ATOM     22  H   UNL     1       3.305   2.276  22.610  0.00  0.00    +0.000 HD
ATOM     23  H   UNL     1       1.146   1.789  23.533  0.00  0.00    +0.000 HD
ATOM     24  H   UNL     1      -0.281   2.192  22.564  0.00  0.00    +0.000 HD
ATOM     25  H   UNL     1      -0.040   3.209  20.388  0.00  0.00    +0.000 HD
ENDBRANCH  16  21
ENDBRANCH   1  17
TORSDOF 3
ENDMDL
MODEL 8
REMARK VINA RESULT:      -7.3      2.521      4.734
REMARK  Name = 
REMARK  3 active torsions:
REMARK  status: ('A' for Active; 'I' for Inactive)
REMARK    1  A    between atoms: N_4  and  N_5
REMARK    2  A    between atoms: C_6  and  C_7
REMARK    3  A    between atoms: C_8  and  C_9
REMARK                            x       y       z     vdW  Elec       q    Type
REMARK                         _______ _______ _______ _____ _____    ______ ____
ROOT
ATOM      1  C   UNL     1       2.972   5.831  18.742  0.00  0.00    +0.000 A 
ATOM      2  C   UNL     1       2.870   7.167  18.340  0.00  0.00    +0.000 A 
ATOM      3  N   UNL     1       3.815   7.423  17.401  0.00  0.00    +0.000 NA
ATOM      4  C   UNL     1       4.470   6.254  17.282  0.00  0.00    +0.000 A 
ATOM      5  N   UNL     1       3.989   5.293  18.047  0.00  0.00    +0.000 N 
ATOM      6  C   UNL     1       4.651   4.014  17.961  0.00  0.00    +0.000 C 
ATOM      7  C   UNL     1       5.518   4.111  16.683  0.00  0.00    +0.000 C 
ATOM      8  S   UNL     1       5.924   5.876  16.338  0.00  0.00    +0.000 S 
ENDROOT
BRANCH   2   9
ATOM      9  C   UNL     1       1.949   8.203  18.881  0.00  0.00    +0.000 A 
ATOM     10  C   UNL     1       1.623   8.246  20.254  0.00  0.00    +0.000 A 
ATOM     11  C   UNL     1       0.751   9.207  20.755  0.00  0.00    +0.000 A 
ATOM     12  C   UNL     1       0.188  10.151  19.897  0.00  0.00    +0.000 A 
ATOM     13 CL   UNL     1      -0.922  11.349  20.536  0.00  0.00    +0.000 Cl
ATOM     14  C   UNL     1       0.518  10.143  18.539  0.00  0.00    +0.000 A 
ATOM     15  C   UNL     1       1.404   9.181  18.033  0.00  0.00    +0.000 A 
ENDBRANCH   2   9
BRANCH   1  17
ATOM     16  N   UNL     1       1.626   3.966  19.531  0.00  0.00    +0.000 NA
ATOM     17  C   UNL     1       2.096   5.146  19.713  0.00  0.00    +0.000 C 
BRANCH  16  21
ATOM     18  N   UNL     1       2.832   2.657  21.670  0.00  0.00    +0.000 NA
ATOM     19  C   UNL     1       1.550   2.731  21.632  0.00  0.00    +0.000 C 
ATOM     20  N   UNL     1       0.768   2.199  22.695  0.00  0.00    +0.000 N 
ATOM     21  N   UNL     1       0.904   3.363  20.543  0.00  0.00    +0.000 N 
ATOM     22  H   UNL     1       3.321   2.210  22.459  0.00  0.00    +0.000 HD
ATOM     23  H   UNL     1       1.212   1.737  23.498  0.00  0.00    +0.000 HD
ATOM     24  H   UNL     1      -0.260   2.270  22.669  0.00  0.00    +0.000 HD
ATOM     25  H   UNL     1      -0.126   3.445  20.565  0.00  0.00    +0.000 HD
ENDBRANCH  16  21
ENDBRANCH   1  17
TORSDOF 3
ENDMDL
MODEL 9
REMARK VINA RESULT:      -7.2      3.694      4.329
REMARK  Name = 
REMARK  3 active torsions:
REMARK  status: ('A' for Active; 'I' for Inactive)
REMARK    1  A    between atoms: N_4  and  N_5
REMARK    2  A    between atoms: C_6  and  C_7
REMARK    3  A    between atoms: C_8  and  C_9
REMARK                            x       y       z     vdW  Elec       q    Type
REMARK                         _______ _______ _______ _____ _____    ______ ____
ROOT
ATOM      1  C   UNL     1       4.482   4.064  17.384  0.00  0.00    +0.000 A 
ATOM      2  C   UNL     1       5.031   4.865  18.391  0.00  0.00    +0.000 A 
ATOM      3  N   UNL     1       4.466   4.536  19.580  0.00  0.00    +0.000 NA
ATOM      4  C   UNL     1       3.582   3.574  19.256  0.00  0.00    +0.000 A 
ATOM      5  N   UNL     1       3.579   3.263  17.974  0.00  0.00    +0.000 N 
ATOM      6  C   UNL     1       2.652   2.234  17.567  0.00  0.00    +0.000 C 
ATOM      7  C   UNL     1       2.205   1.568  18.891  0.00  0.00    +0.000 C 
ATOM      8  S   UNL     1       2.379   2.767  20.281  0.00  0.00    +0.000 S 
ENDROOT
BRANCH   2   9
ATOM      9  C   UNL     1       6.016   5.967  18.229  0.00  0.00    +0.000 A 
ATOM     10  C   UNL     1       7.271   5.927  18.877  0.00  0.00    +0.000 A 
ATOM     11  C   UNL     1       8.185   6.967  18.735  0.00  0.00    +0.000 A 
ATOM     12  C   UNL     1       7.871   8.066  17.938  0.00  0.00    +0.000 A 
ATOM     13 CL   UNL     1       9.024   9.378  17.778  0.00  0.00    +0.000 Cl
ATOM     14  C   UNL     1       6.645   8.113  17.267  0.00  0.00    +0.000 A 
ATOM     15  C   UNL     1       5.726   7.064  17.401  0.00  0.00    +0.000 A 
ENDBRANCH   2   9
BRANCH   1  17
ATOM     16  N   UNL     1       5.992   3.647  15.524  0.00  0.00    +0.000 NA
ATOM     17  C   UNL     1       4.864   4.078  15.958  0.00  0.00    +0.000 C 
BRANCH  16  21
ATOM     18  N   UNL     1       7.609   5.484  14.200  0.00  0.00    +0.000 NA
ATOM     19  C   UNL     1       7.071   4.533  13.525  0.00  0.00    +0.000 C 
ATOM     20  N   UNL     1       7.343   4.395  12.135  0.00  0.00    +0.000 N 
ATOM     21  N   UNL     1       6.218   3.600  14.163  0.00  0.00    +0.000 N 
ATOM     22  H   UNL     1       8.240   6.168  13.756  0.00  0.00    +0.000 HD
ATOM     23  H   UNL     1       7.959   5.058  11.649  0.00  0.00    +0.000 HD
ATOM     24  H   UNL     1       6.921   3.624  11.598  0.00  0.00    +0.000 HD
ATOM     25  H   UNL     1       5.838   2.821  13.600  0.00  0.00    +0.000 HD
ENDBRANCH  16  21
ENDBRANCH   1  17
TORSDOF 3
ENDMDL
