MODEL 1
REMARK VINA RESULT:      -8.1      0.000      0.000
REMARK  Name = 
REMARK  2 active torsions:
REMARK  status: ('A' for Active; 'I' for Inactive)
REMARK    1  A    between atoms: C_1  and  C_2
REMARK    2  A    between atoms: C_6  and  C_7
REMARK                            x       y       z     vdW  Elec       q    Type
REMARK                         _______ _______ _______ _____ _____    ______ ____
ROOT
ATOM      1  C   UNL     1       0.546   2.307  18.908  0.00  0.00    +0.000 C 
ATOM      2  C   UNL     1       1.619   3.305  18.599  0.00  0.00    +0.000 A 
ATOM      3  C   UNL     1       2.609   3.044  17.658  0.00  0.00    +0.000 A 
ATOM      4  C   UNL     1       3.588   4.011  17.411  0.00  0.00    +0.000 A 
ATOM      5  C   UNL     1       3.550   5.221  18.156  0.00  0.00    +0.000 A 
ATOM      6  C   UNL     1       2.505   5.408  19.069  0.00  0.00    +0.000 A 
ATOM      7  C   UNL     1       2.349   6.658  19.891  0.00  0.00    +0.000 C 
ATOM      8  N   UNL     1       1.560   4.467  19.293  0.00  0.00    +0.000 NA
ATOM      9  C   UNL     1       4.583   6.308  17.949  0.00  0.00    +0.000 C 
ATOM     10  C   UNL     1       5.804   5.729  17.297  0.00  0.00    +0.000 C 
ATOM     11  C   UNL     1       6.830   6.682  16.780  0.00  0.00    +0.000 C 
ATOM     12  O   UNL     1       7.041   7.818  17.158  0.00  0.00    +0.000 OA
ATOM     13  N   UNL     1       7.489   6.000  15.799  0.00  0.00    +0.000 N 
ATOM     14  C   UNL     1       6.731   4.977  15.305  0.00  0.00    +0.000 C 
ATOM     15  O   UNL     1       7.017   4.277  14.345  0.00  0.00    +0.000 OA
ATOM     16  C   UNL     1       5.410   5.003  16.024  0.00  0.00    +0.000 C 
ATOM     17  C   UNL     1       4.686   3.723  16.385  0.00  0.00    +0.000 C 
ATOM     18  H   UNL     1       8.300   6.362  15.323  0.00  0.00    +0.000 HD
ENDROOT
TORSDOF 0
ENDMDL
MODEL 2
REMARK VINA RESULT:      -8.1      3.029      5.534
REMARK  Name = 
REMARK  2 active torsions:
REMARK  status: ('A' for Active; 'I' for Inactive)
REMARK    1  A    between atoms: C_1  and  C_2
REMARK    2  A    between atoms: C_6  and  C_7
REMARK                            x       y       z     vdW  Elec       q    Type
REMARK                         _______ _______ _______ _____ _____    ______ ____
ROOT
ATOM      1  C   UNL     1       6.868   4.749  14.507  0.00  0.00    +0.000 C 
ATOM      2  C   UNL     1       6.122   4.610  15.800  0.00  0.00    +0.000 A 
ATOM      3  C   UNL     1       4.849   4.054  15.851  0.00  0.00    +0.000 A 
ATOM      4  C   UNL     1       4.199   3.952  17.085  0.00  0.00    +0.000 A 
ATOM      5  C   UNL     1       4.857   4.448  18.242  0.00  0.00    +0.000 A 
ATOM      6  C   UNL     1       6.147   4.973  18.101  0.00  0.00    +0.000 A 
ATOM      7  C   UNL     1       6.949   5.501  19.259  0.00  0.00    +0.000 C 
ATOM      8  N   UNL     1       6.768   5.060  16.902  0.00  0.00    +0.000 NA
ATOM      9  C   UNL     1       4.210   4.379  19.609  0.00  0.00    +0.000 C 
ATOM     10  C   UNL     1       2.726   4.215  19.459  0.00  0.00    +0.000 C 
ATOM     11  C   UNL     1       1.940   3.874  20.682  0.00  0.00    +0.000 C 
ATOM     12  O   UNL     1       2.233   4.108  21.838  0.00  0.00    +0.000 OA
ATOM     13  N   UNL     1       0.817   3.251  20.222  0.00  0.00    +0.000 N 
ATOM     14  C   UNL     1       1.009   2.729  18.975  0.00  0.00    +0.000 C 
ATOM     15  O   UNL     1       0.219   2.020  18.370  0.00  0.00    +0.000 OA
ATOM     16  C   UNL     1       2.430   3.016  18.576  0.00  0.00    +0.000 C 
ATOM     17  C   UNL     1       2.793   3.352  17.144  0.00  0.00    +0.000 C 
ATOM     18  H   UNL     1       0.051   2.980  20.819  0.00  0.00    +0.000 HD
ENDROOT
TORSDOF 0
ENDMDL
MODEL 3
REMARK VINA RESULT:      -7.2      2.590      5.276
REMARK  Name = 
REMARK  2 active torsions:
REMARK  status: ('A' for Active; 'I' for Inactive)
REMARK    1  A    between atoms: C_1  and  C_2
REMARK    2  A    between atoms: C_6  and  C_7
REMARK                            x       y       z     vdW  Elec       q    Type
REMARK                         _______ _______ _______ _____ _____    ______ ____
ROOT
ATOM      1  C   UNL     1       6.993   4.426  13.751  0.00  0.00    +0.000 C 
ATOM      2  C   UNL     1       6.205   4.717  14.991  0.00  0.00    +0.000 A 
ATOM      3  C   UNL     1       5.137   3.917  15.381  0.00  0.00    +0.000 A 
ATOM      4  C   UNL     1       4.435   4.236  16.547  0.00  0.00    +0.000 A 
ATOM      5  C   UNL     1       4.825   5.390  17.280  0.00  0.00    +0.000 A 
ATOM      6  C   UNL     1       5.926   6.126  16.826  0.00  0.00    +0.000 A 
ATOM      7  C   UNL     1       6.445   7.347  17.535  0.00  0.00    +0.000 C 
ATOM      8  N   UNL     1       6.600   5.802  15.699  0.00  0.00    +0.000 NA
ATOM      9  C   UNL     1       4.106   5.802  18.546  0.00  0.00    +0.000 C 
ATOM     10  C   UNL     1       2.744   5.170  18.583  0.00  0.00    +0.000 C 
ATOM     11  C   UNL     1       1.980   5.248  19.863  0.00  0.00    +0.000 C 
ATOM     12  O   UNL     1       2.094   6.079  20.743  0.00  0.00    +0.000 OA
ATOM     13  N   UNL     1       1.119   4.190  19.829  0.00  0.00    +0.000 N 
ATOM     14  C   UNL     1       1.557   3.215  18.980  0.00  0.00    +0.000 C 
ATOM     15  O   UNL     1       1.051   2.111  18.841  0.00  0.00    +0.000 OA
ATOM     16  C   UNL     1       2.872   3.668  18.408  0.00  0.00    +0.000 C 
ATOM     17  C   UNL     1       3.251   3.366  16.973  0.00  0.00    +0.000 C 
ATOM     18  H   UNL     1       0.409   4.033  20.528  0.00  0.00    +0.000 HD
ENDROOT
TORSDOF 0
ENDMDL
MODEL 4
REMARK VINA RESULT:      -7.1      3.518      5.657
REMARK  Name = 
REMARK  2 active torsions:
REMARK  status: ('A' for Active; 'I' for Inactive)
REMARK    1  A    between atoms: C_1  and  C_2
REMARK    2  A    between atoms: C_6  and  C_7
REMARK                            x       y       z     vdW  Elec       q    Type
REMARK                         _______ _______ _______ _____ _____    ______ ____
ROOT
ATOM      1  C   UNL     1       1.838   9.684  17.938  0.00  0.00    +0.000 C 
ATOM      2  C   UNL     1       2.367   8.304  18.185  0.00  0.00    +0.000 A 
ATOM      3  C   UNL     1       1.878   7.510  19.216  0.00  0.00    +0.000 A 
ATOM      4  C   UNL     1       2.409   6.231  19.403  0.00  0.00    +0.000 A 
ATOM      5  C   UNL     1       3.455   5.798  18.543  0.00  0.00    +0.000 A 
ATOM      6  C   UNL     1       3.871   6.654  17.517  0.00  0.00    +0.000 A 
ATOM      7  C   UNL     1       4.947   6.292  16.531  0.00  0.00    +0.000 C 
ATOM      8  N   UNL     1       3.343   7.888  17.343  0.00  0.00    +0.000 NA
ATOM      9  C   UNL     1       4.084   4.429  18.691  0.00  0.00    +0.000 C 
ATOM     10  C   UNL     1       3.819   3.897  20.070  0.00  0.00    +0.000 C 
ATOM     11  C   UNL     1       4.136   2.462  20.331  0.00  0.00    +0.000 C 
ATOM     12  O   UNL     1       4.945   1.766  19.748  0.00  0.00    +0.000 OA
ATOM     13  N   UNL     1       3.330   2.102  21.371  0.00  0.00    +0.000 N 
ATOM     14  C   UNL     1       2.244   2.922  21.470  0.00  0.00    +0.000 C 
ATOM     15  O   UNL     1       1.300   2.766  22.230  0.00  0.00    +0.000 OA
ATOM     16  C   UNL     1       2.328   3.923  20.351  0.00  0.00    +0.000 C 
ATOM     17  C   UNL     1       1.884   5.359  20.545  0.00  0.00    +0.000 C 
ATOM     18  H   UNL     1       3.385   1.204  21.827  0.00  0.00    +0.000 HD
ENDROOT
TORSDOF 0
ENDMDL
MODEL 5
REMARK VINA RESULT:      -7.1      0.963      2.886
REMARK  Name = 
REMARK  2 active torsions:
REMARK  status: ('A' for Active; 'I' for Inactive)
REMARK    1  A    between atoms: C_1  and  C_2
REMARK    2  A    between atoms: C_6  and  C_7
REMARK                            x       y       z     vdW  Elec       q    Type
REMARK                         _______ _______ _______ _____ _____    ______ ____
ROOT
ATOM      1  C   UNL     1       1.323   5.365  20.933  0.00  0.00    +0.000 C 
ATOM      2  C   UNL     1       2.236   4.995  19.803  0.00  0.00    +0.000 A 
ATOM      3  C   UNL     1       3.290   5.816  19.419  0.00  0.00    +0.000 A 
ATOM      4  C   UNL     1       4.109   5.423  18.356  0.00  0.00    +0.000 A 
ATOM      5  C   UNL     1       3.813   4.204  17.687  0.00  0.00    +0.000 A 
ATOM      6  C   UNL     1       2.745   3.430  18.154  0.00  0.00    +0.000 A 
ATOM      7  C   UNL     1       2.358   2.111  17.542  0.00  0.00    +0.000 C 
ATOM      8  N   UNL     1       1.965   3.819  19.188  0.00  0.00    +0.000 NA
ATOM      9  C   UNL     1       4.651   3.720  16.522  0.00  0.00    +0.000 C 
ATOM     10  C   UNL     1       5.410   4.872  15.931  0.00  0.00    +0.000 C 
ATOM     11  C   UNL     1       6.482   4.558  14.940  0.00  0.00    +0.000 C 
ATOM     12  O   UNL     1       6.567   3.576  14.229  0.00  0.00    +0.000 OA
ATOM     13  N   UNL     1       7.340   5.617  14.996  0.00  0.00    +0.000 N 
ATOM     14  C   UNL     1       7.236   6.284  16.183  0.00  0.00    +0.000 C 
ATOM     15  O   UNL     1       7.961   7.195  16.554  0.00  0.00    +0.000 OA
ATOM     16  C   UNL     1       6.210   5.568  17.017  0.00  0.00    +0.000 C 
ATOM     17  C   UNL     1       5.262   6.329  17.922  0.00  0.00    +0.000 C 
ATOM     18  H   UNL     1       8.123   5.727  14.371  0.00  0.00    +0.000 HD
ENDROOT
TORSDOF 0
ENDMDL
MODEL 6
REMARK VINA RESULT:      -6.9      2.718      4.128
REMARK  Name = 
REMARK  2 active torsions:
REMARK  status: ('A' for Active; 'I' for Inactive)
REMARK    1  A    between atoms: C_1  and  C_2
REMARK    2  A    between atoms: C_6  and  C_7
REMARK                            x       y       z     vdW  Elec       q    Type
REMARK                         _______ _______ _______ _____ _____    ______ ____
ROOT
ATOM      1  C   UNL     1      -0.010   8.908  22.068  0.00  0.00    +0.000 C 
ATOM      2  C   UNL     1       0.844   8.518  20.900  0.00  0.00    +0.000 A 
ATOM      3  C   UNL     1       1.453   7.270  20.827  0.00  0.00    +0.000 A 
ATOM      4  C   UNL     1       2.241   6.960  19.715  0.00  0.00    +0.000 A 
ATOM      5  C   UNL     1       2.413   7.948  18.708  0.00  0.00    +0.000 A 
ATOM      6  C   UNL     1       1.744   9.169  18.852  0.00  0.00    +0.000 A 
ATOM      7  C   UNL     1       1.829  10.276  17.838  0.00  0.00    +0.000 C 
ATOM      8  N   UNL     1       0.980   9.454  19.931  0.00  0.00    +0.000 NA
ATOM      9  C   UNL     1       3.259   7.685  17.480  0.00  0.00    +0.000 C 
ATOM     10  C   UNL     1       4.201   6.548  17.748  0.00  0.00    +0.000 C 
ATOM     11  C   UNL     1       4.939   5.972  16.586  0.00  0.00    +0.000 C 
ATOM     12  O   UNL     1       5.217   6.525  15.539  0.00  0.00    +0.000 OA
ATOM     13  N   UNL     1       5.243   4.694  16.954  0.00  0.00    +0.000 N 
ATOM     14  C   UNL     1       4.406   4.242  17.933  0.00  0.00    +0.000 C 
ATOM     15  O   UNL     1       4.370   3.102  18.370  0.00  0.00    +0.000 OA
ATOM     16  C   UNL     1       3.420   5.338  18.228  0.00  0.00    +0.000 C 
ATOM     17  C   UNL     1       2.924   5.593  19.636  0.00  0.00    +0.000 C 
ATOM     18  H   UNL     1       5.820   4.082  16.398  0.00  0.00    +0.000 HD
ENDROOT
TORSDOF 0
ENDMDL
MODEL 7
REMARK VINA RESULT:      -6.9      2.618      5.948
REMARK  Name = 
REMARK  2 active torsions:
REMARK  status: ('A' for Active; 'I' for Inactive)
REMARK    1  A    between atoms: C_1  and  C_2
REMARK    2  A    between atoms: C_6  and  C_7
REMARK                            x       y       z     vdW  Elec       q    Type
REMARK                         _______ _______ _______ _____ _____    ______ ____
ROOT
ATOM      1  C   UNL     1       7.868   8.014  17.410  0.00  0.00    +0.000 C 
ATOM      2  C   UNL     1       6.818   6.948  17.331  0.00  0.00    +0.000 A 
ATOM      3  C   UNL     1       5.836   6.820  18.306  0.00  0.00    +0.000 A 
ATOM      4  C   UNL     1       4.882   5.805  18.183  0.00  0.00    +0.000 A 
ATOM      5  C   UNL     1       4.970   4.920  17.074  0.00  0.00    +0.000 A 
ATOM      6  C   UNL     1       5.980   5.136  16.129  0.00  0.00    +0.000 A 
ATOM      7  C   UNL     1       6.153   4.282  14.903  0.00  0.00    +0.000 C 
ATOM      8  N   UNL     1       6.893   6.127  16.257  0.00  0.00    +0.000 NA
ATOM      9  C   UNL     1       3.978   3.793  16.882  0.00  0.00    +0.000 C 
ATOM     10  C   UNL     1       3.306   3.483  18.188  0.00  0.00    +0.000 C 
ATOM     11  C   UNL     1       2.118   2.579  18.156  0.00  0.00    +0.000 C 
ATOM     12  O   UNL     1       1.854   1.734  17.323  0.00  0.00    +0.000 OA
ATOM     13  N   UNL     1       1.397   2.898  19.269  0.00  0.00    +0.000 N 
ATOM     14  C   UNL     1       1.687   4.158  19.710  0.00  0.00    +0.000 C 
ATOM     15  O   UNL     1       1.111   4.748  20.611  0.00  0.00    +0.000 OA
ATOM     16  C   UNL     1       2.697   4.747  18.764  0.00  0.00    +0.000 C 
ATOM     17  C   UNL     1       3.806   5.652  19.260  0.00  0.00    +0.000 C 
ATOM     18  H   UNL     1       0.578   2.389  19.562  0.00  0.00    +0.000 HD
ENDROOT
TORSDOF 0
ENDMDL
MODEL 8
REMARK VINA RESULT:      -6.9      1.983      2.337
REMARK  Name = 
REMARK  2 active torsions:
REMARK  status: ('A' for Active; 'I' for Inactive)
REMARK    1  A    between atoms: C_1  and  C_2
REMARK    2  A    between atoms: C_6  and  C_7
REMARK                            x       y       z     vdW  Elec       q    Type
REMARK                         _______ _______ _______ _____ _____    ______ ____
ROOT
ATOM      1  C   UNL     1       1.486   2.546  21.694  0.00  0.00    +0.000 C 
ATOM      2  C   UNL     1       2.173   3.116  20.491  0.00  0.00    +0.000 A 
ATOM      3  C   UNL     1       3.559   3.203  20.416  0.00  0.00    +0.000 A 
ATOM      4  C   UNL     1       4.148   3.746  19.270  0.00  0.00    +0.000 A 
ATOM      5  C   UNL     1       3.301   4.216  18.230  0.00  0.00    +0.000 A 
ATOM      6  C   UNL     1       1.917   4.070  18.381  0.00  0.00    +0.000 A 
ATOM      7  C   UNL     1       0.927   4.505  17.335  0.00  0.00    +0.000 C 
ATOM      8  N   UNL     1       1.361   3.536  19.492  0.00  0.00    +0.000 NA
ATOM      9  C   UNL     1       3.867   4.824  16.965  0.00  0.00    +0.000 C 
ATOM     10  C   UNL     1       5.276   5.281  17.210  0.00  0.00    +0.000 C 
ATOM     11  C   UNL     1       6.092   5.674  16.023  0.00  0.00    +0.000 C 
ATOM     12  O   UNL     1       5.688   6.077  14.949  0.00  0.00    +0.000 OA
ATOM     13  N   UNL     1       7.389   5.495  16.406  0.00  0.00    +0.000 N 
ATOM     14  C   UNL     1       7.487   4.610  17.441  0.00  0.00    +0.000 C 
ATOM     15  O   UNL     1       8.528   4.172  17.908  0.00  0.00    +0.000 OA
ATOM     16  C   UNL     1       6.098   4.131  17.762  0.00  0.00    +0.000 C 
ATOM     17  C   UNL     1       5.671   3.855  19.189  0.00  0.00    +0.000 C 
ATOM     18  H   UNL     1       8.176   5.762  15.835  0.00  0.00    +0.000 HD
ENDROOT
TORSDOF 0
ENDMDL
MODEL 9
REMARK VINA RESULT:      -6.9      1.418      1.486
REMARK  Name = 
REMARK  2 active torsions:
REMARK  status: ('A' for Active; 'I' for Inactive)
REMARK    1  A    between atoms: C_1  and  C_2
REMARK    2  A    between atoms: C_6  and  C_7
REMARK                            x       y       z     vdW  Elec       q    Type
REMARK                         _______ _______ _______ _____ _____    ______ ____
ROOT
ATOM      1  C   UNL     1       1.378   2.511  21.617  0.00  0.00    +0.000 C 
ATOM      2  C   UNL     1       2.049   3.427  20.639  0.00  0.00    +0.000 A 
ATOM      3  C   UNL     1       2.884   2.941  19.639  0.00  0.00    +0.000 A 
ATOM      4  C   UNL     1       3.486   3.842  18.755  0.00  0.00    +0.000 A 
ATOM      5  C   UNL     1       3.242   5.231  18.930  0.00  0.00    +0.000 A 
ATOM      6  C   UNL     1       2.371   5.630  19.951  0.00  0.00    +0.000 A 
ATOM      7  C   UNL     1       2.017   7.069  20.211  0.00  0.00    +0.000 C 
ATOM      8  N   UNL     1       1.789   4.747  20.795  0.00  0.00    +0.000 NA
ATOM      9  C   UNL     1       3.867   6.264  18.017  0.00  0.00    +0.000 C 
ATOM     10  C   UNL     1       5.064   5.673  17.330  0.00  0.00    +0.000 C 
ATOM     11  C   UNL     1       5.665   6.446  16.203  0.00  0.00    +0.000 C 
ATOM     12  O   UNL     1       5.608   7.646  16.016  0.00  0.00    +0.000 OA
ATOM     13  N   UNL     1       6.301   5.517  15.432  0.00  0.00    +0.000 N 
ATOM     14  C   UNL     1       5.788   4.267  15.630  0.00  0.00    +0.000 C 
ATOM     15  O   UNL     1       6.082   3.267  14.993  0.00  0.00    +0.000 OA
ATOM     16  C   UNL     1       4.668   4.389  16.626  0.00  0.00    +0.000 C 
ATOM     17  C   UNL     1       4.416   3.312  17.662  0.00  0.00    +0.000 C 
ATOM     18  H   UNL     1       6.875   5.756  14.639  0.00  0.00    +0.000 HD
ENDROOT
TORSDOF 0
ENDMDL
