MODEL 1
REMARK VINA RESULT:      -7.2      0.000      0.000
REMARK  Name = 
REMARK  11 active torsions:
REMARK  status: ('A' for Active; 'I' for Inactive)
REMARK    1  A    between atoms: C_1  and  C_2
REMARK    2  A    between atoms: C_2  and  O_3
REMARK    3  A    between atoms: O_3  and  C_4
REMARK    4  A    between atoms: C_4  and  C_6
REMARK    5  A    between atoms: C_7  and  C_8
REMARK    6  A    between atoms: C_10  and  C_11
REMARK    7  A    between atoms: C_17  and  C_18
REMARK    8  A    between atoms: C_18  and  C_20
REMARK    9  A    between atoms: C_24  and  O_25
REMARK   10  A    between atoms: O_25  and  C_26
REMARK   11  A    between atoms: C_29  and  C_30
REMARK                            x       y       z     vdW  Elec       q    Type
REMARK                         _______ _______ _______ _____ _____    ______ ____
ROOT
ATOM      1  C   UNL     1       7.341   4.705  16.563  0.00  0.00    +0.000 C 
ATOM      2  O   UNL     1       8.370   4.225  17.040  0.00  0.00    +0.000 OA
ATOM      3  N   UNL     1       6.485   5.471  17.365  0.00  0.00    +0.000 N 
ATOM      4  C   UNL     1       6.961   5.888  18.683  0.00  0.00    +0.000 C 
ATOM      5  C   UNL     1       6.139   5.237  19.790  0.00  0.00    +0.000 C 
ATOM      6  C   UNL     1       4.653   5.546  19.610  0.00  0.00    +0.000 C 
ATOM      7  C   UNL     1       4.174   5.122  18.213  0.00  0.00    +0.000 C 
ATOM      8  C   UNL     1       5.063   5.728  17.120  0.00  0.00    +0.000 C 
ENDROOT
BRANCH   1  13
ATOM      9  C   UNL     1       6.176   3.819  13.128  0.00  0.00    +0.000 A 
ATOM     10  C   UNL     1       7.100   4.835  12.910  0.00  0.00    +0.000 A 
ATOM     11  C   UNL     1       7.559   5.536  11.680  0.00  0.00    +0.000 C 
ATOM     12  N   UNL     1       7.648   5.165  14.120  0.00  0.00    +0.000 N 
ATOM     13  C   UNL     1       7.009   4.525  15.155  0.00  0.00    +0.000 A 
ATOM     14  C   UNL     1       6.131   3.615  14.563  0.00  0.00    +0.000 A 
ATOM     15  C   UNL     1       5.280   2.610  15.275  0.00  0.00    +0.000 C 
ATOM     16  H   UNL     1       8.402   5.827  14.244  0.00  0.00    +0.000 HD
BRANCH   9  17
ATOM     17  C   UNL     1       5.388   3.152  12.083  0.00  0.00    +0.000 C 
ATOM     18  O   UNL     1       5.622   2.026  11.662  0.00  0.00    +0.000 OA
BRANCH  17  19
ATOM     19  O   UNL     1       4.426   3.967  11.561  0.00  0.00    +0.000 OA
BRANCH  19  21
ATOM     20  C   UNL     1       2.981   4.241   9.686  0.00  0.00    +0.000 C 
ATOM     21  C   UNL     1       3.398   3.312  10.811  0.00  0.00    +0.000 C 
ENDBRANCH  19  21
ENDBRANCH  17  19
ENDBRANCH   9  17
ENDBRANCH   1  13
BRANCH   7  22
ATOM     22  C   UNL     1       2.738   5.569  17.953  0.00  0.00    +0.000 C 
ATOM     23  O   UNL     1       1.937   4.833  17.376  0.00  0.00    +0.000 OA
BRANCH  22  24
ATOM     24  C   UNL     1       2.257   6.890  18.473  0.00  0.00    +0.000 A 
ATOM     25  C   UNL     1       2.129   7.951  17.566  0.00  0.00    +0.000 A 
ATOM     26  C   UNL     1       1.678   9.198  17.998  0.00  0.00    +0.000 A 
ATOM     27  C   UNL     1       1.353   9.391  19.341  0.00  0.00    +0.000 A 
ATOM     28  C   UNL     1       1.475   8.345  20.256  0.00  0.00    +0.000 A 
ATOM     29  C   UNL     1       1.925   7.096  19.821  0.00  0.00    +0.000 A 
BRANCH  28  30
ATOM     30  O   UNL     1       1.121   8.664  21.538  0.00  0.00    +0.000 OA
ATOM     31  C   UNL     1      -0.268   8.804  21.816  0.00  0.00    +0.000 C 
ENDBRANCH  28  30
ENDBRANCH  22  24
ENDBRANCH   7  22
TORSDOF 7
ENDMDL
MODEL 2
REMARK VINA RESULT:      -7.2      2.926      4.818
REMARK  Name = 
REMARK  11 active torsions:
REMARK  status: ('A' for Active; 'I' for Inactive)
REMARK    1  A    between atoms: C_1  and  C_2
REMARK    2  A    between atoms: C_2  and  O_3
REMARK    3  A    between atoms: O_3  and  C_4
REMARK    4  A    between atoms: C_4  and  C_6
REMARK    5  A    between atoms: C_7  and  C_8
REMARK    6  A    between atoms: C_10  and  C_11
REMARK    7  A    between atoms: C_17  and  C_18
REMARK    8  A    between atoms: C_18  and  C_20
REMARK    9  A    between atoms: C_24  and  O_25
REMARK   10  A    between atoms: O_25  and  C_26
REMARK   11  A    between atoms: C_29  and  C_30
REMARK                            x       y       z     vdW  Elec       q    Type
REMARK                         _______ _______ _______ _____ _____    ______ ____
ROOT
ATOM      1  C   UNL     1       3.972   3.026  18.532  0.00  0.00    +0.000 C 
ATOM      2  O   UNL     1       3.711   1.962  17.972  0.00  0.00    +0.000 OA
ATOM      3  N   UNL     1       3.173   3.480  19.589  0.00  0.00    +0.000 N 
ATOM      4  C   UNL     1       2.196   2.555  20.164  0.00  0.00    +0.000 C 
ATOM      5  C   UNL     1       0.773   3.041  19.912  0.00  0.00    +0.000 C 
ATOM      6  C   UNL     1       0.585   4.458  20.454  0.00  0.00    +0.000 C 
ATOM      7  C   UNL     1       1.631   5.412  19.858  0.00  0.00    +0.000 C 
ATOM      8  C   UNL     1       3.050   4.864  20.055  0.00  0.00    +0.000 C 
ENDROOT
BRANCH   1  13
ATOM      9  C   UNL     1       6.727   5.041  17.018  0.00  0.00    +0.000 A 
ATOM     10  C   UNL     1       7.141   4.852  18.332  0.00  0.00    +0.000 A 
ATOM     11  C   UNL     1       8.326   5.330  19.095  0.00  0.00    +0.000 C 
ATOM     12  N   UNL     1       6.224   4.042  18.944  0.00  0.00    +0.000 N 
ATOM     13  C   UNL     1       5.132   3.818  18.140  0.00  0.00    +0.000 A 
ATOM     14  C   UNL     1       5.449   4.367  16.897  0.00  0.00    +0.000 A 
ATOM     15  C   UNL     1       4.617   4.289  15.654  0.00  0.00    +0.000 C 
ATOM     16  H   UNL     1       6.317   3.685  19.886  0.00  0.00    +0.000 HD
BRANCH   9  17
ATOM     17  C   UNL     1       7.450   5.822  16.005  0.00  0.00    +0.000 C 
ATOM     18  O   UNL     1       7.638   5.445  14.855  0.00  0.00    +0.000 OA
BRANCH  17  19
ATOM     19  O   UNL     1       7.978   6.971  16.517  0.00  0.00    +0.000 OA
BRANCH  19  21
ATOM     20  C   UNL     1       7.858   8.917  17.888  0.00  0.00    +0.000 C 
ATOM     21  C   UNL     1       7.057   7.827  17.200  0.00  0.00    +0.000 C 
ENDBRANCH  19  21
ENDBRANCH  17  19
ENDBRANCH   9  17
ENDBRANCH   1  13
BRANCH   7  22
ATOM     22  C   UNL     1       1.565   6.792  20.506  0.00  0.00    +0.000 C 
ATOM     23  O   UNL     1       1.533   6.918  21.731  0.00  0.00    +0.000 OA
BRANCH  22  24
ATOM     24  C   UNL     1       1.620   8.024  19.657  0.00  0.00    +0.000 A 
ATOM     25  C   UNL     1       2.281   7.949  18.423  0.00  0.00    +0.000 A 
ATOM     26  C   UNL     1       2.353   9.067  17.592  0.00  0.00    +0.000 A 
ATOM     27  C   UNL     1       1.765  10.267  17.990  0.00  0.00    +0.000 A 
ATOM     28  C   UNL     1       1.102  10.358  19.215  0.00  0.00    +0.000 A 
ATOM     29  C   UNL     1       1.029   9.237  20.045  0.00  0.00    +0.000 A 
BRANCH  28  30
ATOM     30  O   UNL     1       0.567  11.588  19.484  0.00  0.00    +0.000 OA
ATOM     31  C   UNL     1       1.331  12.466  20.303  0.00  0.00    +0.000 C 
ENDBRANCH  28  30
ENDBRANCH  22  24
ENDBRANCH   7  22
TORSDOF 7
ENDMDL
MODEL 3
REMARK VINA RESULT:      -7.0      2.507      4.425
REMARK  Name = 
REMARK  11 active torsions:
REMARK  status: ('A' for Active; 'I' for Inactive)
REMARK    1  A    between atoms: C_1  and  C_2
REMARK    2  A    between atoms: C_2  and  O_3
REMARK    3  A    between atoms: O_3  and  C_4
REMARK    4  A    between atoms: C_4  and  C_6
REMARK    5  A    between atoms: C_7  and  C_8
REMARK    6  A    between atoms: C_10  and  C_11
REMARK    7  A    between atoms: C_17  and  C_18
REMARK    8  A    between atoms: C_18  and  C_20
REMARK    9  A    between atoms: C_24  and  O_25
REMARK   10  A    between atoms: O_25  and  C_26
REMARK   11  A    between atoms: C_29  and  C_30
REMARK                            x       y       z     vdW  Elec       q    Type
REMARK                         _______ _______ _______ _____ _____    ______ ____
ROOT
ATOM      1  C   UNL     1       3.992   2.997  18.891  0.00  0.00    +0.000 C 
ATOM      2  O   UNL     1       3.768   1.877  18.430  0.00  0.00    +0.000 OA
ATOM      3  N   UNL     1       3.181   3.513  19.910  0.00  0.00    +0.000 N 
ATOM      4  C   UNL     1       2.242   2.609  20.572  0.00  0.00    +0.000 C 
ATOM      5  C   UNL     1       0.801   3.018  20.290  0.00  0.00    +0.000 C 
ATOM      6  C   UNL     1       0.563   4.470  20.704  0.00  0.00    +0.000 C 
ATOM      7  C   UNL     1       1.571   5.405  20.017  0.00  0.00    +0.000 C 
ATOM      8  C   UNL     1       3.010   4.928  20.251  0.00  0.00    +0.000 C 
ENDROOT
BRANCH   1  13
ATOM      9  C   UNL     1       6.683   4.937  17.178  0.00  0.00    +0.000 A 
ATOM     10  C   UNL     1       7.063   4.957  18.515  0.00  0.00    +0.000 A 
ATOM     11  C   UNL     1       8.195   5.604  19.233  0.00  0.00    +0.000 C 
ATOM     12  N   UNL     1       6.171   4.189  19.212  0.00  0.00    +0.000 N 
ATOM     13  C   UNL     1       5.120   3.791  18.421  0.00  0.00    +0.000 A 
ATOM     14  C   UNL     1       5.448   4.179  17.121  0.00  0.00    +0.000 A 
ATOM     15  C   UNL     1       4.663   3.881  15.881  0.00  0.00    +0.000 C 
ATOM     16  H   UNL     1       6.252   3.972  20.197  0.00  0.00    +0.000 HD
BRANCH   9  17
ATOM     17  C   UNL     1       7.397   5.609  16.083  0.00  0.00    +0.000 C 
ATOM     18  O   UNL     1       7.599   6.817  16.038  0.00  0.00    +0.000 OA
BRANCH  17  19
ATOM     19  O   UNL     1       7.721   4.753  15.073  0.00  0.00    +0.000 OA
BRANCH  19  21
ATOM     20  C   UNL     1       6.710   3.992  13.054  0.00  0.00    +0.000 C 
ATOM     21  C   UNL     1       7.348   5.175  13.758  0.00  0.00    +0.000 C 
ENDBRANCH  19  21
ENDBRANCH  17  19
ENDBRANCH   9  17
ENDBRANCH   1  13
BRANCH   7  22
ATOM     22  C   UNL     1       1.457   6.833  20.541  0.00  0.00    +0.000 C 
ATOM     23  O   UNL     1       1.297   7.060  21.741  0.00  0.00    +0.000 OA
BRANCH  22  24
ATOM     24  C   UNL     1       1.621   7.991  19.605  0.00  0.00    +0.000 A 
ATOM     25  C   UNL     1       2.359   7.793  18.429  0.00  0.00    +0.000 A 
ATOM     26  C   UNL     1       2.534   8.837  17.521  0.00  0.00    +0.000 A 
ATOM     27  C   UNL     1       1.973  10.087  17.785  0.00  0.00    +0.000 A 
ATOM     28  C   UNL     1       1.236  10.301  18.949  0.00  0.00    +0.000 A 
ATOM     29  C   UNL     1       1.059   9.253  19.857  0.00  0.00    +0.000 A 
BRANCH  28  30
ATOM     30  O   UNL     1       0.737  11.567  19.086  0.00  0.00    +0.000 OA
ATOM     31  C   UNL     1       1.658  12.646  18.968  0.00  0.00    +0.000 C 
ENDBRANCH  28  30
ENDBRANCH  22  24
ENDBRANCH   7  22
TORSDOF 7
ENDMDL
MODEL 4
REMARK VINA RESULT:      -6.9      0.888      1.501
REMARK  Name = 
REMARK  11 active torsions:
REMARK  status: ('A' for Active; 'I' for Inactive)
REMARK    1  A    between atoms: C_1  and  C_2
REMARK    2  A    between atoms: C_2  and  O_3
REMARK    3  A    between atoms: O_3  and  C_4
REMARK    4  A    between atoms: C_4  and  C_6
REMARK    5  A    between atoms: C_7  and  C_8
REMARK    6  A    between atoms: C_10  and  C_11
REMARK    7  A    between atoms: C_17  and  C_18
REMARK    8  A    between atoms: C_18  and  C_20
REMARK    9  A    between atoms: C_24  and  O_25
REMARK   10  A    between atoms: O_25  and  C_26
REMARK   11  A    between atoms: C_29  and  C_30
REMARK                            x       y       z     vdW  Elec       q    Type
REMARK                         _______ _______ _______ _____ _____    ______ ____
ROOT
ATOM      1  C   UNL     1       7.363   4.707  16.593  0.00  0.00    +0.000 C 
ATOM      2  O   UNL     1       8.398   4.235  17.063  0.00  0.00    +0.000 OA
ATOM      3  N   UNL     1       6.503   5.461  17.402  0.00  0.00    +0.000 N 
ATOM      4  C   UNL     1       6.980   5.877  18.721  0.00  0.00    +0.000 C 
ATOM      5  C   UNL     1       6.170   5.212  19.828  0.00  0.00    +0.000 C 
ATOM      6  C   UNL     1       4.680   5.508  19.655  0.00  0.00    +0.000 C 
ATOM      7  C   UNL     1       4.199   5.086  18.259  0.00  0.00    +0.000 C 
ATOM      8  C   UNL     1       5.078   5.705  17.165  0.00  0.00    +0.000 C 
ENDROOT
BRANCH   1  13
ATOM      9  C   UNL     1       6.189   3.828  13.159  0.00  0.00    +0.000 A 
ATOM     10  C   UNL     1       7.110   4.847  12.942  0.00  0.00    +0.000 A 
ATOM     11  C   UNL     1       7.562   5.553  11.712  0.00  0.00    +0.000 C 
ATOM     12  N   UNL     1       7.660   5.175  14.151  0.00  0.00    +0.000 N 
ATOM     13  C   UNL     1       7.027   4.530  15.186  0.00  0.00    +0.000 A 
ATOM     14  C   UNL     1       6.150   3.620  14.594  0.00  0.00    +0.000 A 
ATOM     15  C   UNL     1       5.304   2.610  15.306  0.00  0.00    +0.000 C 
ATOM     16  H   UNL     1       8.413   5.839  14.274  0.00  0.00    +0.000 HD
BRANCH   9  17
ATOM     17  C   UNL     1       5.399   3.162  12.115  0.00  0.00    +0.000 C 
ATOM     18  O   UNL     1       5.706   2.094  11.600  0.00  0.00    +0.000 OA
BRANCH  17  19
ATOM     19  O   UNL     1       4.338   3.916  11.709  0.00  0.00    +0.000 OA
BRANCH  19  21
ATOM     20  C   UNL     1       3.043   4.233   9.734  0.00  0.00    +0.000 C 
ATOM     21  C   UNL     1       3.407   3.262  10.841  0.00  0.00    +0.000 C 
ENDBRANCH  19  21
ENDBRANCH  17  19
ENDBRANCH   9  17
ENDBRANCH   1  13
BRANCH   7  22
ATOM     22  C   UNL     1       2.758   5.520  18.007  0.00  0.00    +0.000 C 
ATOM     23  O   UNL     1       1.973   4.796  17.394  0.00  0.00    +0.000 OA
BRANCH  22  24
ATOM     24  C   UNL     1       2.252   6.810  18.578  0.00  0.00    +0.000 A 
ATOM     25  C   UNL     1       1.907   6.842  19.937  0.00  0.00    +0.000 A 
ATOM     26  C   UNL     1       1.438   8.020  20.518  0.00  0.00    +0.000 A 
ATOM     27  C   UNL     1       1.311   9.173  19.743  0.00  0.00    +0.000 A 
ATOM     28  C   UNL     1       1.650   9.158  18.390  0.00  0.00    +0.000 A 
ATOM     29  C   UNL     1       2.122   7.977  17.810  0.00  0.00    +0.000 A 
BRANCH  28  30
ATOM     30  O   UNL     1       1.483  10.353  17.745  0.00  0.00    +0.000 OA
ATOM     31  C   UNL     1       2.225  11.466  18.234  0.00  0.00    +0.000 C 
ENDBRANCH  28  30
ENDBRANCH  22  24
ENDBRANCH   7  22
TORSDOF 7
ENDMDL
MODEL 5
REMARK VINA RESULT:      -6.9      8.860     11.699
REMARK  Name = 
REMARK  11 active torsions:
REMARK  status: ('A' for Active; 'I' for Inactive)
REMARK    1  A    between atoms: C_1  and  C_2
REMARK    2  A    between atoms: C_2  and  O_3
REMARK    3  A    between atoms: O_3  and  C_4
REMARK    4  A    between atoms: C_4  and  C_6
REMARK    5  A    between atoms: C_7  and  C_8
REMARK    6  A    between atoms: C_10  and  C_11
REMARK    7  A    between atoms: C_17  and  C_18
REMARK    8  A    between atoms: C_18  and  C_20
REMARK    9  A    between atoms: C_24  and  O_25
REMARK   10  A    between atoms: O_25  and  C_26
REMARK   11  A    between atoms: C_29  and  C_30
REMARK                            x       y       z     vdW  Elec       q    Type
REMARK                         _______ _______ _______ _____ _____    ______ ____
ROOT
ATOM      1  C   UNL     1      -0.551  11.224  18.773  0.00  0.00    +0.000 C 
ATOM      2  O   UNL     1      -0.109  10.181  19.257  0.00  0.00    +0.000 OA
ATOM      3  N   UNL     1       0.162  12.421  18.913  0.00  0.00    +0.000 N 
ATOM      4  C   UNL     1       1.534  12.356  19.415  0.00  0.00    +0.000 C 
ATOM      5  C   UNL     1       1.651  13.039  20.772  0.00  0.00    +0.000 C 
ATOM      6  C   UNL     1       1.155  14.483  20.692  0.00  0.00    +0.000 C 
ATOM      7  C   UNL     1      -0.279  14.537  20.143  0.00  0.00    +0.000 C 
ATOM      8  C   UNL     1      -0.387  13.777  18.816  0.00  0.00    +0.000 C 
ENDROOT
BRANCH   1  13
ATOM      9  C   UNL     1      -3.975  11.432  17.299  0.00  0.00    +0.000 A 
ATOM     10  C   UNL     1      -3.214  10.863  16.285  0.00  0.00    +0.000 A 
ATOM     11  C   UNL     1      -3.536  10.452  14.891  0.00  0.00    +0.000 C 
ATOM     12  N   UNL     1      -1.950  10.668  16.772  0.00  0.00    +0.000 N 
ATOM     13  C   UNL     1      -1.796  11.232  18.015  0.00  0.00    +0.000 A 
ATOM     14  C   UNL     1      -3.067  11.654  18.409  0.00  0.00    +0.000 A 
ATOM     15  C   UNL     1      -3.437  12.243  19.734  0.00  0.00    +0.000 C 
ATOM     16  H   UNL     1      -1.209  10.201  16.266  0.00  0.00    +0.000 HD
BRANCH   9  17
ATOM     17  C   UNL     1      -5.401  11.770  17.201  0.00  0.00    +0.000 C 
ATOM     18  O   UNL     1      -5.831  12.768  16.634  0.00  0.00    +0.000 OA
BRANCH  17  19
ATOM     19  O   UNL     1      -6.188  10.902  17.899  0.00  0.00    +0.000 OA
BRANCH  19  21
ATOM     20  C   UNL     1      -7.104  10.675  20.087  0.00  0.00    +0.000 C 
ATOM     21  C   UNL     1      -7.112  11.500  18.814  0.00  0.00    +0.000 C 
ENDBRANCH  19  21
ENDBRANCH  17  19
ENDBRANCH   9  17
ENDBRANCH   1  13
BRANCH   7  22
ATOM     22  C   UNL     1      -0.733  15.973  19.901  0.00  0.00    +0.000 C 
ATOM     23  O   UNL     1      -1.563  16.511  20.636  0.00  0.00    +0.000 OA
BRANCH  22  24
ATOM     24  C   UNL     1      -0.110  16.784  18.805  0.00  0.00    +0.000 A 
ATOM     25  C   UNL     1      -0.932  17.655  18.077  0.00  0.00    +0.000 A 
ATOM     26  C   UNL     1      -0.399  18.437  17.053  0.00  0.00    +0.000 A 
ATOM     27  C   UNL     1       0.960  18.350  16.750  0.00  0.00    +0.000 A 
ATOM     28  C   UNL     1       1.792  17.489  17.465  0.00  0.00    +0.000 A 
ATOM     29  C   UNL     1       1.257  16.708  18.493  0.00  0.00    +0.000 A 
BRANCH  28  30
ATOM     30  O   UNL     1       3.102  17.502  17.072  0.00  0.00    +0.000 OA
ATOM     31  C   UNL     1       3.986  16.595  17.722  0.00  0.00    +0.000 C 
ENDBRANCH  28  30
ENDBRANCH  22  24
ENDBRANCH   7  22
TORSDOF 7
ENDMDL
MODEL 6
REMARK VINA RESULT:      -6.8      4.538      8.101
REMARK  Name = 
REMARK  11 active torsions:
REMARK  status: ('A' for Active; 'I' for Inactive)
REMARK    1  A    between atoms: C_1  and  C_2
REMARK    2  A    between atoms: C_2  and  O_3
REMARK    3  A    between atoms: O_3  and  C_4
REMARK    4  A    between atoms: C_4  and  C_6
REMARK    5  A    between atoms: C_7  and  C_8
REMARK    6  A    between atoms: C_10  and  C_11
REMARK    7  A    between atoms: C_17  and  C_18
REMARK    8  A    between atoms: C_18  and  C_20
REMARK    9  A    between atoms: C_24  and  O_25
REMARK   10  A    between atoms: O_25  and  C_26
REMARK   11  A    between atoms: C_29  and  C_30
REMARK                            x       y       z     vdW  Elec       q    Type
REMARK                         _______ _______ _______ _____ _____    ______ ____
ROOT
ATOM      1  C   UNL     1       1.461   9.266  20.977  0.00  0.00    +0.000 C 
ATOM      2  O   UNL     1       1.820   9.560  22.117  0.00  0.00    +0.000 OA
ATOM      3  N   UNL     1       0.812  10.215  20.177  0.00  0.00    +0.000 N 
ATOM      4  C   UNL     1       0.801  11.607  20.626  0.00  0.00    +0.000 C 
ATOM      5  C   UNL     1      -0.616  12.063  20.951  0.00  0.00    +0.000 C 
ATOM      6  C   UNL     1      -1.537  11.858  19.748  0.00  0.00    +0.000 C 
ATOM      7  C   UNL     1      -1.498  10.397  19.275  0.00  0.00    +0.000 C 
ATOM      8  C   UNL     1      -0.056   9.938  19.029  0.00  0.00    +0.000 C 
ENDROOT
BRANCH   1  13
ATOM      9  C   UNL     1       2.283   6.156  19.081  0.00  0.00    +0.000 A 
ATOM     10  C   UNL     1       1.818   5.683  20.303  0.00  0.00    +0.000 A 
ATOM     11  C   UNL     1       1.689   4.314  20.872  0.00  0.00    +0.000 C 
ATOM     12  N   UNL     1       1.409   6.762  21.038  0.00  0.00    +0.000 N 
ATOM     13  C   UNL     1       1.732   7.946  20.420  0.00  0.00    +0.000 A 
ATOM     14  C   UNL     1       2.214   7.603  19.155  0.00  0.00    +0.000 A 
ATOM     15  C   UNL     1       2.603   8.552  18.065  0.00  0.00    +0.000 C 
ATOM     16  H   UNL     1       0.959   6.700  21.941  0.00  0.00    +0.000 HD
BRANCH   9  17
ATOM     17  C   UNL     1       2.785   5.318  17.983  0.00  0.00    +0.000 C 
ATOM     18  O   UNL     1       2.127   4.441  17.435  0.00  0.00    +0.000 OA
BRANCH  17  19
ATOM     19  O   UNL     1       4.099   5.557  17.708  0.00  0.00    +0.000 OA
BRANCH  19  21
ATOM     20  C   UNL     1       5.870   5.196  19.262  0.00  0.00    +0.000 C 
ATOM     21  C   UNL     1       5.020   4.566  18.174  0.00  0.00    +0.000 C 
ENDBRANCH  19  21
ENDBRANCH  17  19
ENDBRANCH   9  17
ENDBRANCH   1  13
BRANCH   7  22
ATOM     22  C   UNL     1      -2.281  10.206  17.979  0.00  0.00    +0.000 C 
ATOM     23  O   UNL     1      -1.780   9.628  17.014  0.00  0.00    +0.000 OA
BRANCH  22  24
ATOM     24  C   UNL     1      -3.708  10.652  17.891  0.00  0.00    +0.000 A 
ATOM     25  C   UNL     1      -4.028  11.674  16.986  0.00  0.00    +0.000 A 
ATOM     26  C   UNL     1      -5.344  12.119  16.861  0.00  0.00    +0.000 A 
ATOM     27  C   UNL     1      -6.347  11.545  17.641  0.00  0.00    +0.000 A 
ATOM     28  C   UNL     1      -6.046  10.527  18.546  0.00  0.00    +0.000 A 
ATOM     29  C   UNL     1      -4.728  10.081  18.669  0.00  0.00    +0.000 A 
BRANCH  28  30
ATOM     30  O   UNL     1      -7.120  10.048  19.246  0.00  0.00    +0.000 OA
ATOM     31  C   UNL     1      -7.466  10.724  20.450  0.00  0.00    +0.000 C 
ENDBRANCH  28  30
ENDBRANCH  22  24
ENDBRANCH   7  22
TORSDOF 7
ENDMDL
MODEL 7
REMARK VINA RESULT:      -6.8      8.747     12.398
REMARK  Name = 
REMARK  11 active torsions:
REMARK  status: ('A' for Active; 'I' for Inactive)
REMARK    1  A    between atoms: C_1  and  C_2
REMARK    2  A    between atoms: C_2  and  O_3
REMARK    3  A    between atoms: O_3  and  C_4
REMARK    4  A    between atoms: C_4  and  C_6
REMARK    5  A    between atoms: C_7  and  C_8
REMARK    6  A    between atoms: C_10  and  C_11
REMARK    7  A    between atoms: C_17  and  C_18
REMARK    8  A    between atoms: C_18  and  C_20
REMARK    9  A    between atoms: C_24  and  O_25
REMARK   10  A    between atoms: O_25  and  C_26
REMARK   11  A    between atoms: C_29  and  C_30
REMARK                            x       y       z     vdW  Elec       q    Type
REMARK                         _______ _______ _______ _____ _____    ______ ____
ROOT
ATOM      1  C   UNL     1      -3.576  12.555  22.484  0.00  0.00    +0.000 C 
ATOM      2  O   UNL     1      -3.911  12.272  23.634  0.00  0.00    +0.000 OA
ATOM      3  N   UNL     1      -4.546  12.886  21.530  0.00  0.00    +0.000 N 
ATOM      4  C   UNL     1      -5.914  13.129  21.988  0.00  0.00    +0.000 C 
ATOM      5  C   UNL     1      -6.866  12.070  21.446  0.00  0.00    +0.000 C 
ATOM      6  C   UNL     1      -6.793  12.011  19.920  0.00  0.00    +0.000 C 
ATOM      7  C   UNL     1      -5.348  11.777  19.453  0.00  0.00    +0.000 C 
ATOM      8  C   UNL     1      -4.397  12.808  20.074  0.00  0.00    +0.000 C 
ENDROOT
BRANCH   1  13
ATOM      9  C   UNL     1      -0.042  13.200  21.464  0.00  0.00    +0.000 A 
ATOM     10  C   UNL     1      -0.128  11.813  21.493  0.00  0.00    +0.000 A 
ATOM     11  C   UNL     1       0.871  10.735  21.264  0.00  0.00    +0.000 C 
ATOM     12  N   UNL     1      -1.426  11.483  21.777  0.00  0.00    +0.000 N 
ATOM     13  C   UNL     1      -2.170  12.592  22.098  0.00  0.00    +0.000 A 
ATOM     14  C   UNL     1      -1.354  13.694  21.837  0.00  0.00    +0.000 A 
ATOM     15  C   UNL     1      -1.749  15.135  21.935  0.00  0.00    +0.000 C 
ATOM     16  H   UNL     1      -1.785  10.537  21.788  0.00  0.00    +0.000 HD
BRANCH   9  17
ATOM     17  C   UNL     1       1.173  13.968  21.160  0.00  0.00    +0.000 C 
ATOM     18  O   UNL     1       2.122  14.082  21.927  0.00  0.00    +0.000 OA
BRANCH  17  19
ATOM     19  O   UNL     1       1.085  14.625  19.968  0.00  0.00    +0.000 OA
BRANCH  19  21
ATOM     20  C   UNL     1       2.408  13.239  18.551  0.00  0.00    +0.000 C 
ATOM     21  C   UNL     1       1.019  13.794  18.805  0.00  0.00    +0.000 C 
ENDBRANCH  19  21
ENDBRANCH  17  19
ENDBRANCH   9  17
ENDBRANCH   1  13
BRANCH   7  22
ATOM     22  C   UNL     1      -5.226  11.878  17.936  0.00  0.00    +0.000 C 
ATOM     23  O   UNL     1      -5.965  12.618  17.286  0.00  0.00    +0.000 OA
BRANCH  22  24
ATOM     24  C   UNL     1      -4.143  11.132  17.218  0.00  0.00    +0.000 A 
ATOM     25  C   UNL     1      -3.090  10.601  17.977  0.00  0.00    +0.000 A 
ATOM     26  C   UNL     1      -2.062   9.891  17.357  0.00  0.00    +0.000 A 
ATOM     27  C   UNL     1      -2.080   9.709  15.974  0.00  0.00    +0.000 A 
ATOM     28  C   UNL     1      -3.121  10.230  15.205  0.00  0.00    +0.000 A 
ATOM     29  C   UNL     1      -4.151  10.939  15.828  0.00  0.00    +0.000 A 
BRANCH  28  30
ATOM     30  O   UNL     1      -3.022   9.978  13.864  0.00  0.00    +0.000 OA
ATOM     31  C   UNL     1      -4.224  10.026  13.102  0.00  0.00    +0.000 C 
ENDBRANCH  28  30
ENDBRANCH  22  24
ENDBRANCH   7  22
TORSDOF 7
ENDMDL
MODEL 8
REMARK VINA RESULT:      -6.8      2.256      4.177
REMARK  Name = 
REMARK  11 active torsions:
REMARK  status: ('A' for Active; 'I' for Inactive)
REMARK    1  A    between atoms: C_1  and  C_2
REMARK    2  A    between atoms: C_2  and  O_3
REMARK    3  A    between atoms: O_3  and  C_4
REMARK    4  A    between atoms: C_4  and  C_6
REMARK    5  A    between atoms: C_7  and  C_8
REMARK    6  A    between atoms: C_10  and  C_11
REMARK    7  A    between atoms: C_17  and  C_18
REMARK    8  A    between atoms: C_18  and  C_20
REMARK    9  A    between atoms: C_24  and  O_25
REMARK   10  A    between atoms: O_25  and  C_26
REMARK   11  A    between atoms: C_29  and  C_30
REMARK                            x       y       z     vdW  Elec       q    Type
REMARK                         _______ _______ _______ _____ _____    ______ ____
ROOT
ATOM      1  C   UNL     1       3.822   3.461  19.161  0.00  0.00    +0.000 C 
ATOM      2  O   UNL     1       3.427   2.296  19.189  0.00  0.00    +0.000 OA
ATOM      3  N   UNL     1       3.206   4.432  19.961  0.00  0.00    +0.000 N 
ATOM      4  C   UNL     1       2.272   3.987  20.994  0.00  0.00    +0.000 C 
ATOM      5  C   UNL     1       0.856   4.464  20.690  0.00  0.00    +0.000 C 
ATOM      6  C   UNL     1       0.824   5.984  20.527  0.00  0.00    +0.000 C 
ATOM      7  C   UNL     1       1.826   6.438  19.454  0.00  0.00    +0.000 C 
ATOM      8  C   UNL     1       3.226   5.881  19.740  0.00  0.00    +0.000 C 
ENDROOT
BRANCH   1  13
ATOM      9  C   UNL     1       6.390   4.370  16.607  0.00  0.00    +0.000 A 
ATOM     10  C   UNL     1       7.087   4.425  17.809  0.00  0.00    +0.000 A 
ATOM     11  C   UNL     1       8.487   4.801  18.148  0.00  0.00    +0.000 C 
ATOM     12  N   UNL     1       6.237   4.019  18.802  0.00  0.00    +0.000 N 
ATOM     13  C   UNL     1       4.957   3.851  18.333  0.00  0.00    +0.000 A 
ATOM     14  C   UNL     1       5.032   3.989  16.946  0.00  0.00    +0.000 A 
ATOM     15  C   UNL     1       3.912   3.792  15.971  0.00  0.00    +0.000 C 
ATOM     16  H   UNL     1       6.507   3.895  19.768  0.00  0.00    +0.000 HD
BRANCH   9  17
ATOM     17  C   UNL     1       6.949   4.693  15.288  0.00  0.00    +0.000 C 
ATOM     18  O   UNL     1       7.542   5.734  15.031  0.00  0.00    +0.000 OA
BRANCH  17  19
ATOM     19  O   UNL     1       6.646   3.748  14.352  0.00  0.00    +0.000 OA
BRANCH  19  21
ATOM     20  C   UNL     1       5.822   3.118  12.206  0.00  0.00    +0.000 C 
ATOM     21  C   UNL     1       6.449   4.234  13.020  0.00  0.00    +0.000 C 
ENDBRANCH  19  21
ENDBRANCH  17  19
ENDBRANCH   9  17
ENDBRANCH   1  13
BRANCH   7  22
ATOM     22  C   UNL     1       1.928   7.959  19.391  0.00  0.00    +0.000 C 
ATOM     23  O   UNL     1       2.591   8.516  18.515  0.00  0.00    +0.000 OA
BRANCH  22  24
ATOM     24  C   UNL     1       1.150   8.804  20.352  0.00  0.00    +0.000 A 
ATOM     25  C   UNL     1       1.379   8.628  21.724  0.00  0.00    +0.000 A 
ATOM     26  C   UNL     1       0.686   9.396  22.659  0.00  0.00    +0.000 A 
ATOM     27  C   UNL     1      -0.241  10.345  22.227  0.00  0.00    +0.000 A 
ATOM     28  C   UNL     1      -0.479  10.534  20.866  0.00  0.00    +0.000 A 
ATOM     29  C   UNL     1       0.217   9.765  19.930  0.00  0.00    +0.000 A 
BRANCH  28  30
ATOM     30  O   UNL     1      -1.407  11.496  20.577  0.00  0.00    +0.000 OA
ATOM     31  C   UNL     1      -1.002  12.553  19.712  0.00  0.00    +0.000 C 
ENDBRANCH  28  30
ENDBRANCH  22  24
ENDBRANCH   7  22
TORSDOF 7
ENDMDL
MODEL 9
REMARK VINA RESULT:      -6.8      7.608     13.089
REMARK  Name = 
REMARK  11 active torsions:
REMARK  status: ('A' for Active; 'I' for Inactive)
REMARK    1  A    between atoms: C_1  and  C_2
REMARK    2  A    between atoms: C_2  and  O_3
REMARK    3  A    between atoms: O_3  and  C_4
REMARK    4  A    between atoms: C_4  and  C_6
REMARK    5  A    between atoms: C_7  and  C_8
REMARK    6  A    between atoms: C_10  and  C_11
REMARK    7  A    between atoms: C_17  and  C_18
REMARK    8  A    between atoms: C_18  and  C_20
REMARK    9  A    between atoms: C_24  and  O_25
REMARK   10  A    between atoms: O_25  and  C_26
REMARK   11  A    between atoms: C_29  and  C_30
REMARK                            x       y       z     vdW  Elec       q    Type
REMARK                         _______ _______ _______ _____ _____    ______ ____
ROOT
ATOM      1  C   UNL     1      -5.596  11.764  18.211  0.00  0.00    +0.000 C 
ATOM      2  O   UNL     1      -6.592  11.210  17.744  0.00  0.00    +0.000 OA
ATOM      3  N   UNL     1      -4.391  11.765  17.497  0.00  0.00    +0.000 N 
ATOM      4  C   UNL     1      -4.413  11.323  16.103  0.00  0.00    +0.000 C 
ATOM      5  C   UNL     1      -3.611  10.039  15.925  0.00  0.00    +0.000 C 
ATOM      6  C   UNL     1      -2.179  10.225  16.430  0.00  0.00    +0.000 C 
ATOM      7  C   UNL     1      -2.174  10.709  17.887  0.00  0.00    +0.000 C 
ATOM      8  C   UNL     1      -3.050  11.957  18.055  0.00  0.00    +0.000 C 
ENDROOT
BRANCH   1  13
ATOM      9  C   UNL     1      -6.104  13.153  21.640  0.00  0.00    +0.000 A 
ATOM     10  C   UNL     1      -5.286  14.092  21.022  0.00  0.00    +0.000 A 
ATOM     11  C   UNL     1      -4.645  15.345  21.505  0.00  0.00    +0.000 C 
ATOM     12  N   UNL     1      -5.116  13.704  19.721  0.00  0.00    +0.000 N 
ATOM     13  C   UNL     1      -5.654  12.460  19.490  0.00  0.00    +0.000 A 
ATOM     14  C   UNL     1      -6.348  12.119  20.652  0.00  0.00    +0.000 A 
ATOM     15  C   UNL     1      -7.189  10.897  20.858  0.00  0.00    +0.000 C 
ATOM     16  H   UNL     1      -4.623  14.245  19.023  0.00  0.00    +0.000 HD
BRANCH   9  17
ATOM     17  C   UNL     1      -6.561  13.214  23.035  0.00  0.00    +0.000 C 
ATOM     18  O   UNL     1      -7.278  14.100  23.483  0.00  0.00    +0.000 OA
BRANCH  17  19
ATOM     19  O   UNL     1      -6.016  12.226  23.802  0.00  0.00    +0.000 OA
BRANCH  19  21
ATOM     20  C   UNL     1      -3.639  12.362  23.922  0.00  0.00    +0.000 C 
ATOM     21  C   UNL     1      -4.940  12.627  24.657  0.00  0.00    +0.000 C 
ENDBRANCH  19  21
ENDBRANCH  17  19
ENDBRANCH   9  17
ENDBRANCH   1  13
BRANCH   7  22
ATOM     22  C   UNL     1      -0.764  11.057  18.357  0.00  0.00    +0.000 C 
ATOM     23  O   UNL     1      -0.294  12.181  18.179  0.00  0.00    +0.000 OA
BRANCH  22  24
ATOM     24  C   UNL     1       0.043  10.051  19.119  0.00  0.00    +0.000 A 
ATOM     25  C   UNL     1       1.063   9.369  18.440  0.00  0.00    +0.000 A 
ATOM     26  C   UNL     1       1.848   8.429  19.106  0.00  0.00    +0.000 A 
ATOM     27  C   UNL     1       1.617   8.164  20.456  0.00  0.00    +0.000 A 
ATOM     28  C   UNL     1       0.607   8.834  21.147  0.00  0.00    +0.000 A 
ATOM     29  C   UNL     1      -0.177   9.777  20.478  0.00  0.00    +0.000 A 
BRANCH  28  30
ATOM     30  O   UNL     1       0.488   8.486  22.464  0.00  0.00    +0.000 OA
ATOM     31  C   UNL     1       0.078   9.503  23.372  0.00  0.00    +0.000 C 
ENDBRANCH  28  30
ENDBRANCH  22  24
ENDBRANCH   7  22
TORSDOF 7
ENDMDL
