MODEL 1
REMARK VINA RESULT:      -7.1      0.000      0.000
REMARK  Name = 
REMARK  5 active torsions:
REMARK  status: ('A' for Active; 'I' for Inactive)
REMARK    1  A    between atoms: C_1  and  C_2
REMARK    2  A    between atoms: C_2  and  C_3
REMARK    3  A    between atoms: C_4  and  C_5
REMARK    4  A    between atoms: N_12  and  C_13
REMARK    5  A    between atoms: N_14  and  N_15
REMARK                            x       y       z     vdW  Elec       q    Type
REMARK                         _______ _______ _______ _____ _____    ______ ____
ROOT
ATOM      1  C   UNL     1       1.721   5.371  20.294  0.00  0.00    +0.000 C 
ATOM      2  C   UNL     1       2.328   6.651  19.756  0.00  0.00    +0.000 C 
ATOM      3  N   UNL     1       1.946   7.838  20.148  0.00  0.00    +0.000 NA
ENDROOT
BRANCH   3   4
ATOM      4  N   UNL     1       1.037   7.909  21.170  0.00  0.00    +0.000 N 
ATOM      5  C   UNL     1       0.426   9.055  21.584  0.00  0.00    +0.000 C 
ATOM      6  N   UNL     1      -0.090   9.219  22.772  0.00  0.00    +0.000 NA
ATOM      7  C   UNL     1      -0.644  10.602  22.735  0.00  0.00    +0.000 C 
ATOM      8  C   UNL     1      -0.480  11.117  21.299  0.00  0.00    +0.000 C 
ATOM      9  N   UNL     1       0.337  10.090  20.707  0.00  0.00    +0.000 N 
ATOM     10  H   UNL     1       1.137   7.270  21.955  0.00  0.00    +0.000 HD
ATOM     11  H   UNL     1       0.147   9.801  19.756  0.00  0.00    +0.000 HD
ENDBRANCH   3   4
BRANCH   2  12
ATOM     12  C   UNL     1       3.420   6.609  18.730  0.00  0.00    +0.000 C 
ATOM     13  C   UNL     1       4.579   5.940  18.826  0.00  0.00    +0.000 C 
BRANCH  13  14
ATOM     14  C   UNL     1       5.546   5.987  17.784  0.00  0.00    +0.000 A 
ATOM     15  C   UNL     1       6.664   6.777  17.554  0.00  0.00    +0.000 A 
ATOM     16  N   UNL     1       7.291   6.438  16.394  0.00  0.00    +0.000 NA
ATOM     17  C   UNL     1       6.588   5.439  15.894  0.00  0.00    +0.000 A 
ATOM     18  N   UNL     1       6.977   4.790  14.662  0.00  0.00    +0.000 N 
ATOM     19  O   UNL     1       6.360   3.775  14.317  0.00  0.00    +0.000 OA
ATOM     20  O   UNL     1       7.914   5.294  14.028  0.00  0.00    +0.000 OA
ATOM     21  N   UNL     1       5.507   5.121  16.687  0.00  0.00    +0.000 N 
ATOM     22  C   UNL     1       4.498   4.108  16.481  0.00  0.00    +0.000 C 
ENDBRANCH  13  14
ENDBRANCH   2  12
TORSDOF 3
ENDMDL
MODEL 2
REMARK VINA RESULT:      -7.1      6.575      8.879
REMARK  Name = 
REMARK  5 active torsions:
REMARK  status: ('A' for Active; 'I' for Inactive)
REMARK    1  A    between atoms: C_1  and  C_2
REMARK    2  A    between atoms: C_2  and  C_3
REMARK    3  A    between atoms: C_4  and  C_5
REMARK    4  A    between atoms: N_12  and  C_13
REMARK    5  A    between atoms: N_14  and  N_15
REMARK                            x       y       z     vdW  Elec       q    Type
REMARK                         _______ _______ _______ _____ _____    ______ ____
ROOT
ATOM      1  C   UNL     1       7.863   6.207  18.899  0.00  0.00    +0.000 C 
ATOM      2  C   UNL     1       7.799   7.447  18.031  0.00  0.00    +0.000 C 
ATOM      3  N   UNL     1       7.030   7.539  16.978  0.00  0.00    +0.000 NA
ENDROOT
BRANCH   3   4
ATOM      4  N   UNL     1       6.167   6.505  16.727  0.00  0.00    +0.000 N 
ATOM      5  C   UNL     1       6.244   5.677  15.648  0.00  0.00    +0.000 C 
ATOM      6  N   UNL     1       5.237   4.992  15.179  0.00  0.00    +0.000 NA
ATOM      7  C   UNL     1       5.816   4.242  14.029  0.00  0.00    +0.000 C 
ATOM      8  C   UNL     1       7.327   4.511  14.028  0.00  0.00    +0.000 C 
ATOM      9  N   UNL     1       7.444   5.545  15.022  0.00  0.00    +0.000 N 
ATOM     10  H   UNL     1       5.197   6.599  17.020  0.00  0.00    +0.000 HD
ATOM     11  H   UNL     1       8.233   5.527  15.657  0.00  0.00    +0.000 HD
ENDBRANCH   3   4
BRANCH   2  12
ATOM     12  C   UNL     1       8.633   8.650  18.352  0.00  0.00    +0.000 C 
ATOM     13  C   UNL     1       8.334   9.927  18.069  0.00  0.00    +0.000 C 
BRANCH  13  14
ATOM     14  C   UNL     1       9.217  10.986  18.417  0.00  0.00    +0.000 A 
ATOM     15  C   UNL     1      10.404  11.044  19.135  0.00  0.00    +0.000 A 
ATOM     16  N   UNL     1      10.893  12.313  19.200  0.00  0.00    +0.000 NA
ATOM     17  C   UNL     1      10.034  13.055  18.527  0.00  0.00    +0.000 A 
ATOM     18  N   UNL     1      10.243  14.475  18.354  0.00  0.00    +0.000 N 
ATOM     19  O   UNL     1       9.480  15.089  17.600  0.00  0.00    +0.000 OA
ATOM     20  O   UNL     1      11.185  14.988  18.974  0.00  0.00    +0.000 OA
ATOM     21  N   UNL     1       8.986  12.310  18.032  0.00  0.00    +0.000 N 
ATOM     22  C   UNL     1       7.845  12.749  17.262  0.00  0.00    +0.000 C 
ENDBRANCH  13  14
ENDBRANCH   2  12
TORSDOF 3
ENDMDL
MODEL 3
REMARK VINA RESULT:      -7.0      6.726      9.064
REMARK  Name = 
REMARK  5 active torsions:
REMARK  status: ('A' for Active; 'I' for Inactive)
REMARK    1  A    between atoms: C_1  and  C_2
REMARK    2  A    between atoms: C_2  and  C_3
REMARK    3  A    between atoms: C_4  and  C_5
REMARK    4  A    between atoms: N_12  and  C_13
REMARK    5  A    between atoms: N_14  and  N_15
REMARK                            x       y       z     vdW  Elec       q    Type
REMARK                         _______ _______ _______ _____ _____    ______ ____
ROOT
ATOM      1  C   UNL     1       8.028   6.657  18.804  0.00  0.00    +0.000 C 
ATOM      2  C   UNL     1       7.660   7.752  17.824  0.00  0.00    +0.000 C 
ATOM      3  N   UNL     1       6.808   7.577  16.849  0.00  0.00    +0.000 NA
ENDROOT
BRANCH   3   4
ATOM      4  N   UNL     1       6.142   6.380  16.792  0.00  0.00    +0.000 N 
ATOM      5  C   UNL     1       6.172   5.527  15.729  0.00  0.00    +0.000 C 
ATOM      6  N   UNL     1       5.253   4.633  15.485  0.00  0.00    +0.000 NA
ATOM      7  C   UNL     1       5.733   3.952  14.250  0.00  0.00    +0.000 C 
ATOM      8  C   UNL     1       7.127   4.514  13.936  0.00  0.00    +0.000 C 
ATOM      9  N   UNL     1       7.225   5.603  14.873  0.00  0.00    +0.000 N 
ATOM     10  H   UNL     1       5.252   6.296  17.276  0.00  0.00    +0.000 HD
ATOM     11  H   UNL     1       8.110   5.775  15.333  0.00  0.00    +0.000 HD
ENDBRANCH   3   4
BRANCH   2  12
ATOM     12  C   UNL     1       8.270   9.116  17.936  0.00  0.00    +0.000 C 
ATOM     13  C   UNL     1       9.123   9.534  18.884  0.00  0.00    +0.000 C 
BRANCH  13  14
ATOM     14  C   UNL     1       9.627  10.864  18.889  0.00  0.00    +0.000 A 
ATOM     15  C   UNL     1      10.238  11.658  17.929  0.00  0.00    +0.000 A 
ATOM     16  N   UNL     1      10.547  12.891  18.416  0.00  0.00    +0.000 NA
ATOM     17  C   UNL     1      10.132  12.888  19.669  0.00  0.00    +0.000 A 
ATOM     18  N   UNL     1      10.268  14.057  20.508  0.00  0.00    +0.000 N 
ATOM     19  O   UNL     1       9.738  14.038  21.625  0.00  0.00    +0.000 OA
ATOM     20  O   UNL     1      10.907  15.013  20.047  0.00  0.00    +0.000 OA
ATOM     21  N   UNL     1       9.571  11.680  20.024  0.00  0.00    +0.000 N 
ATOM     22  C   UNL     1       9.018  11.275  21.295  0.00  0.00    +0.000 C 
ENDBRANCH  13  14
ENDBRANCH   2  12
TORSDOF 3
ENDMDL
MODEL 4
REMARK VINA RESULT:      -6.9      6.868      9.224
REMARK  Name = 
REMARK  5 active torsions:
REMARK  status: ('A' for Active; 'I' for Inactive)
REMARK    1  A    between atoms: C_1  and  C_2
REMARK    2  A    between atoms: C_2  and  C_3
REMARK    3  A    between atoms: C_4  and  C_5
REMARK    4  A    between atoms: N_12  and  C_13
REMARK    5  A    between atoms: N_14  and  N_15
REMARK                            x       y       z     vdW  Elec       q    Type
REMARK                         _______ _______ _______ _____ _____    ______ ____
ROOT
ATOM      1  C   UNL     1       8.313   7.095  18.963  0.00  0.00    +0.000 C 
ATOM      2  C   UNL     1       7.854   7.926  17.782  0.00  0.00    +0.000 C 
ATOM      3  N   UNL     1       7.158   7.432  16.792  0.00  0.00    +0.000 NA
ENDROOT
BRANCH   3   4
ATOM      4  N   UNL     1       6.738   6.132  16.895  0.00  0.00    +0.000 N 
ATOM      5  C   UNL     1       6.565   5.288  15.839  0.00  0.00    +0.000 C 
ATOM      6  N   UNL     1       5.794   4.235  15.865  0.00  0.00    +0.000 NA
ATOM      7  C   UNL     1       5.949   3.642  14.506  0.00  0.00    +0.000 C 
ATOM      8  C   UNL     1       7.033   4.451  13.781  0.00  0.00    +0.000 C 
ATOM      9  N   UNL     1       7.241   5.549  14.689  0.00  0.00    +0.000 N 
ATOM     10  H   UNL     1       6.090   5.888  17.641  0.00  0.00    +0.000 HD
ATOM     11  H   UNL     1       8.182   5.888  14.840  0.00  0.00    +0.000 HD
ENDBRANCH   3   4
BRANCH   2  12
ATOM     12  C   UNL     1       8.182   9.386  17.700  0.00  0.00    +0.000 C 
ATOM     13  C   UNL     1       8.987  10.071  18.526  0.00  0.00    +0.000 C 
BRANCH  13  14
ATOM     14  C   UNL     1       9.212  11.464  18.351  0.00  0.00    +0.000 A 
ATOM     15  C   UNL     1       8.496  12.477  17.728  0.00  0.00    +0.000 A 
ATOM     16  N   UNL     1       9.130  13.677  17.827  0.00  0.00    +0.000 NA
ATOM     17  C   UNL     1      10.233  13.437  18.511  0.00  0.00    +0.000 A 
ATOM     18  N   UNL     1      11.157  14.498  18.842  0.00  0.00    +0.000 N 
ATOM     19  O   UNL     1      12.099  14.236  19.599  0.00  0.00    +0.000 OA
ATOM     20  O   UNL     1      10.941  15.612  18.345  0.00  0.00    +0.000 OA
ATOM     21  N   UNL     1      10.349  12.107  18.852  0.00  0.00    +0.000 N 
ATOM     22  C   UNL     1      11.406  11.446  19.581  0.00  0.00    +0.000 C 
ENDBRANCH  13  14
ENDBRANCH   2  12
TORSDOF 3
ENDMDL
MODEL 5
REMARK VINA RESULT:      -6.7      5.457      7.848
REMARK  Name = 
REMARK  5 active torsions:
REMARK  status: ('A' for Active; 'I' for Inactive)
REMARK    1  A    between atoms: C_1  and  C_2
REMARK    2  A    between atoms: C_2  and  C_3
REMARK    3  A    between atoms: C_4  and  C_5
REMARK    4  A    between atoms: N_12  and  C_13
REMARK    5  A    between atoms: N_14  and  N_15
REMARK                            x       y       z     vdW  Elec       q    Type
REMARK                         _______ _______ _______ _____ _____    ______ ____
ROOT
ATOM      1  C   UNL     1       7.847   6.115  18.752  0.00  0.00    +0.000 C 
ATOM      2  C   UNL     1       7.761   7.389  17.936  0.00  0.00    +0.000 C 
ATOM      3  N   UNL     1       7.033   7.492  16.855  0.00  0.00    +0.000 NA
ENDROOT
BRANCH   3   4
ATOM      4  N   UNL     1       6.233   6.430  16.521  0.00  0.00    +0.000 N 
ATOM      5  C   UNL     1       5.011   6.181  17.069  0.00  0.00    +0.000 C 
ATOM      6  N   UNL     1       4.445   5.005  17.086  0.00  0.00    +0.000 NA
ATOM      7  C   UNL     1       3.139   5.243  17.764  0.00  0.00    +0.000 C 
ATOM      8  C   UNL     1       3.015   6.757  17.987  0.00  0.00    +0.000 C 
ATOM      9  N   UNL     1       4.331   7.218  17.625  0.00  0.00    +0.000 N 
ATOM     10  H   UNL     1       6.675   5.554  16.252  0.00  0.00    +0.000 HD
ATOM     11  H   UNL     1       4.421   8.085  17.111  0.00  0.00    +0.000 HD
ENDBRANCH   3   4
BRANCH   2  12
ATOM     12  C   UNL     1       8.520   8.614  18.345  0.00  0.00    +0.000 C 
ATOM     13  C   UNL     1       8.320   9.863  17.899  0.00  0.00    +0.000 C 
BRANCH  13  14
ATOM     14  C   UNL     1       9.118  10.947  18.358  0.00  0.00    +0.000 A 
ATOM     15  C   UNL     1      10.247  11.030  19.162  0.00  0.00    +0.000 A 
ATOM     16  N   UNL     1      10.662  12.317  19.318  0.00  0.00    +0.000 NA
ATOM     17  C   UNL     1       9.814  13.047  18.619  0.00  0.00    +0.000 A 
ATOM     18  N   UNL     1       9.958  14.482  18.525  0.00  0.00    +0.000 N 
ATOM     19  O   UNL     1       9.218  15.093  17.745  0.00  0.00    +0.000 OA
ATOM     20  O   UNL     1      10.826  15.011  19.234  0.00  0.00    +0.000 OA
ATOM     21  N   UNL     1       8.844  12.275  18.016  0.00  0.00    +0.000 N 
ATOM     22  C   UNL     1       7.738  12.693  17.185  0.00  0.00    +0.000 C 
ENDBRANCH  13  14
ENDBRANCH   2  12
TORSDOF 3
ENDMDL
MODEL 6
REMARK VINA RESULT:      -6.7      1.230      1.324
REMARK  Name = 
REMARK  5 active torsions:
REMARK  status: ('A' for Active; 'I' for Inactive)
REMARK    1  A    between atoms: C_1  and  C_2
REMARK    2  A    between atoms: C_2  and  C_3
REMARK    3  A    between atoms: C_4  and  C_5
REMARK    4  A    between atoms: N_12  and  C_13
REMARK    5  A    between atoms: N_14  and  N_15
REMARK                            x       y       z     vdW  Elec       q    Type
REMARK                         _______ _______ _______ _____ _____    ______ ____
ROOT
ATOM      1  C   UNL     1       1.430   5.852  20.831  0.00  0.00    +0.000 C 
ATOM      2  C   UNL     1       1.928   7.125  20.178  0.00  0.00    +0.000 C 
ATOM      3  N   UNL     1       1.500   8.312  20.517  0.00  0.00    +0.000 NA
ENDROOT
BRANCH   3   4
ATOM      4  N   UNL     1       0.649   8.401  21.587  0.00  0.00    +0.000 N 
ATOM      5  C   UNL     1      -0.022   9.530  21.952  0.00  0.00    +0.000 C 
ATOM      6  N   UNL     1      -0.479   9.752  23.154  0.00  0.00    +0.000 NA
ATOM      7  C   UNL     1      -1.136  11.085  23.049  0.00  0.00    +0.000 C 
ATOM      8  C   UNL     1      -1.093  11.495  21.571  0.00  0.00    +0.000 C 
ATOM      9  N   UNL     1      -0.237  10.484  21.007  0.00  0.00    +0.000 N 
ATOM     10  H   UNL     1       0.841   7.834  22.410  0.00  0.00    +0.000 HD
ATOM     11  H   UNL     1      -0.460  10.108  20.094  0.00  0.00    +0.000 HD
ENDBRANCH   3   4
BRANCH   2  12
ATOM     12  C   UNL     1       2.960   7.075  19.093  0.00  0.00    +0.000 C 
ATOM     13  C   UNL     1       3.207   6.042  18.273  0.00  0.00    +0.000 C 
BRANCH  13  14
ATOM     14  C   UNL     1       4.226   6.112  17.284  0.00  0.00    +0.000 A 
ATOM     15  C   UNL     1       4.432   6.928  16.179  0.00  0.00    +0.000 A 
ATOM     16  N   UNL     1       5.580   6.606  15.522  0.00  0.00    +0.000 NA
ATOM     17  C   UNL     1       6.105   5.604  16.201  0.00  0.00    +0.000 A 
ATOM     18  N   UNL     1       7.364   5.010  15.811  0.00  0.00    +0.000 N 
ATOM     19  O   UNL     1       7.871   4.170  16.563  0.00  0.00    +0.000 OA
ATOM     20  O   UNL     1       7.860   5.389  14.740  0.00  0.00    +0.000 OA
ATOM     21  N   UNL     1       5.326   5.248  17.281  0.00  0.00    +0.000 N 
ATOM     22  C   UNL     1       5.545   4.202  18.252  0.00  0.00    +0.000 C 
ENDBRANCH  13  14
ENDBRANCH   2  12
TORSDOF 3
ENDMDL
MODEL 7
REMARK VINA RESULT:      -6.6      2.429      3.194
REMARK  Name = 
REMARK  5 active torsions:
REMARK  status: ('A' for Active; 'I' for Inactive)
REMARK    1  A    between atoms: C_1  and  C_2
REMARK    2  A    between atoms: C_2  and  C_3
REMARK    3  A    between atoms: C_4  and  C_5
REMARK    4  A    between atoms: N_12  and  C_13
REMARK    5  A    between atoms: N_14  and  N_15
REMARK                            x       y       z     vdW  Elec       q    Type
REMARK                         _______ _______ _______ _____ _____    ______ ____
ROOT
ATOM      1  C   UNL     1       0.891   8.210  21.219  0.00  0.00    +0.000 C 
ATOM      2  C   UNL     1       1.628   8.344  19.902  0.00  0.00    +0.000 C 
ATOM      3  N   UNL     1       1.277   9.196  18.974  0.00  0.00    +0.000 NA
ENDROOT
BRANCH   3   4
ATOM      4  N   UNL     1       0.268  10.075  19.266  0.00  0.00    +0.000 N 
ATOM      5  C   UNL     1      -0.692  10.473  18.383  0.00  0.00    +0.000 C 
ATOM      6  N   UNL     1      -1.374  11.579  18.496  0.00  0.00    +0.000 NA
ATOM      7  C   UNL     1      -2.292  11.557  17.322  0.00  0.00    +0.000 C 
ATOM      8  C   UNL     1      -2.107  10.201  16.628  0.00  0.00    +0.000 C 
ATOM      9  N   UNL     1      -0.964   9.667  17.323  0.00  0.00    +0.000 N 
ATOM     10  H   UNL     1       0.449  10.820  19.935  0.00  0.00    +0.000 HD
ATOM     11  H   UNL     1      -0.945   8.680  17.548  0.00  0.00    +0.000 HD
ENDBRANCH   3   4
BRANCH   2  12
ATOM     12  C   UNL     1       2.821   7.489  19.602  0.00  0.00    +0.000 C 
ATOM     13  C   UNL     1       2.877   6.475  18.724  0.00  0.00    +0.000 C 
BRANCH  13  14
ATOM     14  C   UNL     1       4.070   5.726  18.536  0.00  0.00    +0.000 A 
ATOM     15  C   UNL     1       4.620   4.626  19.180  0.00  0.00    +0.000 A 
ATOM     16  N   UNL     1       5.807   4.258  18.624  0.00  0.00    +0.000 NA
ATOM     17  C   UNL     1       6.010   5.106  17.634  0.00  0.00    +0.000 A 
ATOM     18  N   UNL     1       7.176   5.004  16.785  0.00  0.00    +0.000 N 
ATOM     19  O   UNL     1       7.241   5.739  15.792  0.00  0.00    +0.000 OA
ATOM     20  O   UNL     1       8.040   4.177  17.107  0.00  0.00    +0.000 OA
ATOM     21  N   UNL     1       4.994   6.032  17.531  0.00  0.00    +0.000 N 
ATOM     22  C   UNL     1       4.853   7.123  16.596  0.00  0.00    +0.000 C 
ENDBRANCH  13  14
ENDBRANCH   2  12
TORSDOF 3
ENDMDL
MODEL 8
REMARK VINA RESULT:      -6.6      5.759      8.020
REMARK  Name = 
REMARK  5 active torsions:
REMARK  status: ('A' for Active; 'I' for Inactive)
REMARK    1  A    between atoms: C_1  and  C_2
REMARK    2  A    between atoms: C_2  and  C_3
REMARK    3  A    between atoms: C_4  and  C_5
REMARK    4  A    between atoms: N_12  and  C_13
REMARK    5  A    between atoms: N_14  and  N_15
REMARK                            x       y       z     vdW  Elec       q    Type
REMARK                         _______ _______ _______ _____ _____    ______ ____
ROOT
ATOM      1  C   UNL     1       7.952   6.668  18.717  0.00  0.00    +0.000 C 
ATOM      2  C   UNL     1       7.609   7.771  17.735  0.00  0.00    +0.000 C 
ATOM      3  N   UNL     1       6.750   7.614  16.763  0.00  0.00    +0.000 NA
ENDROOT
BRANCH   3   4
ATOM      4  N   UNL     1       6.056   6.434  16.709  0.00  0.00    +0.000 N 
ATOM      5  C   UNL     1       4.841   6.223  17.290  0.00  0.00    +0.000 C 
ATOM      6  N   UNL     1       4.378   5.045  17.607  0.00  0.00    +0.000 NA
ATOM      7  C   UNL     1       3.034   5.330  18.184  0.00  0.00    +0.000 C 
ATOM      8  C   UNL     1       2.773   6.831  18.003  0.00  0.00    +0.000 C 
ATOM      9  N   UNL     1       4.056   7.302  17.548  0.00  0.00    +0.000 N 
ATOM     10  H   UNL     1       6.580   5.562  16.683  0.00  0.00    +0.000 HD
ATOM     11  H   UNL     1       4.089   8.010  16.826  0.00  0.00    +0.000 HD
ENDBRANCH   3   4
BRANCH   2  12
ATOM     12  C   UNL     1       8.251   9.120  17.844  0.00  0.00    +0.000 C 
ATOM     13  C   UNL     1       9.020   9.559  18.852  0.00  0.00    +0.000 C 
BRANCH  13  14
ATOM     14  C   UNL     1       9.566  10.872  18.846  0.00  0.00    +0.000 A 
ATOM     15  C   UNL     1      10.131  11.668  17.859  0.00  0.00    +0.000 A 
ATOM     16  N   UNL     1      10.515  12.880  18.346  0.00  0.00    +0.000 NA
ATOM     17  C   UNL     1      10.192  12.863  19.625  0.00  0.00    +0.000 A 
ATOM     18  N   UNL     1      10.426  14.009  20.474  0.00  0.00    +0.000 N 
ATOM     19  O   UNL     1       9.978  13.983  21.627  0.00  0.00    +0.000 OA
ATOM     20  O   UNL     1      11.061  14.954  19.986  0.00  0.00    +0.000 OA
ATOM     21  N   UNL     1       9.619  11.666  19.997  0.00  0.00    +0.000 N 
ATOM     22  C   UNL     1       9.146  11.251  21.297  0.00  0.00    +0.000 C 
ENDBRANCH  13  14
ENDBRANCH   2  12
TORSDOF 3
ENDMDL
MODEL 9
REMARK VINA RESULT:      -6.6      5.738      8.267
REMARK  Name = 
REMARK  5 active torsions:
REMARK  status: ('A' for Active; 'I' for Inactive)
REMARK    1  A    between atoms: C_1  and  C_2
REMARK    2  A    between atoms: C_2  and  C_3
REMARK    3  A    between atoms: C_4  and  C_5
REMARK    4  A    between atoms: N_12  and  C_13
REMARK    5  A    between atoms: N_14  and  N_15
REMARK                            x       y       z     vdW  Elec       q    Type
REMARK                         _______ _______ _______ _____ _____    ______ ____
ROOT
ATOM      1  C   UNL     1       8.313   6.977  18.888  0.00  0.00    +0.000 C 
ATOM      2  C   UNL     1       7.784   7.832  17.754  0.00  0.00    +0.000 C 
ATOM      3  N   UNL     1       7.036   7.355  16.794  0.00  0.00    +0.000 NA
ENDROOT
BRANCH   3   4
ATOM      4  N   UNL     1       6.630   6.050  16.891  0.00  0.00    +0.000 N 
ATOM      5  C   UNL     1       5.448   5.646  17.436  0.00  0.00    +0.000 C 
ATOM      6  N   UNL     1       5.234   4.449  17.910  0.00  0.00    +0.000 NA
ATOM      7  C   UNL     1       3.816   4.491  18.367  0.00  0.00    +0.000 C 
ATOM      8  C   UNL     1       3.244   5.849  17.941  0.00  0.00    +0.000 C 
ATOM      9  N   UNL     1       4.423   6.537  17.482  0.00  0.00    +0.000 N 
ATOM     10  H   UNL     1       7.336   5.330  17.028  0.00  0.00    +0.000 HD
ATOM     11  H   UNL     1       4.358   7.125  16.661  0.00  0.00    +0.000 HD
ENDBRANCH   3   4
BRANCH   2  12
ATOM     12  C   UNL     1       8.099   9.296  17.687  0.00  0.00    +0.000 C 
ATOM     13  C   UNL     1       8.918   9.974  18.505  0.00  0.00    +0.000 C 
BRANCH  13  14
ATOM     14  C   UNL     1       9.128  11.371  18.346  0.00  0.00    +0.000 A 
ATOM     15  C   UNL     1       8.460  12.364  17.642  0.00  0.00    +0.000 A 
ATOM     16  N   UNL     1       9.051  13.580  17.802  0.00  0.00    +0.000 NA
ATOM     17  C   UNL     1      10.078  13.369  18.603  0.00  0.00    +0.000 A 
ATOM     18  N   UNL     1      10.936  14.453  19.025  0.00  0.00    +0.000 N 
ATOM     19  O   UNL     1      11.796  14.217  19.882  0.00  0.00    +0.000 OA
ATOM     20  O   UNL     1      10.749  15.560  18.501  0.00  0.00    +0.000 OA
ATOM     21  N   UNL     1      10.188  12.044  18.964  0.00  0.00    +0.000 N 
ATOM     22  C   UNL     1      11.175  11.411  19.807  0.00  0.00    +0.000 C 
ENDBRANCH  13  14
ENDBRANCH   2  12
TORSDOF 3
ENDMDL
