MODEL 1
REMARK VINA RESULT:      -8.0      0.000      0.000
REMARK  Name = 
REMARK  6 active torsions:
REMARK  status: ('A' for Active; 'I' for Inactive)
REMARK    1  A    between atoms: C_1  and  C_2
REMARK    2  A    between atoms: C_2  and  C_3
REMARK    3  A    between atoms: C_2  and  O_4
REMARK    4  A    between atoms: C_2  and  C_5
REMARK    5  A    between atoms: C_6  and  C_7
REMARK    6  A    between atoms: C_15  and  C_16
REMARK                            x       y       z     vdW  Elec       q    Type
REMARK                         _______ _______ _______ _____ _____    ______ ____
ROOT
ATOM      1  C   UNL     1       1.835   6.286  20.455  0.00  0.00    +0.000 A 
ATOM      2  C   UNL     1       1.286   5.167  21.076  0.00  0.00    +0.000 A 
ATOM      3  C   UNL     1       1.732   3.893  20.734  0.00  0.00    +0.000 A 
ATOM      4  C   UNL     1       2.709   3.699  19.742  0.00  0.00    +0.000 A 
ATOM      5  C   UNL     1       3.274   4.819  19.101  0.00  0.00    +0.000 A 
ATOM      6  C   UNL     1       2.828   6.110  19.480  0.00  0.00    +0.000 A 
ATOM      7  C   UNL     1       4.262   4.718  18.026  0.00  0.00    +0.000 A 
ATOM      8  N   UNL     1       5.265   5.660  17.797  0.00  0.00    +0.000 NA
ATOM      9  C   UNL     1       5.983   5.286  16.745  0.00  0.00    +0.000 A 
ATOM     10  S   UNL     1       5.474   3.847  15.966  0.00  0.00    +0.000 S 
ATOM     11  C   UNL     1       4.225   3.687  17.112  0.00  0.00    +0.000 A 
ATOM     12  C   UNL     1       3.295   2.532  17.104  0.00  0.00    +0.000 C 
ATOM     13  C   UNL     1       3.479   1.766  18.405  0.00  0.00    +0.000 C 
ATOM     14  O   UNL     1       2.984   2.370  19.597  0.00  0.00    +0.000 OA
ENDROOT
BRANCH   9  15
ATOM     15  C   UNL     1       7.145   6.003  16.228  0.00  0.00    +0.000 C 
ATOM     16  N   UNL     1       7.649   5.536  15.043  0.00  0.00    +0.000 N 
ATOM     17  O   UNL     1       7.689   6.970  16.756  0.00  0.00    +0.000 OA
ATOM     18  H   UNL     1       7.219   4.750  14.573  0.00  0.00    +0.000 HD
ATOM     19  H   UNL     1       8.449   6.010  14.644  0.00  0.00    +0.000 HD
ENDBRANCH   9  15
BRANCH   1  21
ATOM     20  C   UNL     1       0.923   8.673  21.117  0.00  0.00    +0.000 C 
ATOM     21  C   UNL     1       1.365   7.593  20.826  0.00  0.00    +0.000 C 
BRANCH  20  23
ATOM     22  C   UNL     1      -0.376   9.912  22.824  0.00  0.00    +0.000 C 
ATOM     23  C   UNL     1       0.363   9.991  21.486  0.00  0.00    +0.000 C 
ATOM     24  C   UNL     1      -0.578  10.516  20.401  0.00  0.00    +0.000 C 
BRANCH  23  25
ATOM     25  O   UNL     1       1.444  10.915  21.626  0.00  0.00    +0.000 OA
ATOM     26  H   UNL     1       1.464  11.208  22.551  0.00  0.00    +0.000 HD
ENDBRANCH  23  25
ENDBRANCH  20  23
ENDBRANCH   1  21
TORSDOF 4
ENDMDL
MODEL 2
REMARK VINA RESULT:      -7.6      1.098      1.258
REMARK  Name = 
REMARK  6 active torsions:
REMARK  status: ('A' for Active; 'I' for Inactive)
REMARK    1  A    between atoms: C_1  and  C_2
REMARK    2  A    between atoms: C_2  and  C_3
REMARK    3  A    between atoms: C_2  and  O_4
REMARK    4  A    between atoms: C_2  and  C_5
REMARK    5  A    between atoms: C_6  and  C_7
REMARK    6  A    between atoms: C_15  and  C_16
REMARK                            x       y       z     vdW  Elec       q    Type
REMARK                         _______ _______ _______ _____ _____    ______ ____
ROOT
ATOM      1  C   UNL     1       1.844   7.083  20.118  0.00  0.00    +0.000 A 
ATOM      2  C   UNL     1       1.259   6.115  20.931  0.00  0.00    +0.000 A 
ATOM      3  C   UNL     1       1.655   4.784  20.821  0.00  0.00    +0.000 A 
ATOM      4  C   UNL     1       2.615   4.379  19.877  0.00  0.00    +0.000 A 
ATOM      5  C   UNL     1       3.216   5.345  19.046  0.00  0.00    +0.000 A 
ATOM      6  C   UNL     1       2.821   6.699  19.189  0.00  0.00    +0.000 A 
ATOM      7  C   UNL     1       4.190   5.017  18.005  0.00  0.00    +0.000 A 
ATOM      8  N   UNL     1       5.226   5.864  17.609  0.00  0.00    +0.000 NA
ATOM      9  C   UNL     1       5.920   5.281  16.640  0.00  0.00    +0.000 A 
ATOM     10  S   UNL     1       5.351   3.746  16.131  0.00  0.00    +0.000 S 
ATOM     11  C   UNL     1       4.108   3.841  17.289  0.00  0.00    +0.000 A 
ATOM     12  C   UNL     1       3.135   2.739  17.490  0.00  0.00    +0.000 C 
ATOM     13  C   UNL     1       3.302   2.211  18.906  0.00  0.00    +0.000 C 
ATOM     14  O   UNL     1       2.840   3.037  19.972  0.00  0.00    +0.000 OA
ENDROOT
BRANCH   9  15
ATOM     15  C   UNL     1       7.104   5.849  16.000  0.00  0.00    +0.000 C 
ATOM     16  N   UNL     1       7.646   6.941  16.623  0.00  0.00    +0.000 N 
ATOM     17  O   UNL     1       7.640   5.431  14.977  0.00  0.00    +0.000 OA
ATOM     18  H   UNL     1       7.239   7.306  17.474  0.00  0.00    +0.000 HD
ATOM     19  H   UNL     1       8.473   7.361  16.218  0.00  0.00    +0.000 HD
ENDBRANCH   9  15
BRANCH   1  21
ATOM     20  C   UNL     1       1.036   9.588  20.327  0.00  0.00    +0.000 C 
ATOM     21  C   UNL     1       1.425   8.452  20.251  0.00  0.00    +0.000 C 
BRANCH  20  23
ATOM     22  C   UNL     1      -0.952  11.043  20.077  0.00  0.00    +0.000 C 
ATOM     23  C   UNL     1       0.537  10.976  20.425  0.00  0.00    +0.000 C 
ATOM     24  C   UNL     1       1.328  11.915  19.513  0.00  0.00    +0.000 C 
BRANCH  23  25
ATOM     25  O   UNL     1       0.702  11.419  21.773  0.00  0.00    +0.000 OA
ATOM     26  H   UNL     1       1.603  11.190  22.051  0.00  0.00    +0.000 HD
ENDBRANCH  23  25
ENDBRANCH  20  23
ENDBRANCH   1  21
TORSDOF 4
ENDMDL
MODEL 3
REMARK VINA RESULT:      -7.3      1.425      1.490
REMARK  Name = 
REMARK  6 active torsions:
REMARK  status: ('A' for Active; 'I' for Inactive)
REMARK    1  A    between atoms: C_1  and  C_2
REMARK    2  A    between atoms: C_2  and  C_3
REMARK    3  A    between atoms: C_2  and  O_4
REMARK    4  A    between atoms: C_2  and  C_5
REMARK    5  A    between atoms: C_6  and  C_7
REMARK    6  A    between atoms: C_15  and  C_16
REMARK                            x       y       z     vdW  Elec       q    Type
REMARK                         _______ _______ _______ _____ _____    ______ ____
ROOT
ATOM      1  C   UNL     1       1.892   7.189  19.856  0.00  0.00    +0.000 A 
ATOM      2  C   UNL     1       1.367   6.310  20.800  0.00  0.00    +0.000 A 
ATOM      3  C   UNL     1       1.822   4.994  20.852  0.00  0.00    +0.000 A 
ATOM      4  C   UNL     1       2.783   4.513  19.946  0.00  0.00    +0.000 A 
ATOM      5  C   UNL     1       3.323   5.388  18.984  0.00  0.00    +0.000 A 
ATOM      6  C   UNL     1       2.869   6.730  18.960  0.00  0.00    +0.000 A 
ATOM      7  C   UNL     1       4.293   4.970  17.970  0.00  0.00    +0.000 A 
ATOM      8  N   UNL     1       5.280   5.803  17.444  0.00  0.00    +0.000 NA
ATOM      9  C   UNL     1       5.983   5.130  16.541  0.00  0.00    +0.000 A 
ATOM     10  S   UNL     1       5.477   3.519  16.248  0.00  0.00    +0.000 S 
ATOM     11  C   UNL     1       4.252   3.709  17.414  0.00  0.00    +0.000 A 
ATOM     12  C   UNL     1       3.335   2.601  17.778  0.00  0.00    +0.000 C 
ATOM     13  C   UNL     1       3.551   2.269  19.245  0.00  0.00    +0.000 C 
ATOM     14  O   UNL     1       3.071   3.205  20.207  0.00  0.00    +0.000 OA
ENDROOT
BRANCH   9  15
ATOM     15  C   UNL     1       7.128   5.662  15.806  0.00  0.00    +0.000 C 
ATOM     16  N   UNL     1       7.798   6.688  16.415  0.00  0.00    +0.000 N 
ATOM     17  O   UNL     1       7.528   5.266  14.713  0.00  0.00    +0.000 OA
ATOM     18  H   UNL     1       7.505   7.031  17.321  0.00  0.00    +0.000 HD
ATOM     19  H   UNL     1       8.603   7.080  15.944  0.00  0.00    +0.000 HD
ENDBRANCH   9  15
BRANCH   1  21
ATOM     20  C   UNL     1       0.998   9.671  19.741  0.00  0.00    +0.000 C 
ATOM     21  C   UNL     1       1.413   8.544  19.821  0.00  0.00    +0.000 C 
BRANCH  20  23
ATOM     22  C   UNL     1       1.011  11.926  20.764  0.00  0.00    +0.000 C 
ATOM     23  C   UNL     1       0.468  11.047  19.635  0.00  0.00    +0.000 C 
ATOM     24  C   UNL     1      -1.061  11.054  19.659  0.00  0.00    +0.000 C 
BRANCH  23  25
ATOM     25  O   UNL     1       0.899  11.600  18.391  0.00  0.00    +0.000 OA
ATOM     26  H   UNL     1       0.134  11.614  17.794  0.00  0.00    +0.000 HD
ENDBRANCH  23  25
ENDBRANCH  20  23
ENDBRANCH   1  21
TORSDOF 4
ENDMDL
MODEL 4
REMARK VINA RESULT:      -7.3      7.726     10.938
REMARK  Name = 
REMARK  6 active torsions:
REMARK  status: ('A' for Active; 'I' for Inactive)
REMARK    1  A    between atoms: C_1  and  C_2
REMARK    2  A    between atoms: C_2  and  C_3
REMARK    3  A    between atoms: C_2  and  O_4
REMARK    4  A    between atoms: C_2  and  C_5
REMARK    5  A    between atoms: C_6  and  C_7
REMARK    6  A    between atoms: C_15  and  C_16
REMARK                            x       y       z     vdW  Elec       q    Type
REMARK                         _______ _______ _______ _____ _____    ______ ____
ROOT
ATOM      1  C   UNL     1       9.193  10.361  18.671  0.00  0.00    +0.000 A 
ATOM      2  C   UNL     1      10.147  10.958  17.852  0.00  0.00    +0.000 A 
ATOM      3  C   UNL     1      10.817  12.100  18.285  0.00  0.00    +0.000 A 
ATOM      4  C   UNL     1      10.530  12.694  19.526  0.00  0.00    +0.000 A 
ATOM      5  C   UNL     1       9.565  12.103  20.366  0.00  0.00    +0.000 A 
ATOM      6  C   UNL     1       8.911  10.927  19.922  0.00  0.00    +0.000 A 
ATOM      7  C   UNL     1       9.164  12.672  21.654  0.00  0.00    +0.000 A 
ATOM      8  N   UNL     1       8.748  11.912  22.747  0.00  0.00    +0.000 NA
ATOM      9  C   UNL     1       8.443  12.722  23.752  0.00  0.00    +0.000 A 
ATOM     10  S   UNL     1       8.589  14.400  23.431  0.00  0.00    +0.000 S 
ATOM     11  C   UNL     1       9.116  14.035  21.854  0.00  0.00    +0.000 A 
ATOM     12  C   UNL     1       9.514  15.094  20.894  0.00  0.00    +0.000 C 
ATOM     13  C   UNL     1      10.983  14.897  20.553  0.00  0.00    +0.000 C 
ATOM     14  O   UNL     1      11.321  13.787  19.726  0.00  0.00    +0.000 OA
ENDROOT
BRANCH   9  15
ATOM     15  C   UNL     1       8.005  12.287  25.076  0.00  0.00    +0.000 C 
ATOM     16  N   UNL     1       8.625  12.895  26.134  0.00  0.00    +0.000 N 
ATOM     17  O   UNL     1       7.142  11.443  25.307  0.00  0.00    +0.000 OA
ATOM     18  H   UNL     1       9.331  13.604  25.981  0.00  0.00    +0.000 HD
ATOM     19  H   UNL     1       8.345  12.630  27.069  0.00  0.00    +0.000 HD
ENDBRANCH   9  15
BRANCH   1  21
ATOM     20  C   UNL     1       7.967   8.165  17.864  0.00  0.00    +0.000 C 
ATOM     21  C   UNL     1       8.516   9.179  18.208  0.00  0.00    +0.000 C 
BRANCH  20  23
ATOM     22  C   UNL     1       5.771   7.137  17.362  0.00  0.00    +0.000 C 
ATOM     23  C   UNL     1       7.282   6.918  17.463  0.00  0.00    +0.000 C 
ATOM     24  C   UNL     1       7.580   5.783  18.444  0.00  0.00    +0.000 C 
BRANCH  23  25
ATOM     25  O   UNL     1       7.766   6.534  16.175  0.00  0.00    +0.000 OA
ATOM     26  H   UNL     1       7.287   7.055  15.512  0.00  0.00    +0.000 HD
ENDBRANCH  23  25
ENDBRANCH  20  23
ENDBRANCH   1  21
TORSDOF 4
ENDMDL
MODEL 5
REMARK VINA RESULT:      -7.2      2.186      2.933
REMARK  Name = 
REMARK  6 active torsions:
REMARK  status: ('A' for Active; 'I' for Inactive)
REMARK    1  A    between atoms: C_1  and  C_2
REMARK    2  A    between atoms: C_2  and  C_3
REMARK    3  A    between atoms: C_2  and  O_4
REMARK    4  A    between atoms: C_2  and  C_5
REMARK    5  A    between atoms: C_6  and  C_7
REMARK    6  A    between atoms: C_15  and  C_16
REMARK                            x       y       z     vdW  Elec       q    Type
REMARK                         _______ _______ _______ _____ _____    ______ ____
ROOT
ATOM      1  C   UNL     1       1.423   8.880  19.581  0.00  0.00    +0.000 A 
ATOM      2  C   UNL     1       0.872   8.333  20.737  0.00  0.00    +0.000 A 
ATOM      3  C   UNL     1       1.182   7.025  21.103  0.00  0.00    +0.000 A 
ATOM      4  C   UNL     1       2.019   6.220  20.311  0.00  0.00    +0.000 A 
ATOM      5  C   UNL     1       2.584   6.756  19.138  0.00  0.00    +0.000 A 
ATOM      6  C   UNL     1       2.280   8.097  18.793  0.00  0.00    +0.000 A 
ATOM      7  C   UNL     1       3.429   5.984  18.225  0.00  0.00    +0.000 A 
ATOM      8  N   UNL     1       4.463   6.532  17.467  0.00  0.00    +0.000 NA
ATOM      9  C   UNL     1       5.023   5.576  16.737  0.00  0.00    +0.000 A 
ATOM     10  S   UNL     1       4.324   4.017  16.882  0.00  0.00    +0.000 S 
ATOM     11  C   UNL     1       3.211   4.640  18.009  0.00  0.00    +0.000 A 
ATOM     12  C   UNL     1       2.205   3.778  18.678  0.00  0.00    +0.000 C 
ATOM     13  C   UNL     1       2.485   3.795  20.172  0.00  0.00    +0.000 C 
ATOM     14  O   UNL     1       2.178   4.991  20.883  0.00  0.00    +0.000 OA
ENDROOT
BRANCH   9  15
ATOM     15  C   UNL     1       6.166   5.763  15.846  0.00  0.00    +0.000 C 
ATOM     16  N   UNL     1       7.304   6.241  16.437  0.00  0.00    +0.000 N 
ATOM     17  O   UNL     1       6.185   5.526  14.640  0.00  0.00    +0.000 OA
ATOM     18  H   UNL     1       7.329   6.435  17.429  0.00  0.00    +0.000 HD
ATOM     19  H   UNL     1       8.123   6.376  15.857  0.00  0.00    +0.000 HD
ENDBRANCH   9  15
BRANCH   1  21
ATOM     20  C   UNL     1       0.821  11.378  18.976  0.00  0.00    +0.000 C 
ATOM     21  C   UNL     1       1.096  10.233  19.223  0.00  0.00    +0.000 C 
BRANCH  20  23
ATOM     22  C   UNL     1       1.751  13.548  18.227  0.00  0.00    +0.000 C 
ATOM     23  C   UNL     1       0.501  12.792  18.685  0.00  0.00    +0.000 C 
ATOM     24  C   UNL     1      -0.108  13.484  19.906  0.00  0.00    +0.000 C 
BRANCH  23  25
ATOM     25  O   UNL     1      -0.457  12.828  17.627  0.00  0.00    +0.000 OA
ATOM     26  H   UNL     1      -1.252  12.362  17.932  0.00  0.00    +0.000 HD
ENDBRANCH  23  25
ENDBRANCH  20  23
ENDBRANCH   1  21
TORSDOF 4
ENDMDL
MODEL 6
REMARK VINA RESULT:      -7.0      1.632      1.996
REMARK  Name = 
REMARK  6 active torsions:
REMARK  status: ('A' for Active; 'I' for Inactive)
REMARK    1  A    between atoms: C_1  and  C_2
REMARK    2  A    between atoms: C_2  and  C_3
REMARK    3  A    between atoms: C_2  and  O_4
REMARK    4  A    between atoms: C_2  and  C_5
REMARK    5  A    between atoms: C_6  and  C_7
REMARK    6  A    between atoms: C_15  and  C_16
REMARK                            x       y       z     vdW  Elec       q    Type
REMARK                         _______ _______ _______ _____ _____    ______ ____
ROOT
ATOM      1  C   UNL     1       1.754   7.979  19.612  0.00  0.00    +0.000 A 
ATOM      2  C   UNL     1       1.196   7.250  20.659  0.00  0.00    +0.000 A 
ATOM      3  C   UNL     1       1.566   5.922  20.856  0.00  0.00    +0.000 A 
ATOM      4  C   UNL     1       2.474   5.278  19.997  0.00  0.00    +0.000 A 
ATOM      5  C   UNL     1       3.047   6.000  18.932  0.00  0.00    +0.000 A 
ATOM      6  C   UNL     1       2.679   7.358  18.761  0.00  0.00    +0.000 A 
ATOM      7  C   UNL     1       3.965   5.406  17.958  0.00  0.00    +0.000 A 
ATOM      8  N   UNL     1       4.991   6.106  17.325  0.00  0.00    +0.000 NA
ATOM      9  C   UNL     1       5.629   5.290  16.496  0.00  0.00    +0.000 A 
ATOM     10  S   UNL     1       5.015   3.693  16.398  0.00  0.00    +0.000 S 
ATOM     11  C   UNL     1       3.830   4.095  17.552  0.00  0.00    +0.000 A 
ATOM     12  C   UNL     1       2.853   3.099  18.055  0.00  0.00    +0.000 C 
ATOM     13  C   UNL     1       3.081   2.923  19.548  0.00  0.00    +0.000 C 
ATOM     14  O   UNL     1       2.683   3.992  20.402  0.00  0.00    +0.000 OA
ENDROOT
BRANCH   9  15
ATOM     15  C   UNL     1       6.789   5.658  15.687  0.00  0.00    +0.000 C 
ATOM     16  N   UNL     1       6.813   5.141  14.419  0.00  0.00    +0.000 N 
ATOM     17  O   UNL     1       7.716   6.381  16.044  0.00  0.00    +0.000 OA
ATOM     18  H   UNL     1       6.060   4.553  14.086  0.00  0.00    +0.000 HD
ATOM     19  H   UNL     1       7.594   5.378  13.821  0.00  0.00    +0.000 HD
ENDBRANCH   9  15
BRANCH   1  21
ATOM     20  C   UNL     1       1.050  10.494  19.225  0.00  0.00    +0.000 C 
ATOM     21  C   UNL     1       1.362   9.351  19.429  0.00  0.00    +0.000 C 
BRANCH  20  23
ATOM     22  C   UNL     1       0.913  12.776  20.178  0.00  0.00    +0.000 C 
ATOM     23  C   UNL     1       0.652  11.893  18.956  0.00  0.00    +0.000 C 
ATOM     24  C   UNL     1      -0.820  11.982  18.552  0.00  0.00    +0.000 C 
BRANCH  23  25
ATOM     25  O   UNL     1       1.443  12.384  17.872  0.00  0.00    +0.000 OA
ATOM     26  H   UNL     1       1.804  13.245  18.137  0.00  0.00    +0.000 HD
ENDBRANCH  23  25
ENDBRANCH  20  23
ENDBRANCH   1  21
TORSDOF 4
ENDMDL
MODEL 7
REMARK VINA RESULT:      -6.8      2.837      4.799
REMARK  Name = 
REMARK  6 active torsions:
REMARK  status: ('A' for Active; 'I' for Inactive)
REMARK    1  A    between atoms: C_1  and  C_2
REMARK    2  A    between atoms: C_2  and  C_3
REMARK    3  A    between atoms: C_2  and  O_4
REMARK    4  A    between atoms: C_2  and  C_5
REMARK    5  A    between atoms: C_6  and  C_7
REMARK    6  A    between atoms: C_15  and  C_16
REMARK                            x       y       z     vdW  Elec       q    Type
REMARK                         _______ _______ _______ _____ _____    ______ ____
ROOT
ATOM      1  C   UNL     1       1.226   9.440  19.527  0.00  0.00    +0.000 A 
ATOM      2  C   UNL     1       1.644   9.964  18.307  0.00  0.00    +0.000 A 
ATOM      3  C   UNL     1       2.420   9.190  17.447  0.00  0.00    +0.000 A 
ATOM      4  C   UNL     1       2.827   7.891  17.795  0.00  0.00    +0.000 A 
ATOM      5  C   UNL     1       2.415   7.345  19.027  0.00  0.00    +0.000 A 
ATOM      6  C   UNL     1       1.604   8.136  19.878  0.00  0.00    +0.000 A 
ATOM      7  C   UNL     1       2.824   6.021  19.498  0.00  0.00    +0.000 A 
ATOM      8  N   UNL     1       2.037   5.202  20.308  0.00  0.00    +0.000 NA
ATOM      9  C   UNL     1       2.696   4.081  20.567  0.00  0.00    +0.000 A 
ATOM     10  S   UNL     1       4.275   3.972  19.911  0.00  0.00    +0.000 S 
ATOM     11  C   UNL     1       4.072   5.510  19.210  0.00  0.00    +0.000 A 
ATOM     12  C   UNL     1       5.118   6.131  18.362  0.00  0.00    +0.000 C 
ATOM     13  C   UNL     1       4.548   6.319  16.965  0.00  0.00    +0.000 C 
ATOM     14  O   UNL     1       3.565   7.336  16.790  0.00  0.00    +0.000 OA
ENDROOT
BRANCH   9  15
ATOM     15  C   UNL     1       2.174   2.965  21.353  0.00  0.00    +0.000 C 
ATOM     16  N   UNL     1       0.834   2.721  21.216  0.00  0.00    +0.000 N 
ATOM     17  O   UNL     1       2.828   2.245  22.104  0.00  0.00    +0.000 OA
ATOM     18  H   UNL     1       0.266   3.285  20.597  0.00  0.00    +0.000 HD
ATOM     19  H   UNL     1       0.433   1.951  21.736  0.00  0.00    +0.000 HD
ENDBRANCH   9  15
BRANCH   1  21
ATOM     20  C   UNL     1      -0.215  10.972  21.122  0.00  0.00    +0.000 C 
ATOM     21  C   UNL     1       0.421  10.253  20.398  0.00  0.00    +0.000 C 
BRANCH  20  23
ATOM     22  C   UNL     1      -1.495  11.128  23.237  0.00  0.00    +0.000 C 
ATOM     23  C   UNL     1      -0.998  11.873  21.996  0.00  0.00    +0.000 C 
ATOM     24  C   UNL     1      -2.182  12.482  21.244  0.00  0.00    +0.000 C 
BRANCH  23  25
ATOM     25  O   UNL     1      -0.145  12.936  22.423  0.00  0.00    +0.000 OA
ATOM     26  H   UNL     1       0.376  13.223  21.657  0.00  0.00    +0.000 HD
ENDBRANCH  23  25
ENDBRANCH  20  23
ENDBRANCH   1  21
TORSDOF 4
ENDMDL
MODEL 8
REMARK VINA RESULT:      -6.8      7.826     11.115
REMARK  Name = 
REMARK  6 active torsions:
REMARK  status: ('A' for Active; 'I' for Inactive)
REMARK    1  A    between atoms: C_1  and  C_2
REMARK    2  A    between atoms: C_2  and  C_3
REMARK    3  A    between atoms: C_2  and  O_4
REMARK    4  A    between atoms: C_2  and  C_5
REMARK    5  A    between atoms: C_6  and  C_7
REMARK    6  A    between atoms: C_15  and  C_16
REMARK                            x       y       z     vdW  Elec       q    Type
REMARK                         _______ _______ _______ _____ _____    ______ ____
ROOT
ATOM      1  C   UNL     1       9.259  10.676  18.452  0.00  0.00    +0.000 A 
ATOM      2  C   UNL     1      10.604  10.591  18.798  0.00  0.00    +0.000 A 
ATOM      3  C   UNL     1      11.308  11.743  19.142  0.00  0.00    +0.000 A 
ATOM      4  C   UNL     1      10.699  13.010  19.116  0.00  0.00    +0.000 A 
ATOM      5  C   UNL     1       9.338  13.114  18.767  0.00  0.00    +0.000 A 
ATOM      6  C   UNL     1       8.630  11.930  18.445  0.00  0.00    +0.000 A 
ATOM      7  C   UNL     1       8.628  14.391  18.667  0.00  0.00    +0.000 A 
ATOM      8  N   UNL     1       7.271  14.553  18.942  0.00  0.00    +0.000 NA
ATOM      9  C   UNL     1       6.934  15.821  18.745  0.00  0.00    +0.000 A 
ATOM     10  S   UNL     1       8.186  16.850  18.187  0.00  0.00    +0.000 S 
ATOM     11  C   UNL     1       9.264  15.533  18.227  0.00  0.00    +0.000 A 
ATOM     12  C   UNL     1      10.698  15.681  17.880  0.00  0.00    +0.000 C 
ATOM     13  C   UNL     1      11.522  15.342  19.112  0.00  0.00    +0.000 C 
ATOM     14  O   UNL     1      11.585  13.973  19.502  0.00  0.00    +0.000 OA
ENDROOT
BRANCH   9  15
ATOM     15  C   UNL     1       5.602  16.378  18.970  0.00  0.00    +0.000 C 
ATOM     16  N   UNL     1       4.635  15.476  19.324  0.00  0.00    +0.000 N 
ATOM     17  O   UNL     1       5.292  17.563  18.874  0.00  0.00    +0.000 OA
ATOM     18  H   UNL     1       4.857  14.494  19.425  0.00  0.00    +0.000 HD
ATOM     19  H   UNL     1       3.700  15.820  19.498  0.00  0.00    +0.000 HD
ENDBRANCH   9  15
BRANCH   1  21
ATOM     20  C   UNL     1       7.995   8.440  17.838  0.00  0.00    +0.000 C 
ATOM     21  C   UNL     1       8.549   9.474  18.106  0.00  0.00    +0.000 C 
BRANCH  20  23
ATOM     22  C   UNL     1       5.805   7.370  17.401  0.00  0.00    +0.000 C 
ATOM     23  C   UNL     1       7.316   7.163  17.532  0.00  0.00    +0.000 C 
ATOM     24  C   UNL     1       7.607   6.110  18.603  0.00  0.00    +0.000 C 
BRANCH  23  25
ATOM     25  O   UNL     1       7.811   6.679  16.283  0.00  0.00    +0.000 OA
ATOM     26  H   UNL     1       8.774   6.802  16.280  0.00  0.00    +0.000 HD
ENDBRANCH  23  25
ENDBRANCH  20  23
ENDBRANCH   1  21
TORSDOF 4
ENDMDL
MODEL 9
REMARK VINA RESULT:      -6.6      4.151      7.894
REMARK  Name = 
REMARK  6 active torsions:
REMARK  status: ('A' for Active; 'I' for Inactive)
REMARK    1  A    between atoms: C_1  and  C_2
REMARK    2  A    between atoms: C_2  and  C_3
REMARK    3  A    between atoms: C_2  and  O_4
REMARK    4  A    between atoms: C_2  and  C_5
REMARK    5  A    between atoms: C_6  and  C_7
REMARK    6  A    between atoms: C_15  and  C_16
REMARK                            x       y       z     vdW  Elec       q    Type
REMARK                         _______ _______ _______ _____ _____    ______ ____
ROOT
ATOM      1  C   UNL     1       2.650   7.054  18.936  0.00  0.00    +0.000 A 
ATOM      2  C   UNL     1       2.240   6.097  19.860  0.00  0.00    +0.000 A 
ATOM      3  C   UNL     1       1.289   6.424  20.823  0.00  0.00    +0.000 A 
ATOM      4  C   UNL     1       0.749   7.718  20.912  0.00  0.00    +0.000 A 
ATOM      5  C   UNL     1       1.153   8.700  19.986  0.00  0.00    +0.000 A 
ATOM      6  C   UNL     1       2.102   8.344  18.996  0.00  0.00    +0.000 A 
ATOM      7  C   UNL     1       0.683  10.086  20.025  0.00  0.00    +0.000 A 
ATOM      8  N   UNL     1       0.523  10.888  18.895  0.00  0.00    +0.000 NA
ATOM      9  C   UNL     1       0.098  12.088  19.269  0.00  0.00    +0.000 A 
ATOM     10  S   UNL     1      -0.081  12.326  20.957  0.00  0.00    +0.000 S 
ATOM     11  C   UNL     1       0.418  10.720  21.220  0.00  0.00    +0.000 A 
ATOM     12  C   UNL     1       0.477  10.129  22.579  0.00  0.00    +0.000 C 
ATOM     13  C   UNL     1      -0.507   8.972  22.636  0.00  0.00    +0.000 C 
ATOM     14  O   UNL     1      -0.166   7.786  21.923  0.00  0.00    +0.000 OA
ENDROOT
BRANCH   9  15
ATOM     15  C   UNL     1      -0.220  13.185  18.357  0.00  0.00    +0.000 C 
ATOM     16  N   UNL     1      -1.088  12.880  17.344  0.00  0.00    +0.000 N 
ATOM     17  O   UNL     1       0.217  14.331  18.431  0.00  0.00    +0.000 OA
ATOM     18  H   UNL     1      -1.477  11.949  17.260  0.00  0.00    +0.000 HD
ATOM     19  H   UNL     1      -1.343  13.613  16.696  0.00  0.00    +0.000 HD
ENDBRANCH   9  15
BRANCH   1  21
ATOM     20  C   UNL     1       4.473   6.366  17.155  0.00  0.00    +0.000 C 
ATOM     21  C   UNL     1       3.629   6.695  17.946  0.00  0.00    +0.000 C 
BRANCH  20  23
ATOM     22  C   UNL     1       5.281   4.488  15.757  0.00  0.00    +0.000 C 
ATOM     23  C   UNL     1       5.507   5.939  16.188  0.00  0.00    +0.000 C 
ATOM     24  C   UNL     1       6.912   6.096  16.773  0.00  0.00    +0.000 C 
BRANCH  23  25
ATOM     25  O   UNL     1       5.410   6.770  15.030  0.00  0.00    +0.000 OA
ATOM     26  H   UNL     1       5.613   7.679  15.302  0.00  0.00    +0.000 HD
ENDBRANCH  23  25
ENDBRANCH  20  23
ENDBRANCH   1  21
TORSDOF 4
ENDMDL
