MODEL 1
REMARK VINA RESULT:      -6.4      0.000      0.000
REMARK  Name = 
REMARK  10 active torsions:
REMARK  status: ('A' for Active; 'I' for Inactive)
REMARK    1  A    between atoms: C_2  and  C_3
REMARK    2  A    between atoms: C_3  and  C_4
REMARK    3  A    between atoms: C_7  and  O_8
REMARK    4  A    between atoms: O_8  and  C_9
REMARK    5  A    between atoms: C_9  and  C_10
REMARK    6  A    between atoms: C_10  and  O_11
REMARK    7  A    between atoms: C_10  and  C_12
REMARK    8  A    between atoms: C_12  and  O_13
REMARK    9  A    between atoms: C_14  and  O_15
REMARK   10  A    between atoms: O_15  and  C_16
REMARK                            x       y       z     vdW  Elec       q    Type
REMARK                         _______ _______ _______ _____ _____    ______ ____
ROOT
ATOM      1  C   UNL     1       1.997   3.920  18.655  0.00  0.00    +0.000 A 
ATOM      2  C   UNL     1       2.717   3.007  17.890  0.00  0.00    +0.000 A 
ATOM      3  C   UNL     1       3.779   3.437  17.104  0.00  0.00    +0.000 A 
ATOM      4  C   UNL     1       4.155   4.794  17.052  0.00  0.00    +0.000 A 
ATOM      5  C   UNL     1       3.441   5.723  17.843  0.00  0.00    +0.000 A 
ATOM      6  C   UNL     1       2.370   5.272  18.634  0.00  0.00    +0.000 A 
ENDROOT
BRANCH   5   7
ATOM      7  O   UNL     1       3.841   7.036  17.782  0.00  0.00    +0.000 OA
ATOM      8  C   UNL     1       2.820   8.027  17.877  0.00  0.00    +0.000 C 
ENDBRANCH   5   7
BRANCH   1   9
ATOM      9  C   UNL     1       0.857   3.432  19.516  0.00  0.00    +0.000 C 
BRANCH   9  11
ATOM     10  C   UNL     1       2.095   3.325  21.700  0.00  0.00    +0.000 C 
ATOM     11  C   UNL     1       1.345   2.742  20.755  0.00  0.00    +0.000 C 
ENDBRANCH   9  11
ENDBRANCH   1   9
BRANCH   4  12
ATOM     12  O   UNL     1       5.191   5.254  16.266  0.00  0.00    +0.000 OA
BRANCH  12  13
ATOM     13  C   UNL     1       6.415   4.526  16.400  0.00  0.00    +0.000 C 
BRANCH  13  14
ATOM     14  C   UNL     1       7.142   4.793  17.717  0.00  0.00    +0.000 C 
BRANCH  14  15
ATOM     15  O   UNL     1       8.349   4.009  17.732  0.00  0.00    +0.000 OA
ATOM     16  H   UNL     1       8.723   4.020  16.832  0.00  0.00    +0.000 HD
ENDBRANCH  14  15
BRANCH  14  17
ATOM     17  C   UNL     1       7.478   6.274  17.899  0.00  0.00    +0.000 C 
BRANCH  17  18
ATOM     18  O   UNL     1       7.580   6.941  16.639  0.00  0.00    +0.000 OA
ATOM     19  H   UNL     1       8.400   6.637  16.211  0.00  0.00    +0.000 HD
ENDBRANCH  17  18
ENDBRANCH  14  17
ENDBRANCH  13  14
ENDBRANCH  12  13
ENDBRANCH   4  12
TORSDOF 9
ENDMDL
MODEL 2
REMARK VINA RESULT:      -6.0      0.999      1.015
REMARK  Name = 
REMARK  10 active torsions:
REMARK  status: ('A' for Active; 'I' for Inactive)
REMARK    1  A    between atoms: C_2  and  C_3
REMARK    2  A    between atoms: C_3  and  C_4
REMARK    3  A    between atoms: C_7  and  O_8
REMARK    4  A    between atoms: O_8  and  C_9
REMARK    5  A    between atoms: C_9  and  C_10
REMARK    6  A    between atoms: C_10  and  O_11
REMARK    7  A    between atoms: C_10  and  C_12
REMARK    8  A    between atoms: C_12  and  O_13
REMARK    9  A    between atoms: C_14  and  O_15
REMARK   10  A    between atoms: O_15  and  C_16
REMARK                            x       y       z     vdW  Elec       q    Type
REMARK                         _______ _______ _______ _____ _____    ______ ____
ROOT
ATOM      1  C   UNL     1       1.777   3.783  18.967  0.00  0.00    +0.000 A 
ATOM      2  C   UNL     1       2.311   2.855  18.078  0.00  0.00    +0.000 A 
ATOM      3  C   UNL     1       3.300   3.236  17.180  0.00  0.00    +0.000 A 
ATOM      4  C   UNL     1       3.786   4.558  17.136  0.00  0.00    +0.000 A 
ATOM      5  C   UNL     1       3.262   5.500  18.051  0.00  0.00    +0.000 A 
ATOM      6  C   UNL     1       2.263   5.098  18.954  0.00  0.00    +0.000 A 
ENDROOT
BRANCH   5   7
ATOM      7  O   UNL     1       3.766   6.777  17.993  0.00  0.00    +0.000 OA
ATOM      8  C   UNL     1       2.821   7.842  17.933  0.00  0.00    +0.000 C 
ENDBRANCH   5   7
BRANCH   1   9
ATOM      9  C   UNL     1       0.715   3.346  19.947  0.00  0.00    +0.000 C 
BRANCH   9  11
ATOM     10  C   UNL     1       2.610   2.727  21.476  0.00  0.00    +0.000 C 
ATOM     11  C   UNL     1       1.303   2.929  21.263  0.00  0.00    +0.000 C 
ENDBRANCH   9  11
ENDBRANCH   1   9
BRANCH   4  12
ATOM     12  O   UNL     1       4.752   4.972  16.243  0.00  0.00    +0.000 OA
BRANCH  12  13
ATOM     13  C   UNL     1       5.885   4.103  16.140  0.00  0.00    +0.000 C 
BRANCH  13  14
ATOM     14  C   UNL     1       7.222   4.834  16.241  0.00  0.00    +0.000 C 
BRANCH  14  15
ATOM     15  O   UNL     1       7.558   5.342  14.937  0.00  0.00    +0.000 OA
ATOM     16  H   UNL     1       7.352   4.648  14.284  0.00  0.00    +0.000 HD
ENDBRANCH  14  15
BRANCH  14  17
ATOM     17  C   UNL     1       7.177   5.981  17.253  0.00  0.00    +0.000 C 
BRANCH  17  18
ATOM     18  O   UNL     1       6.480   7.111  16.724  0.00  0.00    +0.000 OA
ATOM     19  H   UNL     1       5.526   6.922  16.783  0.00  0.00    +0.000 HD
ENDBRANCH  17  18
ENDBRANCH  14  17
ENDBRANCH  13  14
ENDBRANCH  12  13
ENDBRANCH   4  12
TORSDOF 9
ENDMDL
MODEL 3
REMARK VINA RESULT:      -5.9      1.249      2.788
REMARK  Name = 
REMARK  10 active torsions:
REMARK  status: ('A' for Active; 'I' for Inactive)
REMARK    1  A    between atoms: C_2  and  C_3
REMARK    2  A    between atoms: C_3  and  C_4
REMARK    3  A    between atoms: C_7  and  O_8
REMARK    4  A    between atoms: O_8  and  C_9
REMARK    5  A    between atoms: C_9  and  C_10
REMARK    6  A    between atoms: C_10  and  O_11
REMARK    7  A    between atoms: C_10  and  C_12
REMARK    8  A    between atoms: C_12  and  O_13
REMARK    9  A    between atoms: C_14  and  O_15
REMARK   10  A    between atoms: O_15  and  C_16
REMARK                            x       y       z     vdW  Elec       q    Type
REMARK                         _______ _______ _______ _____ _____    ______ ____
ROOT
ATOM      1  C   UNL     1       2.611   4.416  17.767  0.00  0.00    +0.000 A 
ATOM      2  C   UNL     1       2.643   5.784  18.022  0.00  0.00    +0.000 A 
ATOM      3  C   UNL     1       3.723   6.549  17.600  0.00  0.00    +0.000 A 
ATOM      4  C   UNL     1       4.811   5.973  16.913  0.00  0.00    +0.000 A 
ATOM      5  C   UNL     1       4.774   4.588  16.632  0.00  0.00    +0.000 A 
ATOM      6  C   UNL     1       3.673   3.828  17.065  0.00  0.00    +0.000 A 
ENDROOT
BRANCH   5   7
ATOM      7  O   UNL     1       5.841   4.058  15.948  0.00  0.00    +0.000 OA
ATOM      8  C   UNL     1       5.747   4.029  14.527  0.00  0.00    +0.000 C 
ENDBRANCH   5   7
BRANCH   1   9
ATOM      9  C   UNL     1       1.421   3.604  18.219  0.00  0.00    +0.000 C 
BRANCH   9  11
ATOM     10  C   UNL     1       1.547   3.171  20.690  0.00  0.00    +0.000 C 
ATOM     11  C   UNL     1       1.070   3.871  19.652  0.00  0.00    +0.000 C 
ENDBRANCH   9  11
ENDBRANCH   1   9
BRANCH   4  12
ATOM     12  O   UNL     1       5.906   6.702  16.499  0.00  0.00    +0.000 OA
BRANCH  12  13
ATOM     13  C   UNL     1       6.569   7.430  17.537  0.00  0.00    +0.000 C 
BRANCH  13  14
ATOM     14  C   UNL     1       7.842   6.751  18.038  0.00  0.00    +0.000 C 
BRANCH  14  15
ATOM     15  O   UNL     1       8.570   7.696  18.843  0.00  0.00    +0.000 OA
ATOM     16  H   UNL     1       9.337   8.001  18.326  0.00  0.00    +0.000 HD
ENDBRANCH  14  15
BRANCH  14  17
ATOM     17  C   UNL     1       7.541   5.492  18.855  0.00  0.00    +0.000 C 
BRANCH  17  18
ATOM     18  O   UNL     1       7.877   4.309  18.126  0.00  0.00    +0.000 OA
ATOM     19  H   UNL     1       8.357   3.717  18.732  0.00  0.00    +0.000 HD
ENDBRANCH  17  18
ENDBRANCH  14  17
ENDBRANCH  13  14
ENDBRANCH  12  13
ENDBRANCH   4  12
TORSDOF 9
ENDMDL
MODEL 4
REMARK VINA RESULT:      -5.9      2.649      5.819
REMARK  Name = 
REMARK  10 active torsions:
REMARK  status: ('A' for Active; 'I' for Inactive)
REMARK    1  A    between atoms: C_2  and  C_3
REMARK    2  A    between atoms: C_3  and  C_4
REMARK    3  A    between atoms: C_7  and  O_8
REMARK    4  A    between atoms: O_8  and  C_9
REMARK    5  A    between atoms: C_9  and  C_10
REMARK    6  A    between atoms: C_10  and  O_11
REMARK    7  A    between atoms: C_10  and  C_12
REMARK    8  A    between atoms: C_12  and  O_13
REMARK    9  A    between atoms: C_14  and  O_15
REMARK   10  A    between atoms: O_15  and  C_16
REMARK                            x       y       z     vdW  Elec       q    Type
REMARK                         _______ _______ _______ _____ _____    ______ ____
ROOT
ATOM      1  C   UNL     1       6.122   4.460  15.808  0.00  0.00    +0.000 A 
ATOM      2  C   UNL     1       4.825   3.974  15.954  0.00  0.00    +0.000 A 
ATOM      3  C   UNL     1       4.274   3.821  17.219  0.00  0.00    +0.000 A 
ATOM      4  C   UNL     1       5.000   4.143  18.383  0.00  0.00    +0.000 A 
ATOM      5  C   UNL     1       6.309   4.657  18.241  0.00  0.00    +0.000 A 
ATOM      6  C   UNL     1       6.852   4.808  16.953  0.00  0.00    +0.000 A 
ENDROOT
BRANCH   5   7
ATOM      7  O   UNL     1       6.986   4.976  19.393  0.00  0.00    +0.000 OA
ATOM      8  C   UNL     1       8.027   5.944  19.285  0.00  0.00    +0.000 C 
ENDBRANCH   5   7
BRANCH   1   9
ATOM      9  C   UNL     1       6.698   4.636  14.424  0.00  0.00    +0.000 C 
BRANCH   9  11
ATOM     10  C   UNL     1       6.492   3.522  12.181  0.00  0.00    +0.000 C 
ATOM     11  C   UNL     1       6.033   3.741  13.421  0.00  0.00    +0.000 C 
ENDBRANCH   9  11
ENDBRANCH   1   9
BRANCH   4  12
ATOM     12  O   UNL     1       4.488   3.983  19.654  0.00  0.00    +0.000 OA
BRANCH  12  13
ATOM     13  C   UNL     1       3.594   2.876  19.805  0.00  0.00    +0.000 C 
BRANCH  13  14
ATOM     14  C   UNL     1       2.432   3.158  20.755  0.00  0.00    +0.000 C 
BRANCH  14  15
ATOM     15  O   UNL     1       2.706   2.505  22.008  0.00  0.00    +0.000 OA
ATOM     16  H   UNL     1       1.895   2.541  22.547  0.00  0.00    +0.000 HD
ENDBRANCH  14  15
BRANCH  14  17
ATOM     17  C   UNL     1       2.223   4.656  20.981  0.00  0.00    +0.000 C 
BRANCH  17  18
ATOM     18  O   UNL     1       1.895   5.324  19.760  0.00  0.00    +0.000 OA
ATOM     19  H   UNL     1       1.722   4.640  19.089  0.00  0.00    +0.000 HD
ENDBRANCH  17  18
ENDBRANCH  14  17
ENDBRANCH  13  14
ENDBRANCH  12  13
ENDBRANCH   4  12
TORSDOF 9
ENDMDL
MODEL 5
REMARK VINA RESULT:      -5.8      2.874      5.953
REMARK  Name = 
REMARK  10 active torsions:
REMARK  status: ('A' for Active; 'I' for Inactive)
REMARK    1  A    between atoms: C_2  and  C_3
REMARK    2  A    between atoms: C_3  and  C_4
REMARK    3  A    between atoms: C_7  and  O_8
REMARK    4  A    between atoms: O_8  and  C_9
REMARK    5  A    between atoms: C_9  and  C_10
REMARK    6  A    between atoms: C_10  and  O_11
REMARK    7  A    between atoms: C_10  and  C_12
REMARK    8  A    between atoms: C_12  and  O_13
REMARK    9  A    between atoms: C_14  and  O_15
REMARK   10  A    between atoms: O_15  and  C_16
REMARK                            x       y       z     vdW  Elec       q    Type
REMARK                         _______ _______ _______ _____ _____    ______ ____
ROOT
ATOM      1  C   UNL     1       5.803   4.647  15.883  0.00  0.00    +0.000 A 
ATOM      2  C   UNL     1       4.586   3.981  16.003  0.00  0.00    +0.000 A 
ATOM      3  C   UNL     1       4.082   3.667  17.258  0.00  0.00    +0.000 A 
ATOM      4  C   UNL     1       4.777   4.004  18.437  0.00  0.00    +0.000 A 
ATOM      5  C   UNL     1       6.002   4.699  18.323  0.00  0.00    +0.000 A 
ATOM      6  C   UNL     1       6.498   5.011  17.045  0.00  0.00    +0.000 A 
ENDROOT
BRANCH   5   7
ATOM      7  O   UNL     1       6.649   5.026  19.490  0.00  0.00    +0.000 OA
ATOM      8  C   UNL     1       7.866   5.758  19.371  0.00  0.00    +0.000 C 
ENDBRANCH   5   7
BRANCH   1   9
ATOM      9  C   UNL     1       6.327   4.996  14.511  0.00  0.00    +0.000 C 
BRANCH   9  11
ATOM     10  C   UNL     1       5.779   3.533  12.543  0.00  0.00    +0.000 C 
ATOM     11  C   UNL     1       6.495   3.780  13.649  0.00  0.00    +0.000 C 
ENDBRANCH   9  11
ENDBRANCH   1   9
BRANCH   4  12
ATOM     12  O   UNL     1       4.312   3.687  19.697  0.00  0.00    +0.000 OA
BRANCH  12  13
ATOM     13  C   UNL     1       3.588   2.455  19.778  0.00  0.00    +0.000 C 
BRANCH  13  14
ATOM     14  C   UNL     1       2.072   2.639  19.776  0.00  0.00    +0.000 C 
BRANCH  14  15
ATOM     15  O   UNL     1       1.490   1.562  19.019  0.00  0.00    +0.000 OA
ATOM     16  H   UNL     1       0.537   1.744  18.926  0.00  0.00    +0.000 HD
ENDBRANCH  14  15
BRANCH  14  17
ATOM     17  C   UNL     1       1.492   2.658  21.191  0.00  0.00    +0.000 C 
BRANCH  17  18
ATOM     18  O   UNL     1       2.514   2.868  22.167  0.00  0.00    +0.000 OA
ATOM     19  H   UNL     1       2.112   2.743  23.046  0.00  0.00    +0.000 HD
ENDBRANCH  17  18
ENDBRANCH  14  17
ENDBRANCH  13  14
ENDBRANCH  12  13
ENDBRANCH   4  12
TORSDOF 9
ENDMDL
MODEL 6
REMARK VINA RESULT:      -5.8      0.802      1.380
REMARK  Name = 
REMARK  10 active torsions:
REMARK  status: ('A' for Active; 'I' for Inactive)
REMARK    1  A    between atoms: C_2  and  C_3
REMARK    2  A    between atoms: C_3  and  C_4
REMARK    3  A    between atoms: C_7  and  O_8
REMARK    4  A    between atoms: O_8  and  C_9
REMARK    5  A    between atoms: C_9  and  C_10
REMARK    6  A    between atoms: C_10  and  O_11
REMARK    7  A    between atoms: C_10  and  C_12
REMARK    8  A    between atoms: C_12  and  O_13
REMARK    9  A    between atoms: C_14  and  O_15
REMARK   10  A    between atoms: O_15  and  C_16
REMARK                            x       y       z     vdW  Elec       q    Type
REMARK                         _______ _______ _______ _____ _____    ______ ____
ROOT
ATOM      1  C   UNL     1       1.969   3.387  18.552  0.00  0.00    +0.000 A 
ATOM      2  C   UNL     1       2.880   2.528  17.944  0.00  0.00    +0.000 A 
ATOM      3  C   UNL     1       3.957   3.041  17.233  0.00  0.00    +0.000 A 
ATOM      4  C   UNL     1       4.159   4.430  17.101  0.00  0.00    +0.000 A 
ATOM      5  C   UNL     1       3.250   5.307  17.735  0.00  0.00    +0.000 A 
ATOM      6  C   UNL     1       2.166   4.772  18.452  0.00  0.00    +0.000 A 
ENDROOT
BRANCH   5   7
ATOM      7  O   UNL     1       3.482   6.655  17.601  0.00  0.00    +0.000 OA
ATOM      8  C   UNL     1       2.646   7.532  18.352  0.00  0.00    +0.000 C 
ENDBRANCH   5   7
BRANCH   1   9
ATOM      9  C   UNL     1       0.814   2.811  19.336  0.00  0.00    +0.000 C 
BRANCH   9  11
ATOM     10  C   UNL     1       1.797   2.724  21.646  0.00  0.00    +0.000 C 
ATOM     11  C   UNL     1       0.878   3.185  20.787  0.00  0.00    +0.000 C 
ENDBRANCH   9  11
ENDBRANCH   1   9
BRANCH   4  12
ATOM     12  O   UNL     1       5.207   4.970  16.385  0.00  0.00    +0.000 OA
BRANCH  12  13
ATOM     13  C   UNL     1       6.494   4.811  16.992  0.00  0.00    +0.000 C 
BRANCH  13  14
ATOM     14  C   UNL     1       7.244   6.128  17.179  0.00  0.00    +0.000 C 
BRANCH  14  15
ATOM     15  O   UNL     1       6.361   7.205  16.817  0.00  0.00    +0.000 OA
ATOM     16  H   UNL     1       6.838   7.785  16.196  0.00  0.00    +0.000 HD
ENDBRANCH  14  15
BRANCH  14  17
ATOM     17  C   UNL     1       7.732   6.314  18.618  0.00  0.00    +0.000 C 
BRANCH  17  18
ATOM     18  O   UNL     1       7.863   5.058  19.286  0.00  0.00    +0.000 OA
ATOM     19  H   UNL     1       7.848   5.232  20.245  0.00  0.00    +0.000 HD
ENDBRANCH  17  18
ENDBRANCH  14  17
ENDBRANCH  13  14
ENDBRANCH  12  13
ENDBRANCH   4  12
TORSDOF 9
ENDMDL
MODEL 7
REMARK VINA RESULT:      -5.8      2.588      5.778
REMARK  Name = 
REMARK  10 active torsions:
REMARK  status: ('A' for Active; 'I' for Inactive)
REMARK    1  A    between atoms: C_2  and  C_3
REMARK    2  A    between atoms: C_3  and  C_4
REMARK    3  A    between atoms: C_7  and  O_8
REMARK    4  A    between atoms: O_8  and  C_9
REMARK    5  A    between atoms: C_9  and  C_10
REMARK    6  A    between atoms: C_10  and  O_11
REMARK    7  A    between atoms: C_10  and  C_12
REMARK    8  A    between atoms: C_12  and  O_13
REMARK    9  A    between atoms: C_14  and  O_15
REMARK   10  A    between atoms: O_15  and  C_16
REMARK                            x       y       z     vdW  Elec       q    Type
REMARK                         _______ _______ _______ _____ _____    ______ ____
ROOT
ATOM      1  C   UNL     1       6.271   4.564  15.552  0.00  0.00    +0.000 A 
ATOM      2  C   UNL     1       4.880   4.495  15.549  0.00  0.00    +0.000 A 
ATOM      3  C   UNL     1       4.179   4.476  16.748  0.00  0.00    +0.000 A 
ATOM      4  C   UNL     1       4.842   4.521  17.991  0.00  0.00    +0.000 A 
ATOM      5  C   UNL     1       6.252   4.612  18.000  0.00  0.00    +0.000 A 
ATOM      6  C   UNL     1       6.947   4.632  16.779  0.00  0.00    +0.000 A 
ENDROOT
BRANCH   5   7
ATOM      7  O   UNL     1       6.869   4.668  19.227  0.00  0.00    +0.000 OA
ATOM      8  C   UNL     1       7.793   5.733  19.437  0.00  0.00    +0.000 C 
ENDBRANCH   5   7
BRANCH   1   9
ATOM      9  C   UNL     1       7.015   4.602  14.240  0.00  0.00    +0.000 C 
BRANCH   9  11
ATOM     10  C   UNL     1       6.795   3.622  11.937  0.00  0.00    +0.000 C 
ATOM     11  C   UNL     1       6.327   3.792  13.181  0.00  0.00    +0.000 C 
ENDBRANCH   9  11
ENDBRANCH   1   9
BRANCH   4  12
ATOM     12  O   UNL     1       4.175   4.482  19.198  0.00  0.00    +0.000 OA
BRANCH  12  13
ATOM     13  C   UNL     1       2.886   3.862  19.151  0.00  0.00    +0.000 C 
BRANCH  13  14
ATOM     14  C   UNL     1       2.875   2.440  19.708  0.00  0.00    +0.000 C 
BRANCH  14  15
ATOM     15  O   UNL     1       2.958   1.523  18.602  0.00  0.00    +0.000 OA
ATOM     16  H   UNL     1       2.110   1.046  18.545  0.00  0.00    +0.000 HD
ENDBRANCH  14  15
BRANCH  14  17
ATOM     17  C   UNL     1       4.030   2.193  20.680  0.00  0.00    +0.000 C 
BRANCH  17  18
ATOM     18  O   UNL     1       5.239   1.889  19.981  0.00  0.00    +0.000 OA
ATOM     19  H   UNL     1       5.967   2.345  20.441  0.00  0.00    +0.000 HD
ENDBRANCH  17  18
ENDBRANCH  14  17
ENDBRANCH  13  14
ENDBRANCH  12  13
ENDBRANCH   4  12
TORSDOF 9
ENDMDL
MODEL 8
REMARK VINA RESULT:      -5.7      2.752      5.935
REMARK  Name = 
REMARK  10 active torsions:
REMARK  status: ('A' for Active; 'I' for Inactive)
REMARK    1  A    between atoms: C_2  and  C_3
REMARK    2  A    between atoms: C_3  and  C_4
REMARK    3  A    between atoms: C_7  and  O_8
REMARK    4  A    between atoms: O_8  and  C_9
REMARK    5  A    between atoms: C_9  and  C_10
REMARK    6  A    between atoms: C_10  and  O_11
REMARK    7  A    between atoms: C_10  and  C_12
REMARK    8  A    between atoms: C_12  and  O_13
REMARK    9  A    between atoms: C_14  and  O_15
REMARK   10  A    between atoms: O_15  and  C_16
REMARK                            x       y       z     vdW  Elec       q    Type
REMARK                         _______ _______ _______ _____ _____    ______ ____
ROOT
ATOM      1  C   UNL     1       6.221   4.390  15.370  0.00  0.00    +0.000 A 
ATOM      2  C   UNL     1       4.887   4.155  15.691  0.00  0.00    +0.000 A 
ATOM      3  C   UNL     1       4.485   4.109  17.019  0.00  0.00    +0.000 A 
ATOM      4  C   UNL     1       5.402   4.291  18.074  0.00  0.00    +0.000 A 
ATOM      5  C   UNL     1       6.754   4.550  17.754  0.00  0.00    +0.000 A 
ATOM      6  C   UNL     1       7.145   4.595  16.405  0.00  0.00    +0.000 A 
ENDROOT
BRANCH   5   7
ATOM      7  O   UNL     1       7.622   4.736  18.803  0.00  0.00    +0.000 OA
ATOM      8  C   UNL     1       7.927   6.083  19.157  0.00  0.00    +0.000 C 
ENDBRANCH   5   7
BRANCH   1   9
ATOM      9  C   UNL     1       6.637   4.454  13.920  0.00  0.00    +0.000 C 
BRANCH   9  11
ATOM     10  C   UNL     1       5.860   2.959  12.056  0.00  0.00    +0.000 C 
ATOM     11  C   UNL     1       5.600   3.861  13.012  0.00  0.00    +0.000 C 
ENDBRANCH   9  11
ENDBRANCH   1   9
BRANCH   4  12
ATOM     12  O   UNL     1       5.037   4.230  19.402  0.00  0.00    +0.000 OA
BRANCH  12  13
ATOM     13  C   UNL     1       3.627   4.279  19.640  0.00  0.00    +0.000 C 
BRANCH  13  14
ATOM     14  C   UNL     1       3.067   2.992  20.243  0.00  0.00    +0.000 C 
BRANCH  14  15
ATOM     15  O   UNL     1       2.368   3.331  21.455  0.00  0.00    +0.000 OA
ATOM     16  H   UNL     1       2.842   4.070  21.877  0.00  0.00    +0.000 HD
ENDBRANCH  14  15
BRANCH  14  17
ATOM     17  C   UNL     1       2.124   2.267  19.281  0.00  0.00    +0.000 C 
BRANCH  17  18
ATOM     18  O   UNL     1       2.824   1.289  18.509  0.00  0.00    +0.000 OA
ATOM     19  H   UNL     1       3.056   1.698  17.656  0.00  0.00    +0.000 HD
ENDBRANCH  17  18
ENDBRANCH  14  17
ENDBRANCH  13  14
ENDBRANCH  12  13
ENDBRANCH   4  12
TORSDOF 9
ENDMDL
MODEL 9
REMARK VINA RESULT:      -5.7      1.045      1.219
REMARK  Name = 
REMARK  10 active torsions:
REMARK  status: ('A' for Active; 'I' for Inactive)
REMARK    1  A    between atoms: C_2  and  C_3
REMARK    2  A    between atoms: C_3  and  C_4
REMARK    3  A    between atoms: C_7  and  O_8
REMARK    4  A    between atoms: O_8  and  C_9
REMARK    5  A    between atoms: C_9  and  C_10
REMARK    6  A    between atoms: C_10  and  O_11
REMARK    7  A    between atoms: C_10  and  C_12
REMARK    8  A    between atoms: C_12  and  O_13
REMARK    9  A    between atoms: C_14  and  O_15
REMARK   10  A    between atoms: O_15  and  C_16
REMARK                            x       y       z     vdW  Elec       q    Type
REMARK                         _______ _______ _______ _____ _____    ______ ____
ROOT
ATOM      1  C   UNL     1       2.293   3.973  18.184  0.00  0.00    +0.000 A 
ATOM      2  C   UNL     1       3.208   3.306  17.373  0.00  0.00    +0.000 A 
ATOM      3  C   UNL     1       4.226   4.010  16.743  0.00  0.00    +0.000 A 
ATOM      4  C   UNL     1       4.362   5.404  16.896  0.00  0.00    +0.000 A 
ATOM      5  C   UNL     1       3.449   6.083  17.734  0.00  0.00    +0.000 A 
ATOM      6  C   UNL     1       2.426   5.356  18.367  0.00  0.00    +0.000 A 
ENDROOT
BRANCH   5   7
ATOM      7  O   UNL     1       3.617   7.440  17.875  0.00  0.00    +0.000 OA
ATOM      8  C   UNL     1       2.468   8.198  18.245  0.00  0.00    +0.000 C 
ENDBRANCH   5   7
BRANCH   1   9
ATOM      9  C   UNL     1       1.204   3.188  18.875  0.00  0.00    +0.000 C 
BRANCH   9  11
ATOM     10  C   UNL     1       1.546   2.816  21.336  0.00  0.00    +0.000 C 
ATOM     11  C   UNL     1       1.079   3.558  20.323  0.00  0.00    +0.000 C 
ENDBRANCH   9  11
ENDBRANCH   1   9
BRANCH   4  12
ATOM     12  O   UNL     1       5.349   6.134  16.266  0.00  0.00    +0.000 OA
BRANCH  12  13
ATOM     13  C   UNL     1       6.685   5.797  16.655  0.00  0.00    +0.000 C 
BRANCH  13  14
ATOM     14  C   UNL     1       6.786   5.261  18.081  0.00  0.00    +0.000 C 
BRANCH  14  15
ATOM     15  O   UNL     1       7.368   3.945  18.028  0.00  0.00    +0.000 OA
ATOM     16  H   UNL     1       6.820   3.401  17.433  0.00  0.00    +0.000 HD
ENDBRANCH  14  15
BRANCH  14  17
ATOM     17  C   UNL     1       7.629   6.169  18.980  0.00  0.00    +0.000 C 
BRANCH  17  18
ATOM     18  O   UNL     1       7.861   5.564  20.254  0.00  0.00    +0.000 OA
ATOM     19  H   UNL     1       8.808   5.666  20.459  0.00  0.00    +0.000 HD
ENDBRANCH  17  18
ENDBRANCH  14  17
ENDBRANCH  13  14
ENDBRANCH  12  13
ENDBRANCH   4  12
TORSDOF 9
ENDMDL
