MODEL 1
REMARK VINA RESULT:      -7.1      0.000      0.000
REMARK  Name = 
REMARK  18 active torsions:
REMARK  status: ('A' for Active; 'I' for Inactive)
REMARK    1  A    between atoms: C_1  and  O_2
REMARK    2  A    between atoms: O_2  and  C_3
REMARK    3  A    between atoms: C_6  and  C_7
REMARK    4  A    between atoms: C_8  and  C_9
REMARK    5  A    between atoms: C_12  and  S_13
REMARK    6  A    between atoms: S_13  and  C_14
REMARK    7  A    between atoms: C_17  and  C_18
REMARK    8  A    between atoms: C_18  and  C_19
REMARK    9  A    between atoms: C_19  and  C_20
REMARK   10  A    between atoms: C_19  and  N_21
REMARK   11  A    between atoms: N_21  and  C_22
REMARK   12  A    between atoms: N_21  and  C_23
REMARK   13  A    between atoms: C_23  and  C_24
REMARK   14  A    between atoms: C_24  and  C_25
REMARK   15  A    between atoms: C_28  and  O_29
REMARK   16  A    between atoms: O_29  and  C_30
REMARK   17  A    between atoms: C_31  and  O_32
REMARK   18  A    between atoms: O_32  and  C_33
REMARK                            x       y       z     vdW  Elec       q    Type
REMARK                         _______ _______ _______ _____ _____    ______ ____
ROOT
ATOM      1  C   UNL     1       3.225   3.396  19.867  0.00  0.00    +0.000 A 
ATOM      2  C   UNL     1       2.252   3.815  20.775  0.00  0.00    +0.000 A 
ATOM      3  C   UNL     1       1.817   5.143  20.791  0.00  0.00    +0.000 A 
ATOM      4  C   UNL     1       2.323   6.063  19.875  0.00  0.00    +0.000 A 
ATOM      5  C   UNL     1       3.264   5.643  18.918  0.00  0.00    +0.000 A 
ATOM      6  C   UNL     1       3.745   4.318  18.958  0.00  0.00    +0.000 A 
ENDROOT
BRANCH   1   8
ATOM      7  C   UNL     1       4.770   1.757  20.634  0.00  0.00    +0.000 C 
ATOM      8  O   UNL     1       3.564   2.073  19.947  0.00  0.00    +0.000 OA
ENDBRANCH   1   8
BRANCH   4   9
ATOM      9  C   UNL     1       1.848   7.417  19.925  0.00  0.00    +0.000 C 
ATOM     10  C   UNL     1       1.445   8.548  19.994  0.00  0.00    +0.000 C 
BRANCH  10  11
ATOM     11  C   UNL     1       0.998   9.904  20.082  0.00  0.00    +0.000 A 
ATOM     12  C   UNL     1       1.103  10.731  18.967  0.00  0.00    +0.000 A 
ATOM     13  C   UNL     1       0.681  12.061  19.042  0.00  0.00    +0.000 A 
ATOM     14  C   UNL     1       0.140  12.583  20.222  0.00  0.00    +0.000 A 
ATOM     15  C   UNL     1       0.040  11.746  21.339  0.00  0.00    +0.000 A 
ATOM     16  C   UNL     1       0.464  10.410  21.270  0.00  0.00    +0.000 A 
BRANCH  14  17
ATOM     17  S   UNL     1      -0.296  14.317  20.219  0.00  0.00    +0.000 S 
ATOM     18  C   UNL     1       0.939  15.056  19.116  0.00  0.00    +0.000 C 
ENDBRANCH  14  17
ENDBRANCH  10  11
ENDBRANCH   4   9
BRANCH   5  19
ATOM     19  C   UNL     1       3.757   6.568  17.827  0.00  0.00    +0.000 C 
BRANCH  19  20
ATOM     20  C   UNL     1       5.106   6.167  17.152  0.00  0.00    +0.000 C 
ATOM     21  C   UNL     1       5.260   6.727  15.725  0.00  0.00    +0.000 C 
BRANCH  20  22
ATOM     22  N   UNL     1       6.303   6.514  17.979  0.00  0.00    +0.000 NA
ATOM     23  C   UNL     1       7.256   5.396  18.093  0.00  0.00    +0.000 C 
BRANCH  22  24
ATOM     24  C   UNL     1       7.031   7.701  17.478  0.00  0.00    +0.000 C 
BRANCH  24  25
ATOM     25  C   UNL     1       8.352   7.994  18.206  0.00  0.00    +0.000 C 
BRANCH  25  26
ATOM     26  C   UNL     1       8.573   9.480  18.338  0.00  0.00    +0.000 A 
ATOM     27  C   UNL     1       7.939  10.370  17.472  0.00  0.00    +0.000 A 
ATOM     28  C   UNL     1       8.179  11.737  17.620  0.00  0.00    +0.000 A 
ATOM     29  C   UNL     1       9.020  12.231  18.612  0.00  0.00    +0.000 A 
ATOM     30  C   UNL     1       9.663  11.343  19.491  0.00  0.00    +0.000 A 
ATOM     31  C   UNL     1       9.414   9.970  19.354  0.00  0.00    +0.000 A 
BRANCH  29  32
ATOM     32  O   UNL     1       9.169  13.595  18.556  0.00  0.00    +0.000 OA
ATOM     33  C   UNL     1      10.161  14.106  17.676  0.00  0.00    +0.000 C 
ENDBRANCH  29  32
BRANCH  30  34
ATOM     34  O   UNL     1      10.536  11.847  20.421  0.00  0.00    +0.000 OA
ATOM     35  C   UNL     1      11.920  11.883  20.089  0.00  0.00    +0.000 C 
ENDBRANCH  30  34
ENDBRANCH  25  26
ENDBRANCH  24  25
ENDBRANCH  22  24
ENDBRANCH  20  22
ENDBRANCH  19  20
ENDBRANCH   5  19
TORSDOF 12
ENDMDL
MODEL 2
REMARK VINA RESULT:      -7.1      4.400      7.660
REMARK  Name = 
REMARK  18 active torsions:
REMARK  status: ('A' for Active; 'I' for Inactive)
REMARK    1  A    between atoms: C_1  and  O_2
REMARK    2  A    between atoms: O_2  and  C_3
REMARK    3  A    between atoms: C_6  and  C_7
REMARK    4  A    between atoms: C_8  and  C_9
REMARK    5  A    between atoms: C_12  and  S_13
REMARK    6  A    between atoms: S_13  and  C_14
REMARK    7  A    between atoms: C_17  and  C_18
REMARK    8  A    between atoms: C_18  and  C_19
REMARK    9  A    between atoms: C_19  and  C_20
REMARK   10  A    between atoms: C_19  and  N_21
REMARK   11  A    between atoms: N_21  and  C_22
REMARK   12  A    between atoms: N_21  and  C_23
REMARK   13  A    between atoms: C_23  and  C_24
REMARK   14  A    between atoms: C_24  and  C_25
REMARK   15  A    between atoms: C_28  and  O_29
REMARK   16  A    between atoms: O_29  and  C_30
REMARK   17  A    between atoms: C_31  and  O_32
REMARK   18  A    between atoms: O_32  and  C_33
REMARK                            x       y       z     vdW  Elec       q    Type
REMARK                         _______ _______ _______ _____ _____    ______ ____
ROOT
ATOM      1  C   UNL     1      -0.473  10.485  22.535  0.00  0.00    +0.000 A 
ATOM      2  C   UNL     1       0.133   9.313  22.989  0.00  0.00    +0.000 A 
ATOM      3  C   UNL     1       0.851   8.495  22.114  0.00  0.00    +0.000 A 
ATOM      4  C   UNL     1       1.004   8.856  20.776  0.00  0.00    +0.000 A 
ATOM      5  C   UNL     1       0.446  10.061  20.315  0.00  0.00    +0.000 A 
ATOM      6  C   UNL     1      -0.334  10.842  21.193  0.00  0.00    +0.000 A 
ENDROOT
BRANCH   1   8
ATOM      7  C   UNL     1      -1.979  12.259  23.030  0.00  0.00    +0.000 C 
ATOM      8  O   UNL     1      -1.143  11.202  23.488  0.00  0.00    +0.000 OA
ENDBRANCH   1   8
BRANCH   4   9
ATOM      9  C   UNL     1       1.751   7.987  19.910  0.00  0.00    +0.000 C 
ATOM     10  C   UNL     1       2.378   7.281  19.167  0.00  0.00    +0.000 C 
BRANCH  10  11
ATOM     11  C   UNL     1       3.153   6.448  18.298  0.00  0.00    +0.000 A 
ATOM     12  C   UNL     1       4.157   7.019  17.522  0.00  0.00    +0.000 A 
ATOM     13  C   UNL     1       4.913   6.221  16.660  0.00  0.00    +0.000 A 
ATOM     14  C   UNL     1       4.688   4.843  16.567  0.00  0.00    +0.000 A 
ATOM     15  C   UNL     1       3.675   4.277  17.348  0.00  0.00    +0.000 A 
ATOM     16  C   UNL     1       2.911   5.075  18.214  0.00  0.00    +0.000 A 
BRANCH  14  17
ATOM     17  S   UNL     1       5.667   3.937  15.376  0.00  0.00    +0.000 S 
ATOM     18  C   UNL     1       7.037   5.069  15.016  0.00  0.00    +0.000 C 
ENDBRANCH  14  17
ENDBRANCH  10  11
ENDBRANCH   4   9
BRANCH   5  19
ATOM     19  C   UNL     1       0.680  10.559  18.906  0.00  0.00    +0.000 C 
BRANCH  19  20
ATOM     20  C   UNL     1       1.376  11.951  18.782  0.00  0.00    +0.000 C 
ATOM     21  C   UNL     1       2.630  11.925  17.886  0.00  0.00    +0.000 C 
BRANCH  20  22
ATOM     22  N   UNL     1       0.445  13.036  18.344  0.00  0.00    +0.000 NA
ATOM     23  C   UNL     1      -0.933  12.556  18.148  0.00  0.00    +0.000 C 
BRANCH  22  24
ATOM     24  C   UNL     1       0.412  14.185  19.276  0.00  0.00    +0.000 C 
BRANCH  24  25
ATOM     25  C   UNL     1       1.103  15.453  18.752  0.00  0.00    +0.000 C 
BRANCH  25  26
ATOM     26  C   UNL     1       2.600  15.347  18.900  0.00  0.00    +0.000 A 
ATOM     27  C   UNL     1       3.438  15.584  17.811  0.00  0.00    +0.000 A 
ATOM     28  C   UNL     1       4.818  15.464  17.986  0.00  0.00    +0.000 A 
ATOM     29  C   UNL     1       5.374  15.127  19.216  0.00  0.00    +0.000 A 
ATOM     30  C   UNL     1       4.539  14.888  20.321  0.00  0.00    +0.000 A 
ATOM     31  C   UNL     1       3.154  15.021  20.151  0.00  0.00    +0.000 A 
BRANCH  29  32
ATOM     32  O   UNL     1       6.741  15.005  19.169  0.00  0.00    +0.000 OA
ATOM     33  C   UNL     1       7.415  15.647  18.094  0.00  0.00    +0.000 C 
ENDBRANCH  29  32
BRANCH  30  34
ATOM     34  O   UNL     1       5.106  14.497  21.507  0.00  0.00    +0.000 OA
ATOM     35  C   UNL     1       5.346  15.493  22.495  0.00  0.00    +0.000 C 
ENDBRANCH  30  34
ENDBRANCH  25  26
ENDBRANCH  24  25
ENDBRANCH  22  24
ENDBRANCH  20  22
ENDBRANCH  19  20
ENDBRANCH   5  19
TORSDOF 12
ENDMDL
MODEL 3
REMARK VINA RESULT:      -7.0      4.349      7.918
REMARK  Name = 
REMARK  18 active torsions:
REMARK  status: ('A' for Active; 'I' for Inactive)
REMARK    1  A    between atoms: C_1  and  O_2
REMARK    2  A    between atoms: O_2  and  C_3
REMARK    3  A    between atoms: C_6  and  C_7
REMARK    4  A    between atoms: C_8  and  C_9
REMARK    5  A    between atoms: C_12  and  S_13
REMARK    6  A    between atoms: S_13  and  C_14
REMARK    7  A    between atoms: C_17  and  C_18
REMARK    8  A    between atoms: C_18  and  C_19
REMARK    9  A    between atoms: C_19  and  C_20
REMARK   10  A    between atoms: C_19  and  N_21
REMARK   11  A    between atoms: N_21  and  C_22
REMARK   12  A    between atoms: N_21  and  C_23
REMARK   13  A    between atoms: C_23  and  C_24
REMARK   14  A    between atoms: C_24  and  C_25
REMARK   15  A    between atoms: C_28  and  O_29
REMARK   16  A    between atoms: O_29  and  C_30
REMARK   17  A    between atoms: C_31  and  O_32
REMARK   18  A    between atoms: O_32  and  C_33
REMARK                            x       y       z     vdW  Elec       q    Type
REMARK                         _______ _______ _______ _____ _____    ______ ____
ROOT
ATOM      1  C   UNL     1      -2.899  10.006  15.909  0.00  0.00    +0.000 A 
ATOM      2  C   UNL     1      -3.757  11.088  16.107  0.00  0.00    +0.000 A 
ATOM      3  C   UNL     1      -3.718  11.822  17.295  0.00  0.00    +0.000 A 
ATOM      4  C   UNL     1      -2.793  11.507  18.289  0.00  0.00    +0.000 A 
ATOM      5  C   UNL     1      -1.885  10.454  18.082  0.00  0.00    +0.000 A 
ATOM      6  C   UNL     1      -1.982   9.678  16.908  0.00  0.00    +0.000 A 
ENDROOT
BRANCH   1   8
ATOM      7  C   UNL     1      -3.907   9.967  13.754  0.00  0.00    +0.000 C 
ATOM      8  O   UNL     1      -3.030   9.371  14.705  0.00  0.00    +0.000 OA
ENDBRANCH   1   8
BRANCH   4   9
ATOM      9  C   UNL     1      -2.786  12.288  19.495  0.00  0.00    +0.000 C 
ATOM     10  C   UNL     1      -2.805  12.933  20.509  0.00  0.00    +0.000 C 
BRANCH  10  11
ATOM     11  C   UNL     1      -2.816  13.675  21.732  0.00  0.00    +0.000 A 
ATOM     12  C   UNL     1      -2.563  15.043  21.703  0.00  0.00    +0.000 A 
ATOM     13  C   UNL     1      -2.558  15.778  22.890  0.00  0.00    +0.000 A 
ATOM     14  C   UNL     1      -2.815  15.164  24.122  0.00  0.00    +0.000 A 
ATOM     15  C   UNL     1      -3.066  13.788  24.144  0.00  0.00    +0.000 A 
ATOM     16  C   UNL     1      -3.069  13.045  22.952  0.00  0.00    +0.000 A 
BRANCH  14  17
ATOM     17  S   UNL     1      -2.709  16.192  25.581  0.00  0.00    +0.000 S 
ATOM     18  C   UNL     1      -1.065  15.808  26.243  0.00  0.00    +0.000 C 
ENDBRANCH  14  17
ENDBRANCH  10  11
ENDBRANCH   4   9
BRANCH   5  19
ATOM     19  C   UNL     1      -0.785  10.145  19.074  0.00  0.00    +0.000 C 
BRANCH  19  20
ATOM     20  C   UNL     1       0.669  10.449  18.596  0.00  0.00    +0.000 C 
ATOM     21  C   UNL     1       1.195  11.813  19.086  0.00  0.00    +0.000 C 
BRANCH  20  22
ATOM     22  N   UNL     1       1.639   9.363  18.938  0.00  0.00    +0.000 NA
ATOM     23  C   UNL     1       1.390   8.779  20.266  0.00  0.00    +0.000 C 
BRANCH  22  24
ATOM     24  C   UNL     1       1.661   8.269  17.941  0.00  0.00    +0.000 C 
BRANCH  24  25
ATOM     25  C   UNL     1       3.050   7.963  17.360  0.00  0.00    +0.000 C 
BRANCH  25  26
ATOM     26  C   UNL     1       3.600   6.682  17.934  0.00  0.00    +0.000 A 
ATOM     27  C   UNL     1       2.742   5.696  18.419  0.00  0.00    +0.000 A 
ATOM     28  C   UNL     1       3.291   4.530  18.953  0.00  0.00    +0.000 A 
ATOM     29  C   UNL     1       4.667   4.323  19.003  0.00  0.00    +0.000 A 
ATOM     30  C   UNL     1       5.542   5.309  18.516  0.00  0.00    +0.000 A 
ATOM     31  C   UNL     1       4.992   6.476  17.966  0.00  0.00    +0.000 A 
BRANCH  29  32
ATOM     32  O   UNL     1       5.008   3.141  19.614  0.00  0.00    +0.000 OA
ATOM     33  C   UNL     1       3.947   2.337  20.113  0.00  0.00    +0.000 C 
ENDBRANCH  29  32
BRANCH  30  34
ATOM     34  O   UNL     1       6.894   5.111  18.632  0.00  0.00    +0.000 OA
ATOM     35  C   UNL     1       7.593   4.587  17.508  0.00  0.00    +0.000 C 
ENDBRANCH  30  34
ENDBRANCH  25  26
ENDBRANCH  24  25
ENDBRANCH  22  24
ENDBRANCH  20  22
ENDBRANCH  19  20
ENDBRANCH   5  19
TORSDOF 12
ENDMDL
MODEL 4
REMARK VINA RESULT:      -6.9      5.549     10.059
REMARK  Name = 
REMARK  18 active torsions:
REMARK  status: ('A' for Active; 'I' for Inactive)
REMARK    1  A    between atoms: C_1  and  O_2
REMARK    2  A    between atoms: O_2  and  C_3
REMARK    3  A    between atoms: C_6  and  C_7
REMARK    4  A    between atoms: C_8  and  C_9
REMARK    5  A    between atoms: C_12  and  S_13
REMARK    6  A    between atoms: S_13  and  C_14
REMARK    7  A    between atoms: C_17  and  C_18
REMARK    8  A    between atoms: C_18  and  C_19
REMARK    9  A    between atoms: C_19  and  C_20
REMARK   10  A    between atoms: C_19  and  N_21
REMARK   11  A    between atoms: N_21  and  C_22
REMARK   12  A    between atoms: N_21  and  C_23
REMARK   13  A    between atoms: C_23  and  C_24
REMARK   14  A    between atoms: C_24  and  C_25
REMARK   15  A    between atoms: C_28  and  O_29
REMARK   16  A    between atoms: O_29  and  C_30
REMARK   17  A    between atoms: C_31  and  O_32
REMARK   18  A    between atoms: O_32  and  C_33
REMARK                            x       y       z     vdW  Elec       q    Type
REMARK                         _______ _______ _______ _____ _____    ______ ____
ROOT
ATOM      1  C   UNL     1      -0.465   9.781  22.199  0.00  0.00    +0.000 A 
ATOM      2  C   UNL     1       0.109   8.553  22.529  0.00  0.00    +0.000 A 
ATOM      3  C   UNL     1       0.944   7.890  21.626  0.00  0.00    +0.000 A 
ATOM      4  C   UNL     1       1.247   8.463  20.393  0.00  0.00    +0.000 A 
ATOM      5  C   UNL     1       0.721   9.726  20.067  0.00  0.00    +0.000 A 
ATOM      6  C   UNL     1      -0.175  10.352  20.958  0.00  0.00    +0.000 A 
ENDROOT
BRANCH   1   8
ATOM      7  C   UNL     1      -1.640  11.692  22.990  0.00  0.00    +0.000 C 
ATOM      8  O   UNL     1      -1.258  10.332  23.166  0.00  0.00    +0.000 OA
ENDBRANCH   1   8
BRANCH   4   9
ATOM      9  C   UNL     1       2.110   7.749  19.494  0.00  0.00    +0.000 C 
ATOM     10  C   UNL     1       2.821   7.127  18.750  0.00  0.00    +0.000 C 
BRANCH  10  11
ATOM     11  C   UNL     1       3.645   6.392  17.840  0.00  0.00    +0.000 A 
ATOM     12  C   UNL     1       4.637   7.058  17.127  0.00  0.00    +0.000 A 
ATOM     13  C   UNL     1       5.440   6.356  16.226  0.00  0.00    +0.000 A 
ATOM     14  C   UNL     1       5.275   4.980  16.030  0.00  0.00    +0.000 A 
ATOM     15  C   UNL     1       4.274   4.318  16.748  0.00  0.00    +0.000 A 
ATOM     16  C   UNL     1       3.462   5.020  17.654  0.00  0.00    +0.000 A 
BRANCH  14  17
ATOM     17  S   UNL     1       6.312   4.204  14.797  0.00  0.00    +0.000 S 
ATOM     18  C   UNL     1       5.191   3.979  13.390  0.00  0.00    +0.000 C 
ENDBRANCH  14  17
ENDBRANCH  10  11
ENDBRANCH   4   9
BRANCH   5  19
ATOM     19  C   UNL     1       1.110  10.447  18.795  0.00  0.00    +0.000 C 
BRANCH  19  20
ATOM     20  C   UNL     1       2.036  11.691  18.974  0.00  0.00    +0.000 C 
ATOM     21  C   UNL     1       2.705  12.142  17.660  0.00  0.00    +0.000 C 
BRANCH  20  22
ATOM     22  N   UNL     1       1.350  12.845  19.631  0.00  0.00    +0.000 NA
ATOM     23  C   UNL     1       2.242  14.001  19.821  0.00  0.00    +0.000 C 
BRANCH  22  24
ATOM     24  C   UNL     1       0.146  13.299  18.899  0.00  0.00    +0.000 C 
BRANCH  24  25
ATOM     25  C   UNL     1      -1.063  13.615  19.792  0.00  0.00    +0.000 C 
BRANCH  25  26
ATOM     26  C   UNL     1      -2.277  12.840  19.345  0.00  0.00    +0.000 A 
ATOM     27  C   UNL     1      -3.490  12.971  20.018  0.00  0.00    +0.000 A 
ATOM     28  C   UNL     1      -4.587  12.228  19.580  0.00  0.00    +0.000 A 
ATOM     29  C   UNL     1      -4.503  11.372  18.486  0.00  0.00    +0.000 A 
ATOM     30  C   UNL     1      -3.285  11.232  17.798  0.00  0.00    +0.000 A 
ATOM     31  C   UNL     1      -2.185  11.988  18.228  0.00  0.00    +0.000 A 
BRANCH  29  32
ATOM     32  O   UNL     1      -5.671  10.691  18.249  0.00  0.00    +0.000 OA
ATOM     33  C   UNL     1      -6.849  11.465  18.060  0.00  0.00    +0.000 C 
ENDBRANCH  29  32
BRANCH  30  34
ATOM     34  O   UNL     1      -3.208  10.336  16.763  0.00  0.00    +0.000 OA
ATOM     35  C   UNL     1      -3.004  10.847  15.450  0.00  0.00    +0.000 C 
ENDBRANCH  30  34
ENDBRANCH  25  26
ENDBRANCH  24  25
ENDBRANCH  22  24
ENDBRANCH  20  22
ENDBRANCH  19  20
ENDBRANCH   5  19
TORSDOF 12
ENDMDL
MODEL 5
REMARK VINA RESULT:      -6.9      6.056     10.716
REMARK  Name = 
REMARK  18 active torsions:
REMARK  status: ('A' for Active; 'I' for Inactive)
REMARK    1  A    between atoms: C_1  and  O_2
REMARK    2  A    between atoms: O_2  and  C_3
REMARK    3  A    between atoms: C_6  and  C_7
REMARK    4  A    between atoms: C_8  and  C_9
REMARK    5  A    between atoms: C_12  and  S_13
REMARK    6  A    between atoms: S_13  and  C_14
REMARK    7  A    between atoms: C_17  and  C_18
REMARK    8  A    between atoms: C_18  and  C_19
REMARK    9  A    between atoms: C_19  and  C_20
REMARK   10  A    between atoms: C_19  and  N_21
REMARK   11  A    between atoms: N_21  and  C_22
REMARK   12  A    between atoms: N_21  and  C_23
REMARK   13  A    between atoms: C_23  and  C_24
REMARK   14  A    between atoms: C_24  and  C_25
REMARK   15  A    between atoms: C_28  and  O_29
REMARK   16  A    between atoms: O_29  and  C_30
REMARK   17  A    between atoms: C_31  and  O_32
REMARK   18  A    between atoms: O_32  and  C_33
REMARK                            x       y       z     vdW  Elec       q    Type
REMARK                         _______ _______ _______ _____ _____    ______ ____
ROOT
ATOM      1  C   UNL     1      -1.336  13.254  23.070  0.00  0.00    +0.000 A 
ATOM      2  C   UNL     1      -1.749  11.931  23.228  0.00  0.00    +0.000 A 
ATOM      3  C   UNL     1      -1.116  10.898  22.532  0.00  0.00    +0.000 A 
ATOM      4  C   UNL     1      -0.035  11.169  21.696  0.00  0.00    +0.000 A 
ATOM      5  C   UNL     1       0.429  12.491  21.569  0.00  0.00    +0.000 A 
ATOM      6  C   UNL     1      -0.263  13.531  22.222  0.00  0.00    +0.000 A 
ENDROOT
BRANCH   1   8
ATOM      7  C   UNL     1      -1.359  15.388  24.121  0.00  0.00    +0.000 C 
ATOM      8  O   UNL     1      -2.031  14.173  23.807  0.00  0.00    +0.000 OA
ENDBRANCH   1   8
BRANCH   4   9
ATOM      9  C   UNL     1       0.588  10.078  21.000  0.00  0.00    +0.000 C 
ATOM     10  C   UNL     1       1.131   9.181  20.413  0.00  0.00    +0.000 C 
BRANCH  10  11
ATOM     11  C   UNL     1       1.791   8.102  19.743  0.00  0.00    +0.000 A 
ATOM     12  C   UNL     1       2.308   8.304  18.467  0.00  0.00    +0.000 A 
ATOM     13  C   UNL     1       2.943   7.257  17.796  0.00  0.00    +0.000 A 
ATOM     14  C   UNL     1       3.082   5.997  18.389  0.00  0.00    +0.000 A 
ATOM     15  C   UNL     1       2.558   5.800  19.672  0.00  0.00    +0.000 A 
ATOM     16  C   UNL     1       1.917   6.850  20.349  0.00  0.00    +0.000 A 
BRANCH  14  17
ATOM     17  S   UNL     1       3.847   4.715  17.405  0.00  0.00    +0.000 S 
ATOM     18  C   UNL     1       4.035   3.346  18.579  0.00  0.00    +0.000 C 
ENDBRANCH  14  17
ENDBRANCH  10  11
ENDBRANCH   4   9
BRANCH   5  19
ATOM     19  C   UNL     1       1.668  12.825  20.769  0.00  0.00    +0.000 C 
BRANCH  19  20
ATOM     20  C   UNL     1       1.423  13.354  19.321  0.00  0.00    +0.000 C 
ATOM     21  C   UNL     1       2.015  12.437  18.232  0.00  0.00    +0.000 C 
BRANCH  20  22
ATOM     22  N   UNL     1      -0.017  13.639  19.035  0.00  0.00    +0.000 NA
ATOM     23  C   UNL     1      -0.267  15.062  18.751  0.00  0.00    +0.000 C 
BRANCH  22  24
ATOM     24  C   UNL     1      -0.557  12.836  17.916  0.00  0.00    +0.000 C 
BRANCH  24  25
ATOM     25  C   UNL     1      -1.288  11.554  18.344  0.00  0.00    +0.000 C 
BRANCH  25  26
ATOM     26  C   UNL     1      -2.719  11.851  18.712  0.00  0.00    +0.000 A 
ATOM     27  C   UNL     1      -3.769  11.320  17.964  0.00  0.00    +0.000 A 
ATOM     28  C   UNL     1      -5.080  11.629  18.330  0.00  0.00    +0.000 A 
ATOM     29  C   UNL     1      -5.363  12.439  19.426  0.00  0.00    +0.000 A 
ATOM     30  C   UNL     1      -4.313  12.979  20.189  0.00  0.00    +0.000 A 
ATOM     31  C   UNL     1      -2.996  12.660  19.830  0.00  0.00    +0.000 A 
BRANCH  29  32
ATOM     32  O   UNL     1      -6.708  12.668  19.587  0.00  0.00    +0.000 OA
ATOM     33  C   UNL     1      -7.579  12.168  18.581  0.00  0.00    +0.000 C 
ENDBRANCH  29  32
BRANCH  30  34
ATOM     34  O   UNL     1      -4.614  13.825  21.225  0.00  0.00    +0.000 OA
ATOM     35  C   UNL     1      -3.949  15.082  21.278  0.00  0.00    +0.000 C 
ENDBRANCH  30  34
ENDBRANCH  25  26
ENDBRANCH  24  25
ENDBRANCH  22  24
ENDBRANCH  20  22
ENDBRANCH  19  20
ENDBRANCH   5  19
TORSDOF 12
ENDMDL
MODEL 6
REMARK VINA RESULT:      -6.8      0.944      1.309
REMARK  Name = 
REMARK  18 active torsions:
REMARK  status: ('A' for Active; 'I' for Inactive)
REMARK    1  A    between atoms: C_1  and  O_2
REMARK    2  A    between atoms: O_2  and  C_3
REMARK    3  A    between atoms: C_6  and  C_7
REMARK    4  A    between atoms: C_8  and  C_9
REMARK    5  A    between atoms: C_12  and  S_13
REMARK    6  A    between atoms: S_13  and  C_14
REMARK    7  A    between atoms: C_17  and  C_18
REMARK    8  A    between atoms: C_18  and  C_19
REMARK    9  A    between atoms: C_19  and  C_20
REMARK   10  A    between atoms: C_19  and  N_21
REMARK   11  A    between atoms: N_21  and  C_22
REMARK   12  A    between atoms: N_21  and  C_23
REMARK   13  A    between atoms: C_23  and  C_24
REMARK   14  A    between atoms: C_24  and  C_25
REMARK   15  A    between atoms: C_28  and  O_29
REMARK   16  A    between atoms: O_29  and  C_30
REMARK   17  A    between atoms: C_31  and  O_32
REMARK   18  A    between atoms: O_32  and  C_33
REMARK                            x       y       z     vdW  Elec       q    Type
REMARK                         _______ _______ _______ _____ _____    ______ ____
ROOT
ATOM      1  C   UNL     1       3.252   3.495  19.836  0.00  0.00    +0.000 A 
ATOM      2  C   UNL     1       2.234   3.923  20.689  0.00  0.00    +0.000 A 
ATOM      3  C   UNL     1       1.804   5.252  20.676  0.00  0.00    +0.000 A 
ATOM      4  C   UNL     1       2.361   6.166  19.784  0.00  0.00    +0.000 A 
ATOM      5  C   UNL     1       3.350   5.738  18.880  0.00  0.00    +0.000 A 
ATOM      6  C   UNL     1       3.823   4.412  18.951  0.00  0.00    +0.000 A 
ENDROOT
BRANCH   1   8
ATOM      7  C   UNL     1       3.707   1.443  18.723  0.00  0.00    +0.000 C 
ATOM      8  O   UNL     1       3.580   2.172  19.939  0.00  0.00    +0.000 OA
ENDBRANCH   1   8
BRANCH   4   9
ATOM      9  C   UNL     1       1.890   7.523  19.803  0.00  0.00    +0.000 C 
ATOM     10  C   UNL     1       1.476   8.651  19.801  0.00  0.00    +0.000 C 
BRANCH  10  11
ATOM     11  C   UNL     1       0.963   9.987  19.825  0.00  0.00    +0.000 A 
ATOM     12  C   UNL     1       1.023  10.721  21.005  0.00  0.00    +0.000 A 
ATOM     13  C   UNL     1       0.516  12.022  21.046  0.00  0.00    +0.000 A 
ATOM     14  C   UNL     1      -0.048  12.614  19.910  0.00  0.00    +0.000 A 
ATOM     15  C   UNL     1      -0.107  11.869  18.728  0.00  0.00    +0.000 A 
ATOM     16  C   UNL     1       0.399  10.560  18.682  0.00  0.00    +0.000 A 
BRANCH  14  17
ATOM     17  S   UNL     1      -0.731  14.255  20.103  0.00  0.00    +0.000 S 
ATOM     18  C   UNL     1      -2.364  13.945  20.826  0.00  0.00    +0.000 C 
ENDBRANCH  14  17
ENDBRANCH  10  11
ENDBRANCH   4   9
BRANCH   5  19
ATOM     19  C   UNL     1       3.904   6.656  17.814  0.00  0.00    +0.000 C 
BRANCH  19  20
ATOM     20  C   UNL     1       5.302   6.266  17.238  0.00  0.00    +0.000 C 
ATOM     21  C   UNL     1       5.512   6.735  15.785  0.00  0.00    +0.000 C 
BRANCH  20  22
ATOM     22  N   UNL     1       6.439   6.717  18.100  0.00  0.00    +0.000 NA
ATOM     23  C   UNL     1       7.308   5.604  18.518  0.00  0.00    +0.000 C 
BRANCH  22  24
ATOM     24  C   UNL     1       7.280   7.752  17.457  0.00  0.00    +0.000 C 
BRANCH  24  25
ATOM     25  C   UNL     1       8.522   8.157  18.265  0.00  0.00    +0.000 C 
BRANCH  25  26
ATOM     26  C   UNL     1       8.616   9.657  18.388  0.00  0.00    +0.000 A 
ATOM     27  C   UNL     1       7.960  10.485  17.477  0.00  0.00    +0.000 A 
ATOM     28  C   UNL     1       8.081  11.868  17.618  0.00  0.00    +0.000 A 
ATOM     29  C   UNL     1       8.827  12.438  18.645  0.00  0.00    +0.000 A 
ATOM     30  C   UNL     1       9.491  11.613  19.570  0.00  0.00    +0.000 A 
ATOM     31  C   UNL     1       9.360  10.224  19.439  0.00  0.00    +0.000 A 
BRANCH  29  32
ATOM     32  O   UNL     1       8.869  13.809  18.578  0.00  0.00    +0.000 OA
ATOM     33  C   UNL     1       7.777  14.522  19.146  0.00  0.00    +0.000 C 
ENDBRANCH  29  32
BRANCH  30  34
ATOM     34  O   UNL     1      10.271  12.196  20.536  0.00  0.00    +0.000 OA
ATOM     35  C   UNL     1       9.656  12.548  21.770  0.00  0.00    +0.000 C 
ENDBRANCH  30  34
ENDBRANCH  25  26
ENDBRANCH  24  25
ENDBRANCH  22  24
ENDBRANCH  20  22
ENDBRANCH  19  20
ENDBRANCH   5  19
TORSDOF 12
ENDMDL
MODEL 7
REMARK VINA RESULT:      -6.8      4.993      8.403
REMARK  Name = 
REMARK  18 active torsions:
REMARK  status: ('A' for Active; 'I' for Inactive)
REMARK    1  A    between atoms: C_1  and  O_2
REMARK    2  A    between atoms: O_2  and  C_3
REMARK    3  A    between atoms: C_6  and  C_7
REMARK    4  A    between atoms: C_8  and  C_9
REMARK    5  A    between atoms: C_12  and  S_13
REMARK    6  A    between atoms: S_13  and  C_14
REMARK    7  A    between atoms: C_17  and  C_18
REMARK    8  A    between atoms: C_18  and  C_19
REMARK    9  A    between atoms: C_19  and  C_20
REMARK   10  A    between atoms: C_19  and  N_21
REMARK   11  A    between atoms: N_21  and  C_22
REMARK   12  A    between atoms: N_21  and  C_23
REMARK   13  A    between atoms: C_23  and  C_24
REMARK   14  A    between atoms: C_24  and  C_25
REMARK   15  A    between atoms: C_28  and  O_29
REMARK   16  A    between atoms: O_29  and  C_30
REMARK   17  A    between atoms: C_31  and  O_32
REMARK   18  A    between atoms: O_32  and  C_33
REMARK                            x       y       z     vdW  Elec       q    Type
REMARK                         _______ _______ _______ _____ _____    ______ ____
ROOT
ATOM      1  C   UNL     1      -3.132  10.027  16.281  0.00  0.00    +0.000 A 
ATOM      2  C   UNL     1      -4.035  11.060  16.535  0.00  0.00    +0.000 A 
ATOM      3  C   UNL     1      -3.935  11.826  17.699  0.00  0.00    +0.000 A 
ATOM      4  C   UNL     1      -2.906  11.594  18.610  0.00  0.00    +0.000 A 
ATOM      5  C   UNL     1      -1.955  10.594  18.342  0.00  0.00    +0.000 A 
ATOM      6  C   UNL     1      -2.108   9.783  17.199  0.00  0.00    +0.000 A 
ENDROOT
BRANCH   1   8
ATOM      7  C   UNL     1      -3.234  10.111  13.906  0.00  0.00    +0.000 C 
ATOM      8  O   UNL     1      -3.331   9.354  15.108  0.00  0.00    +0.000 OA
ENDBRANCH   1   8
BRANCH   4   9
ATOM      9  C   UNL     1      -2.838  12.405  19.793  0.00  0.00    +0.000 C 
ATOM     10  C   UNL     1      -2.754  13.086  20.780  0.00  0.00    +0.000 C 
BRANCH  10  11
ATOM     11  C   UNL     1      -2.660  13.924  21.937  0.00  0.00    +0.000 A 
ATOM     12  C   UNL     1      -2.200  15.230  21.798  0.00  0.00    +0.000 A 
ATOM     13  C   UNL     1      -2.092  16.055  22.920  0.00  0.00    +0.000 A 
ATOM     14  C   UNL     1      -2.449  15.596  24.193  0.00  0.00    +0.000 A 
ATOM     15  C   UNL     1      -2.909  14.281  24.324  0.00  0.00    +0.000 A 
ATOM     16  C   UNL     1      -3.017  13.447  23.200  0.00  0.00    +0.000 A 
BRANCH  14  17
ATOM     17  S   UNL     1      -2.198  16.718  25.563  0.00  0.00    +0.000 S 
ATOM     18  C   UNL     1      -0.819  15.966  26.468  0.00  0.00    +0.000 C 
ENDBRANCH  14  17
ENDBRANCH  10  11
ENDBRANCH   4   9
BRANCH   5  19
ATOM     19  C   UNL     1      -0.752  10.379  19.234  0.00  0.00    +0.000 C 
BRANCH  19  20
ATOM     20  C   UNL     1       0.641  10.502  18.542  0.00  0.00    +0.000 C 
ATOM     21  C   UNL     1       1.276  11.898  18.701  0.00  0.00    +0.000 C 
BRANCH  20  22
ATOM     22  N   UNL     1       1.605   9.440  18.966  0.00  0.00    +0.000 NA
ATOM     23  C   UNL     1       1.254   8.844  20.267  0.00  0.00    +0.000 C 
BRANCH  22  24
ATOM     24  C   UNL     1       1.743   8.351  17.974  0.00  0.00    +0.000 C 
BRANCH  24  25
ATOM     25  C   UNL     1       3.183   7.859  17.763  0.00  0.00    +0.000 C 
BRANCH  25  26
ATOM     26  C   UNL     1       3.324   6.418  18.185  0.00  0.00    +0.000 A 
ATOM     27  C   UNL     1       3.954   5.494  17.353  0.00  0.00    +0.000 A 
ATOM     28  C   UNL     1       4.054   4.168  17.774  0.00  0.00    +0.000 A 
ATOM     29  C   UNL     1       3.553   3.749  19.004  0.00  0.00    +0.000 A 
ATOM     30  C   UNL     1       2.917   4.672  19.852  0.00  0.00    +0.000 A 
ATOM     31  C   UNL     1       2.827   6.008  19.436  0.00  0.00    +0.000 A 
BRANCH  29  32
ATOM     32  O   UNL     1       3.700   2.399  19.209  0.00  0.00    +0.000 OA
ATOM     33  C   UNL     1       4.689   1.987  20.144  0.00  0.00    +0.000 C 
ENDBRANCH  29  32
BRANCH  30  34
ATOM     34  O   UNL     1       2.376   4.226  21.030  0.00  0.00    +0.000 OA
ATOM     35  C   UNL     1       1.219   3.400  20.964  0.00  0.00    +0.000 C 
ENDBRANCH  30  34
ENDBRANCH  25  26
ENDBRANCH  24  25
ENDBRANCH  22  24
ENDBRANCH  20  22
ENDBRANCH  19  20
ENDBRANCH   5  19
TORSDOF 12
ENDMDL
MODEL 8
REMARK VINA RESULT:      -6.8      5.643     10.638
REMARK  Name = 
REMARK  18 active torsions:
REMARK  status: ('A' for Active; 'I' for Inactive)
REMARK    1  A    between atoms: C_1  and  O_2
REMARK    2  A    between atoms: O_2  and  C_3
REMARK    3  A    between atoms: C_6  and  C_7
REMARK    4  A    between atoms: C_8  and  C_9
REMARK    5  A    between atoms: C_12  and  S_13
REMARK    6  A    between atoms: S_13  and  C_14
REMARK    7  A    between atoms: C_17  and  C_18
REMARK    8  A    between atoms: C_18  and  C_19
REMARK    9  A    between atoms: C_19  and  C_20
REMARK   10  A    between atoms: C_19  and  N_21
REMARK   11  A    between atoms: N_21  and  C_22
REMARK   12  A    between atoms: N_21  and  C_23
REMARK   13  A    between atoms: C_23  and  C_24
REMARK   14  A    between atoms: C_24  and  C_25
REMARK   15  A    between atoms: C_28  and  O_29
REMARK   16  A    between atoms: O_29  and  C_30
REMARK   17  A    between atoms: C_31  and  O_32
REMARK   18  A    between atoms: O_32  and  C_33
REMARK                            x       y       z     vdW  Elec       q    Type
REMARK                         _______ _______ _______ _____ _____    ______ ____
ROOT
ATOM      1  C   UNL     1      -0.648  10.450  22.710  0.00  0.00    +0.000 A 
ATOM      2  C   UNL     1      -0.094   9.225  23.084  0.00  0.00    +0.000 A 
ATOM      3  C   UNL     1       0.651   8.471  22.173  0.00  0.00    +0.000 A 
ATOM      4  C   UNL     1       0.884   8.949  20.885  0.00  0.00    +0.000 A 
ATOM      5  C   UNL     1       0.378  10.206  20.510  0.00  0.00    +0.000 A 
ATOM      6  C   UNL     1      -0.429  10.924  21.416  0.00  0.00    +0.000 A 
ENDROOT
BRANCH   1   8
ATOM      7  C   UNL     1      -2.124  12.221  23.293  0.00  0.00    +0.000 C 
ATOM      8  O   UNL     1      -1.350  11.094  23.690  0.00  0.00    +0.000 OA
ENDBRANCH   1   8
BRANCH   4   9
ATOM      9  C   UNL     1       1.655   8.142  19.980  0.00  0.00    +0.000 C 
ATOM     10  C   UNL     1       2.311   7.491  19.212  0.00  0.00    +0.000 C 
BRANCH  10  11
ATOM     11  C   UNL     1       3.116   6.714  18.321  0.00  0.00    +0.000 A 
ATOM     12  C   UNL     1       3.007   5.326  18.335  0.00  0.00    +0.000 A 
ATOM     13  C   UNL     1       3.795   4.555  17.479  0.00  0.00    +0.000 A 
ATOM     14  C   UNL     1       4.695   5.152  16.589  0.00  0.00    +0.000 A 
ATOM     15  C   UNL     1       4.802   6.547  16.582  0.00  0.00    +0.000 A 
ATOM     16  C   UNL     1       4.013   7.327  17.443  0.00  0.00    +0.000 A 
BRANCH  14  17
ATOM     17  S   UNL     1       5.704   4.059  15.595  0.00  0.00    +0.000 S 
ATOM     18  C   UNL     1       7.395   4.512  16.064  0.00  0.00    +0.000 C 
ENDBRANCH  14  17
ENDBRANCH  10  11
ENDBRANCH   4   9
BRANCH   5  19
ATOM     19  C   UNL     1       0.700  10.825  19.167  0.00  0.00    +0.000 C 
BRANCH  19  20
ATOM     20  C   UNL     1       1.594  12.104  19.203  0.00  0.00    +0.000 C 
ATOM     21  C   UNL     1       2.460  12.273  17.939  0.00  0.00    +0.000 C 
BRANCH  20  22
ATOM     22  N   UNL     1       0.820  13.355  19.475  0.00  0.00    +0.000 NA
ATOM     23  C   UNL     1       1.528  14.566  19.029  0.00  0.00    +0.000 C 
BRANCH  22  24
ATOM     24  C   UNL     1      -0.528  13.348  18.865  0.00  0.00    +0.000 C 
BRANCH  24  25
ATOM     25  C   UNL     1      -1.673  13.656  19.842  0.00  0.00    +0.000 C 
BRANCH  25  26
ATOM     26  C   UNL     1      -2.907  12.865  19.488  0.00  0.00    +0.000 A 
ATOM     27  C   UNL     1      -2.843  11.834  18.552  0.00  0.00    +0.000 A 
ATOM     28  C   UNL     1      -4.010  11.133  18.243  0.00  0.00    +0.000 A 
ATOM     29  C   UNL     1      -5.226  11.428  18.852  0.00  0.00    +0.000 A 
ATOM     30  C   UNL     1      -5.302  12.465  19.798  0.00  0.00    +0.000 A 
ATOM     31  C   UNL     1      -4.129  13.162  20.120  0.00  0.00    +0.000 A 
BRANCH  29  32
ATOM     32  O   UNL     1      -6.263  10.666  18.373  0.00  0.00    +0.000 OA
ATOM     33  C   UNL     1      -6.807   9.686  19.247  0.00  0.00    +0.000 C 
ENDBRANCH  29  32
BRANCH  30  34
ATOM     34  O   UNL     1      -6.522  12.780  20.339  0.00  0.00    +0.000 OA
ATOM     35  C   UNL     1      -6.958  14.133  20.265  0.00  0.00    +0.000 C 
ENDBRANCH  30  34
ENDBRANCH  25  26
ENDBRANCH  24  25
ENDBRANCH  22  24
ENDBRANCH  20  22
ENDBRANCH  19  20
ENDBRANCH   5  19
TORSDOF 12
ENDMDL
MODEL 9
REMARK VINA RESULT:      -6.7      6.256     11.760
REMARK  Name = 
REMARK  18 active torsions:
REMARK  status: ('A' for Active; 'I' for Inactive)
REMARK    1  A    between atoms: C_1  and  O_2
REMARK    2  A    between atoms: O_2  and  C_3
REMARK    3  A    between atoms: C_6  and  C_7
REMARK    4  A    between atoms: C_8  and  C_9
REMARK    5  A    between atoms: C_12  and  S_13
REMARK    6  A    between atoms: S_13  and  C_14
REMARK    7  A    between atoms: C_17  and  C_18
REMARK    8  A    between atoms: C_18  and  C_19
REMARK    9  A    between atoms: C_19  and  C_20
REMARK   10  A    between atoms: C_19  and  N_21
REMARK   11  A    between atoms: N_21  and  C_22
REMARK   12  A    between atoms: N_21  and  C_23
REMARK   13  A    between atoms: C_23  and  C_24
REMARK   14  A    between atoms: C_24  and  C_25
REMARK   15  A    between atoms: C_28  and  O_29
REMARK   16  A    between atoms: O_29  and  C_30
REMARK   17  A    between atoms: C_31  and  O_32
REMARK   18  A    between atoms: O_32  and  C_33
REMARK                            x       y       z     vdW  Elec       q    Type
REMARK                         _______ _______ _______ _____ _____    ______ ____
ROOT
ATOM      1  C   UNL     1      -0.765  16.354  20.022  0.00  0.00    +0.000 A 
ATOM      2  C   UNL     1      -0.449  15.764  18.798  0.00  0.00    +0.000 A 
ATOM      3  C   UNL     1      -0.040  14.429  18.734  0.00  0.00    +0.000 A 
ATOM      4  C   UNL     1       0.023  13.654  19.890  0.00  0.00    +0.000 A 
ATOM      5  C   UNL     1      -0.345  14.219  21.124  0.00  0.00    +0.000 A 
ATOM      6  C   UNL     1      -0.689  15.584  21.184  0.00  0.00    +0.000 A 
ENDROOT
BRANCH   1   8
ATOM      7  C   UNL     1      -1.501  18.297  21.181  0.00  0.00    +0.000 C 
ATOM      8  O   UNL     1      -1.156  17.663  19.954  0.00  0.00    +0.000 OA
ENDBRANCH   1   8
BRANCH   4   9
ATOM      9  C   UNL     1       0.447  12.286  19.779  0.00  0.00    +0.000 C 
ATOM     10  C   UNL     1       0.814  11.147  19.663  0.00  0.00    +0.000 C 
BRANCH  10  11
ATOM     11  C   UNL     1       1.277   9.799  19.539  0.00  0.00    +0.000 A 
ATOM     12  C   UNL     1       1.226   8.956  20.645  0.00  0.00    +0.000 A 
ATOM     13  C   UNL     1       1.687   7.641  20.543  0.00  0.00    +0.000 A 
ATOM     14  C   UNL     1       2.194   7.145  19.337  0.00  0.00    +0.000 A 
ATOM     15  C   UNL     1       2.245   7.999  18.230  0.00  0.00    +0.000 A 
ATOM     16  C   UNL     1       1.785   9.322  18.329  0.00  0.00    +0.000 A 
BRANCH  14  17
ATOM     17  S   UNL     1       2.823   5.470  19.347  0.00  0.00    +0.000 S 
ATOM     18  C   UNL     1       2.024   4.734  20.798  0.00  0.00    +0.000 C 
ENDBRANCH  14  17
ENDBRANCH  10  11
ENDBRANCH   4   9
BRANCH   5  19
ATOM     19  C   UNL     1      -0.408  13.392  22.390  0.00  0.00    +0.000 C 
BRANCH  19  20
ATOM     20  C   UNL     1      -1.525  12.302  22.436  0.00  0.00    +0.000 C 
ATOM     21  C   UNL     1      -1.008  10.924  22.896  0.00  0.00    +0.000 C 
BRANCH  20  22
ATOM     22  N   UNL     1      -2.712  12.710  23.249  0.00  0.00    +0.000 NA
ATOM     23  C   UNL     1      -2.554  14.045  23.851  0.00  0.00    +0.000 C 
BRANCH  22  24
ATOM     24  C   UNL     1      -3.977  12.690  22.481  0.00  0.00    +0.000 C 
BRANCH  24  25
ATOM     25  C   UNL     1      -3.998  13.624  21.261  0.00  0.00    +0.000 C 
BRANCH  25  26
ATOM     26  C   UNL     1      -4.142  12.834  19.985  0.00  0.00    +0.000 A 
ATOM     27  C   UNL     1      -3.058  12.133  19.458  0.00  0.00    +0.000 A 
ATOM     28  C   UNL     1      -3.229  11.424  18.268  0.00  0.00    +0.000 A 
ATOM     29  C   UNL     1      -4.452  11.390  17.605  0.00  0.00    +0.000 A 
ATOM     30  C   UNL     1      -5.553  12.091  18.127  0.00  0.00    +0.000 A 
ATOM     31  C   UNL     1      -5.387  12.793  19.329  0.00  0.00    +0.000 A 
BRANCH  29  32
ATOM     32  O   UNL     1      -4.401  10.686  16.426  0.00  0.00    +0.000 OA
ATOM     33  C   UNL     1      -3.404  11.063  15.486  0.00  0.00    +0.000 C 
ENDBRANCH  29  32
BRANCH  30  34
ATOM     34  O   UNL     1      -6.730  12.094  17.424  0.00  0.00    +0.000 OA
ATOM     35  C   UNL     1      -7.578  13.232  17.543  0.00  0.00    +0.000 C 
ENDBRANCH  30  34
ENDBRANCH  25  26
ENDBRANCH  24  25
ENDBRANCH  22  24
ENDBRANCH  20  22
ENDBRANCH  19  20
ENDBRANCH   5  19
TORSDOF 12
ENDMDL
