MODEL 1
REMARK VINA RESULT:      -7.6      0.000      0.000
REMARK  Name = 
REMARK  2 active torsions:
REMARK  status: ('A' for Active; 'I' for Inactive)
REMARK    1  A    between atoms: C_1  and  C_2
REMARK    2  A    between atoms: C_6  and  C_7
REMARK                            x       y       z     vdW  Elec       q    Type
REMARK                         _______ _______ _______ _____ _____    ______ ____
ROOT
ATOM      1  C   UNL     1       7.410   4.861  13.378  0.00  0.00    +0.000 C 
ATOM      2  C   UNL     1       6.828   4.897  14.763  0.00  0.00    +0.000 A 
ATOM      3  C   UNL     1       5.750   4.157  15.092  0.00  0.00    +0.000 A 
ATOM      4  N   UNL     1       5.265   4.238  16.382  0.00  0.00    +0.000 N 
ATOM      5  C   UNL     1       4.215   3.629  17.010  0.00  0.00    +0.000 A 
ATOM      6  C   UNL     1       4.240   4.112  18.306  0.00  0.00    +0.000 A 
ATOM      7  N   UNL     1       5.292   4.991  18.483  0.00  0.00    +0.000 NA
ATOM      8  C   UNL     1       5.870   5.046  17.304  0.00  0.00    +0.000 A 
ATOM      9  C   UNL     1       7.011   5.809  16.886  0.00  0.00    +0.000 A 
ATOM     10  N   UNL     1       7.474   5.740  15.664  0.00  0.00    +0.000 NA
ENDROOT
BRANCH   6  11
ATOM     11  C   UNL     1       3.321   3.732  19.366  0.00  0.00    +0.000 A 
ATOM     12  C   UNL     1       3.725   2.800  20.334  0.00  0.00    +0.000 A 
ATOM     13  C   UNL     1       2.843   2.395  21.339  0.00  0.00    +0.000 A 
ATOM     14  C   UNL     1       1.563   2.932  21.385  0.00  0.00    +0.000 A 
ATOM     15  F   UNL     1       0.715   2.540  22.344  0.00  0.00    +0.000 F 
ATOM     16  C   UNL     1       1.148   3.871  20.449  0.00  0.00    +0.000 A 
ATOM     17  C   UNL     1       2.027   4.272  19.439  0.00  0.00    +0.000 A 
ENDBRANCH   6  11
TORSDOF 1
ENDMDL
MODEL 2
REMARK VINA RESULT:      -7.6      0.193      1.186
REMARK  Name = 
REMARK  2 active torsions:
REMARK  status: ('A' for Active; 'I' for Inactive)
REMARK    1  A    between atoms: C_1  and  C_2
REMARK    2  A    between atoms: C_6  and  C_7
REMARK                            x       y       z     vdW  Elec       q    Type
REMARK                         _______ _______ _______ _____ _____    ______ ____
ROOT
ATOM      1  C   UNL     1       7.260   4.808  13.171  0.00  0.00    +0.000 C 
ATOM      2  C   UNL     1       6.735   4.808  14.579  0.00  0.00    +0.000 A 
ATOM      3  C   UNL     1       5.621   4.126  14.914  0.00  0.00    +0.000 A 
ATOM      4  N   UNL     1       5.192   4.170  16.225  0.00  0.00    +0.000 N 
ATOM      5  C   UNL     1       4.127   3.601  16.864  0.00  0.00    +0.000 A 
ATOM      6  C   UNL     1       4.234   4.011  18.181  0.00  0.00    +0.000 A 
ATOM      7  N   UNL     1       5.351   4.806  18.359  0.00  0.00    +0.000 NA
ATOM      8  C   UNL     1       5.887   4.885  17.161  0.00  0.00    +0.000 A 
ATOM      9  C   UNL     1       7.061   5.590  16.736  0.00  0.00    +0.000 A 
ATOM     10  N   UNL     1       7.472   5.556  15.494  0.00  0.00    +0.000 NA
ENDROOT
BRANCH   6  11
ATOM     11  C   UNL     1       3.332   3.638  19.258  0.00  0.00    +0.000 A 
ATOM     12  C   UNL     1       2.016   4.123  19.260  0.00  0.00    +0.000 A 
ATOM     13  C   UNL     1       1.145   3.806  20.305  0.00  0.00    +0.000 A 
ATOM     14  C   UNL     1       1.586   2.992  21.341  0.00  0.00    +0.000 A 
ATOM     15  F   UNL     1       0.754   2.692  22.347  0.00  0.00    +0.000 F 
ATOM     16  C   UNL     1       2.879   2.484  21.350  0.00  0.00    +0.000 A 
ATOM     17  C   UNL     1       3.753   2.807  20.308  0.00  0.00    +0.000 A 
ENDBRANCH   6  11
TORSDOF 1
ENDMDL
MODEL 3
REMARK VINA RESULT:      -6.8      3.399      6.893
REMARK  Name = 
REMARK  2 active torsions:
REMARK  status: ('A' for Active; 'I' for Inactive)
REMARK    1  A    between atoms: C_1  and  C_2
REMARK    2  A    between atoms: C_6  and  C_7
REMARK                            x       y       z     vdW  Elec       q    Type
REMARK                         _______ _______ _______ _____ _____    ______ ____
ROOT
ATOM      1  C   UNL     1       1.352   2.420  22.089  0.00  0.00    +0.000 C 
ATOM      2  C   UNL     1       1.817   2.743  20.698  0.00  0.00    +0.000 A 
ATOM      3  C   UNL     1       3.100   3.070  20.443  0.00  0.00    +0.000 A 
ATOM      4  N   UNL     1       3.461   3.358  19.142  0.00  0.00    +0.000 N 
ATOM      5  C   UNL     1       4.652   3.714  18.575  0.00  0.00    +0.000 A 
ATOM      6  C   UNL     1       4.379   3.864  17.227  0.00  0.00    +0.000 A 
ATOM      7  N   UNL     1       3.050   3.593  16.961  0.00  0.00    +0.000 NA
ATOM      8  C   UNL     1       2.536   3.307  18.136  0.00  0.00    +0.000 A 
ATOM      9  C   UNL     1       1.187   2.956  18.477  0.00  0.00    +0.000 A 
ATOM     10  N   UNL     1       0.837   2.686  19.708  0.00  0.00    +0.000 NA
ENDROOT
BRANCH   6  11
ATOM     11  C   UNL     1       5.349   4.218  16.204  0.00  0.00    +0.000 A 
ATOM     12  C   UNL     1       6.448   5.023  16.539  0.00  0.00    +0.000 A 
ATOM     13  C   UNL     1       7.371   5.404  15.562  0.00  0.00    +0.000 A 
ATOM     14  C   UNL     1       7.202   4.970  14.253  0.00  0.00    +0.000 A 
ATOM     15  F   UNL     1       8.083   5.340  13.314  0.00  0.00    +0.000 F 
ATOM     16  C   UNL     1       6.132   4.157  13.902  0.00  0.00    +0.000 A 
ATOM     17  C   UNL     1       5.205   3.780  14.878  0.00  0.00    +0.000 A 
ENDBRANCH   6  11
TORSDOF 1
ENDMDL
MODEL 4
REMARK VINA RESULT:      -6.8      4.453      7.034
REMARK  Name = 
REMARK  2 active torsions:
REMARK  status: ('A' for Active; 'I' for Inactive)
REMARK    1  A    between atoms: C_1  and  C_2
REMARK    2  A    between atoms: C_6  and  C_7
REMARK                            x       y       z     vdW  Elec       q    Type
REMARK                         _______ _______ _______ _____ _____    ______ ____
ROOT
ATOM      1  C   UNL     1      -0.172   9.546  22.459  0.00  0.00    +0.000 C 
ATOM      2  C   UNL     1       0.565   9.148  21.212  0.00  0.00    +0.000 A 
ATOM      3  C   UNL     1       1.253   7.990  21.141  0.00  0.00    +0.000 A 
ATOM      4  N   UNL     1       1.910   7.685  19.966  0.00  0.00    +0.000 N 
ATOM      5  C   UNL     1       2.673   6.616  19.590  0.00  0.00    +0.000 A 
ATOM      6  C   UNL     1       3.052   6.884  18.286  0.00  0.00    +0.000 A 
ATOM      7  N   UNL     1       2.523   8.087  17.858  0.00  0.00    +0.000 NA
ATOM      8  C   UNL     1       1.858   8.537  18.898  0.00  0.00    +0.000 A 
ATOM      9  C   UNL     1       1.111   9.754  19.043  0.00  0.00    +0.000 A 
ATOM     10  N   UNL     1       0.489  10.051  20.155  0.00  0.00    +0.000 NA
ENDROOT
BRANCH   6  11
ATOM     11  C   UNL     1       3.861   6.017  17.447  0.00  0.00    +0.000 A 
ATOM     12  C   UNL     1       4.756   6.580  16.526  0.00  0.00    +0.000 A 
ATOM     13  C   UNL     1       5.516   5.763  15.685  0.00  0.00    +0.000 A 
ATOM     14  C   UNL     1       5.391   4.382  15.775  0.00  0.00    +0.000 A 
ATOM     15  F   UNL     1       6.115   3.599  14.965  0.00  0.00    +0.000 F 
ATOM     16  C   UNL     1       4.526   3.802  16.694  0.00  0.00    +0.000 A 
ATOM     17  C   UNL     1       3.761   4.619  17.530  0.00  0.00    +0.000 A 
ENDBRANCH   6  11
TORSDOF 1
ENDMDL
MODEL 5
REMARK VINA RESULT:      -6.7      4.645      7.022
REMARK  Name = 
REMARK  2 active torsions:
REMARK  status: ('A' for Active; 'I' for Inactive)
REMARK    1  A    between atoms: C_1  and  C_2
REMARK    2  A    between atoms: C_6  and  C_7
REMARK                            x       y       z     vdW  Elec       q    Type
REMARK                         _______ _______ _______ _____ _____    ______ ____
ROOT
ATOM      1  C   UNL     1      -0.298  10.262  22.151  0.00  0.00    +0.000 C 
ATOM      2  C   UNL     1       0.447   9.733  20.958  0.00  0.00    +0.000 A 
ATOM      3  C   UNL     1       1.073   8.539  20.993  0.00  0.00    +0.000 A 
ATOM      4  N   UNL     1       1.741   8.112  19.863  0.00  0.00    +0.000 N 
ATOM      5  C   UNL     1       2.454   6.980  19.588  0.00  0.00    +0.000 A 
ATOM      6  C   UNL     1       2.878   7.128  18.279  0.00  0.00    +0.000 A 
ATOM      7  N   UNL     1       2.424   8.321  17.748  0.00  0.00    +0.000 NA
ATOM      8  C   UNL     1       1.759   8.882  18.733  0.00  0.00    +0.000 A 
ATOM      9  C   UNL     1       1.076  10.143  18.766  0.00  0.00    +0.000 A 
ATOM     10  N   UNL     1       0.444  10.556  19.835  0.00  0.00    +0.000 NA
ENDROOT
BRANCH   6  11
ATOM     11  C   UNL     1       3.659   6.159  17.530  0.00  0.00    +0.000 A 
ATOM     12  C   UNL     1       3.360   4.793  17.639  0.00  0.00    +0.000 A 
ATOM     13  C   UNL     1       4.124   3.843  16.956  0.00  0.00    +0.000 A 
ATOM     14  C   UNL     1       5.178   4.261  16.152  0.00  0.00    +0.000 A 
ATOM     15  F   UNL     1       5.914   3.351  15.501  0.00  0.00    +0.000 F 
ATOM     16  C   UNL     1       5.480   5.610  16.014  0.00  0.00    +0.000 A 
ATOM     17  C   UNL     1       4.721   6.560  16.703  0.00  0.00    +0.000 A 
ENDBRANCH   6  11
TORSDOF 1
ENDMDL
MODEL 6
REMARK VINA RESULT:      -6.6      1.133      1.204
REMARK  Name = 
REMARK  2 active torsions:
REMARK  status: ('A' for Active; 'I' for Inactive)
REMARK    1  A    between atoms: C_1  and  C_2
REMARK    2  A    between atoms: C_6  and  C_7
REMARK                            x       y       z     vdW  Elec       q    Type
REMARK                         _______ _______ _______ _____ _____    ______ ____
ROOT
ATOM      1  C   UNL     1       7.184   4.615  13.339  0.00  0.00    +0.000 C 
ATOM      2  C   UNL     1       6.295   4.814  14.535  0.00  0.00    +0.000 A 
ATOM      3  C   UNL     1       5.848   3.769  15.260  0.00  0.00    +0.000 A 
ATOM      4  N   UNL     1       5.033   4.021  16.345  0.00  0.00    +0.000 N 
ATOM      5  C   UNL     1       4.432   3.198  17.255  0.00  0.00    +0.000 A 
ATOM      6  C   UNL     1       3.746   4.043  18.109  0.00  0.00    +0.000 A 
ATOM      7  N   UNL     1       3.929   5.364  17.744  0.00  0.00    +0.000 NA
ATOM      8  C   UNL     1       4.695   5.303  16.678  0.00  0.00    +0.000 A 
ATOM      9  C   UNL     1       5.202   6.368  15.862  0.00  0.00    +0.000 A 
ATOM     10  N   UNL     1       5.972   6.137  14.830  0.00  0.00    +0.000 NA
ENDROOT
BRANCH   6  11
ATOM     11  C   UNL     1       2.964   3.627  19.261  0.00  0.00    +0.000 A 
ATOM     12  C   UNL     1       2.212   2.444  19.199  0.00  0.00    +0.000 A 
ATOM     13  C   UNL     1       1.426   2.047  20.283  0.00  0.00    +0.000 A 
ATOM     14  C   UNL     1       1.403   2.824  21.435  0.00  0.00    +0.000 A 
ATOM     15  F   UNL     1       0.645   2.447  22.473  0.00  0.00    +0.000 F 
ATOM     16  C   UNL     1       2.156   3.989  21.526  0.00  0.00    +0.000 A 
ATOM     17  C   UNL     1       2.937   4.390  20.439  0.00  0.00    +0.000 A 
ENDBRANCH   6  11
TORSDOF 1
ENDMDL
MODEL 7
REMARK VINA RESULT:      -6.6      3.368      6.796
REMARK  Name = 
REMARK  2 active torsions:
REMARK  status: ('A' for Active; 'I' for Inactive)
REMARK    1  A    between atoms: C_1  and  C_2
REMARK    2  A    between atoms: C_6  and  C_7
REMARK                            x       y       z     vdW  Elec       q    Type
REMARK                         _______ _______ _______ _____ _____    ______ ____
ROOT
ATOM      1  C   UNL     1       1.455   2.747  21.588  0.00  0.00    +0.000 C 
ATOM      2  C   UNL     1       2.178   3.460  20.480  0.00  0.00    +0.000 A 
ATOM      3  C   UNL     1       2.888   2.783  19.554  0.00  0.00    +0.000 A 
ATOM      4  N   UNL     1       3.530   3.499  18.564  0.00  0.00    +0.000 N 
ATOM      5  C   UNL     1       4.308   3.114  17.508  0.00  0.00    +0.000 A 
ATOM      6  C   UNL     1       4.657   4.291  16.870  0.00  0.00    +0.000 A 
ATOM      7  N   UNL     1       4.095   5.382  17.507  0.00  0.00    +0.000 NA
ATOM      8  C   UNL     1       3.440   4.862  18.521  0.00  0.00    +0.000 A 
ATOM      9  C   UNL     1       2.671   5.519  19.539  0.00  0.00    +0.000 A 
ATOM     10  N   UNL     1       2.063   4.848  20.483  0.00  0.00    +0.000 NA
ENDROOT
BRANCH   6  11
ATOM     11  C   UNL     1       5.469   4.391  15.669  0.00  0.00    +0.000 A 
ATOM     12  C   UNL     1       6.646   5.153  15.688  0.00  0.00    +0.000 A 
ATOM     13  C   UNL     1       7.421   5.291  14.533  0.00  0.00    +0.000 A 
ATOM     14  C   UNL     1       7.025   4.655  13.363  0.00  0.00    +0.000 A 
ATOM     15  F   UNL     1       7.763   4.791  12.254  0.00  0.00    +0.000 F 
ATOM     16  C   UNL     1       5.873   3.879  13.326  0.00  0.00    +0.000 A 
ATOM     17  C   UNL     1       5.094   3.746  14.479  0.00  0.00    +0.000 A 
ENDBRANCH   6  11
TORSDOF 1
ENDMDL
MODEL 8
REMARK VINA RESULT:      -6.6      4.624      6.938
REMARK  Name = 
REMARK  2 active torsions:
REMARK  status: ('A' for Active; 'I' for Inactive)
REMARK    1  A    between atoms: C_1  and  C_2
REMARK    2  A    between atoms: C_6  and  C_7
REMARK                            x       y       z     vdW  Elec       q    Type
REMARK                         _______ _______ _______ _____ _____    ______ ____
ROOT
ATOM      1  C   UNL     1      -0.264  11.383  20.399  0.00  0.00    +0.000 C 
ATOM      2  C   UNL     1       0.518  10.121  20.167  0.00  0.00    +0.000 A 
ATOM      3  C   UNL     1       1.111   9.869  18.982  0.00  0.00    +0.000 A 
ATOM      4  N   UNL     1       1.813   8.689  18.836  0.00  0.00    +0.000 N 
ATOM      5  C   UNL     1       2.507   8.156  17.786  0.00  0.00    +0.000 A 
ATOM      6  C   UNL     1       2.995   6.949  18.252  0.00  0.00    +0.000 A 
ATOM      7  N   UNL     1       2.625   6.743  19.568  0.00  0.00    +0.000 NA
ATOM      8  C   UNL     1       1.909   7.803  19.872  0.00  0.00    +0.000 A 
ATOM      9  C   UNL     1       1.251   8.132  21.104  0.00  0.00    +0.000 A 
ATOM     10  N   UNL     1       0.581   9.246  21.249  0.00  0.00    +0.000 NA
ENDROOT
BRANCH   6  11
ATOM     11  C   UNL     1       3.821   6.024  17.494  0.00  0.00    +0.000 A 
ATOM     12  C   UNL     1       4.806   6.522  16.628  0.00  0.00    +0.000 A 
ATOM     13  C   UNL     1       5.584   5.649  15.863  0.00  0.00    +0.000 A 
ATOM     14  C   UNL     1       5.388   4.278  15.976  0.00  0.00    +0.000 A 
ATOM     15  F   UNL     1       6.130   3.441  15.240  0.00  0.00    +0.000 F 
ATOM     16  C   UNL     1       4.432   3.762  16.842  0.00  0.00    +0.000 A 
ATOM     17  C   UNL     1       3.649   4.634  17.602  0.00  0.00    +0.000 A 
ENDBRANCH   6  11
TORSDOF 1
ENDMDL
MODEL 9
REMARK VINA RESULT:      -6.6      3.387      6.835
REMARK  Name = 
REMARK  2 active torsions:
REMARK  status: ('A' for Active; 'I' for Inactive)
REMARK    1  A    between atoms: C_1  and  C_2
REMARK    2  A    between atoms: C_6  and  C_7
REMARK                            x       y       z     vdW  Elec       q    Type
REMARK                         _______ _______ _______ _____ _____    ______ ____
ROOT
ATOM      1  C   UNL     1       1.504   3.028  21.286  0.00  0.00    +0.000 C 
ATOM      2  C   UNL     1       2.380   3.673  20.249  0.00  0.00    +0.000 A 
ATOM      3  C   UNL     1       2.779   3.001  19.150  0.00  0.00    +0.000 A 
ATOM      4  N   UNL     1       3.584   3.652  18.237  0.00  0.00    +0.000 N 
ATOM      5  C   UNL     1       4.141   3.255  17.054  0.00  0.00    +0.000 A 
ATOM      6  C   UNL     1       4.844   4.356  16.598  0.00  0.00    +0.000 A 
ATOM      7  N   UNL     1       4.714   5.419  17.473  0.00  0.00    +0.000 NA
ATOM      8  C   UNL     1       3.963   4.949  18.444  0.00  0.00    +0.000 A 
ATOM      9  C   UNL     1       3.507   5.603  19.637  0.00  0.00    +0.000 A 
ATOM     10  N   UNL     1       2.746   4.992  20.508  0.00  0.00    +0.000 NA
ENDROOT
BRANCH   6  11
ATOM     11  C   UNL     1       5.591   4.424  15.354  0.00  0.00    +0.000 A 
ATOM     12  C   UNL     1       5.138   3.713  14.232  0.00  0.00    +0.000 A 
ATOM     13  C   UNL     1       5.863   3.737  13.038  0.00  0.00    +0.000 A 
ATOM     14  C   UNL     1       7.033   4.483  12.961  0.00  0.00    +0.000 A 
ATOM     15  F   UNL     1       7.732   4.501  11.819  0.00  0.00    +0.000 F 
ATOM     16  C   UNL     1       7.490   5.210  14.053  0.00  0.00    +0.000 A 
ATOM     17  C   UNL     1       6.769   5.181  15.250  0.00  0.00    +0.000 A 
ENDBRANCH   6  11
TORSDOF 1
ENDMDL
