MODEL 1
REMARK VINA RESULT:      -8.2      0.000      0.000
REMARK  Name = 
REMARK  8 active torsions:
REMARK  status: ('A' for Active; 'I' for Inactive)
REMARK    1  A    between atoms: C_1  and  C_2
REMARK    2  A    between atoms: C_5  and  C_6
REMARK    3  A    between atoms: C_8  and  C_9
REMARK    4  A    between atoms: C_11  and  N_12
REMARK    5  A    between atoms: C_14  and  C_15
REMARK    6  A    between atoms: C_17  and  C_18
REMARK    7  A    between atoms: C_18  and  C_19
REMARK    8  A    between atoms: C_26  and  C_27
REMARK                            x       y       z     vdW  Elec       q    Type
REMARK                         _______ _______ _______ _____ _____    ______ ____
ROOT
ATOM      1  C   UNL     1       1.586   8.313  20.377  0.00  0.00    +0.000 A 
ATOM      2  C   UNL     1       1.491   9.482  19.640  0.00  0.00    +0.000 A 
ATOM      3  C   UNL     1       0.821  10.555  20.218  0.00  0.00    +0.000 A 
ATOM      4  N   UNL     1       0.248  10.473  21.437  0.00  0.00    +0.000 NA
ATOM      5  C   UNL     1       0.363   9.301  22.078  0.00  0.00    +0.000 A 
ATOM      6  C   UNL     1      -0.224   9.190  23.450  0.00  0.00    +0.000 C 
ATOM      7  N   UNL     1       1.001   8.223  21.594  0.00  0.00    +0.000 NA
ENDROOT
BRANCH   3   8
ATOM      8  N   UNL     1       0.750  11.793  19.505  0.00  0.00    +0.000 N 
ATOM      9  N   UNL     1       1.886  12.476  19.168  0.00  0.00    +0.000 NA
ATOM     10  C   UNL     1       1.407  13.528  18.499  0.00  0.00    +0.000 A 
ATOM     11  C   UNL     1       2.267  14.584  17.930  0.00  0.00    +0.000 C 
ATOM     12  N   UNL     1       0.056  13.573  18.383  0.00  0.00    +0.000 NA
ATOM     13  C   UNL     1      -0.354  12.497  19.036  0.00  0.00    +0.000 A 
BRANCH  13  14
ATOM     14  C   UNL     1      -1.792  12.143  19.231  0.00  0.00    +0.000 C 
BRANCH  14  15
ATOM     15  C   UNL     1      -2.408  11.389  18.069  0.00  0.00    +0.000 A 
ATOM     16  C   UNL     1      -3.693  11.709  17.600  0.00  0.00    +0.000 A 
ATOM     17  C   UNL     1      -4.229  11.062  16.485  0.00  0.00    +0.000 A 
ATOM     18  C   UNL     1      -3.485  10.092  15.818  0.00  0.00    +0.000 A 
ATOM     19  C   UNL     1      -2.209   9.762  16.273  0.00  0.00    +0.000 A 
ATOM     20  C   UNL     1      -1.674  10.407  17.390  0.00  0.00    +0.000 A 
ENDBRANCH  14  15
ENDBRANCH  13  14
ENDBRANCH   3   8
BRANCH   1  23
ATOM     21  C   UNL     1       2.058   6.244  18.747  0.00  0.00    +0.000 C 
ATOM     22  C   UNL     1       1.883   5.740  20.158  0.00  0.00    +0.000 C 
ATOM     23  C   UNL     1       2.421   7.132  19.925  0.00  0.00    +0.000 C 
BRANCH  21  28
ATOM     24  C   UNL     1       6.205   4.116  15.300  0.00  0.00    +0.000 C 
ATOM     25  C   UNL     1       5.137   4.615  16.222  0.00  0.00    +0.000 A 
ATOM     26  C   UNL     1       4.246   3.752  16.852  0.00  0.00    +0.000 A 
ATOM     27  C   UNL     1       3.253   4.276  17.682  0.00  0.00    +0.000 A 
ATOM     28  C   UNL     1       3.155   5.657  17.880  0.00  0.00    +0.000 A 
ATOM     29  N   UNL     1       4.029   6.500  17.277  0.00  0.00    +0.000 NA
ATOM     30  C   UNL     1       4.986   5.971  16.476  0.00  0.00    +0.000 A 
ENDBRANCH  21  28
ENDBRANCH   1  23
TORSDOF 5
ENDMDL
MODEL 2
REMARK VINA RESULT:      -8.1      2.183      8.535
REMARK  Name = 
REMARK  8 active torsions:
REMARK  status: ('A' for Active; 'I' for Inactive)
REMARK    1  A    between atoms: C_1  and  C_2
REMARK    2  A    between atoms: C_5  and  C_6
REMARK    3  A    between atoms: C_8  and  C_9
REMARK    4  A    between atoms: C_11  and  N_12
REMARK    5  A    between atoms: C_14  and  C_15
REMARK    6  A    between atoms: C_17  and  C_18
REMARK    7  A    between atoms: C_18  and  C_19
REMARK    8  A    between atoms: C_26  and  C_27
REMARK                            x       y       z     vdW  Elec       q    Type
REMARK                         _______ _______ _______ _____ _____    ______ ____
ROOT
ATOM      1  C   UNL     1       0.070   9.732  18.738  0.00  0.00    +0.000 A 
ATOM      2  C   UNL     1       0.989   8.955  18.054  0.00  0.00    +0.000 A 
ATOM      3  C   UNL     1       1.887   8.206  18.808  0.00  0.00    +0.000 A 
ATOM      4  N   UNL     1       1.901   8.245  20.156  0.00  0.00    +0.000 NA
ATOM      5  C   UNL     1       0.995   9.038  20.745  0.00  0.00    +0.000 A 
ATOM      6  C   UNL     1       0.955   9.071  22.241  0.00  0.00    +0.000 C 
ATOM      7  N   UNL     1       0.089   9.783  20.090  0.00  0.00    +0.000 NA
ENDROOT
BRANCH   3   8
ATOM      8  N   UNL     1       2.816   7.353  18.132  0.00  0.00    +0.000 N 
ATOM      9  N   UNL     1       3.983   7.849  17.623  0.00  0.00    +0.000 NA
ATOM     10  C   UNL     1       4.570   6.760  17.121  0.00  0.00    +0.000 A 
ATOM     11  C   UNL     1       5.879   6.788  16.440  0.00  0.00    +0.000 C 
ATOM     12  N   UNL     1       3.869   5.607  17.266  0.00  0.00    +0.000 NA
ATOM     13  C   UNL     1       2.759   5.987  17.878  0.00  0.00    +0.000 A 
BRANCH  13  14
ATOM     14  C   UNL     1       1.636   5.058  18.210  0.00  0.00    +0.000 C 
BRANCH  14  15
ATOM     15  C   UNL     1       1.929   4.116  19.361  0.00  0.00    +0.000 A 
ATOM     16  C   UNL     1       3.129   3.387  19.409  0.00  0.00    +0.000 A 
ATOM     17  C   UNL     1       3.428   2.575  20.504  0.00  0.00    +0.000 A 
ATOM     18  C   UNL     1       2.537   2.486  21.570  0.00  0.00    +0.000 A 
ATOM     19  C   UNL     1       1.342   3.203  21.536  0.00  0.00    +0.000 A 
ATOM     20  C   UNL     1       1.040   4.013  20.440  0.00  0.00    +0.000 A 
ENDBRANCH  14  15
ENDBRANCH  13  14
ENDBRANCH   3   8
BRANCH   1  23
ATOM     21  C   UNL     1      -2.503  10.001  18.052  0.00  0.00    +0.000 C 
ATOM     22  C   UNL     1      -1.666   9.839  16.806  0.00  0.00    +0.000 C 
ATOM     23  C   UNL     1      -1.056  10.467  18.038  0.00  0.00    +0.000 C 
BRANCH  21  28
ATOM     24  C   UNL     1      -6.854  13.825  18.256  0.00  0.00    +0.000 C 
ATOM     25  C   UNL     1      -5.723  12.852  18.145  0.00  0.00    +0.000 A 
ATOM     26  C   UNL     1      -5.436  12.188  16.957  0.00  0.00    +0.000 A 
ATOM     27  C   UNL     1      -4.384  11.271  16.919  0.00  0.00    +0.000 A 
ATOM     28  C   UNL     1      -3.623  11.022  18.066  0.00  0.00    +0.000 A 
ATOM     29  N   UNL     1      -3.892  11.676  19.223  0.00  0.00    +0.000 NA
ATOM     30  C   UNL     1      -4.918  12.563  19.238  0.00  0.00    +0.000 A 
ENDBRANCH  21  28
ENDBRANCH   1  23
TORSDOF 5
ENDMDL
MODEL 3
REMARK VINA RESULT:      -8.1      7.048      9.812
REMARK  Name = 
REMARK  8 active torsions:
REMARK  status: ('A' for Active; 'I' for Inactive)
REMARK    1  A    between atoms: C_1  and  C_2
REMARK    2  A    between atoms: C_5  and  C_6
REMARK    3  A    between atoms: C_8  and  C_9
REMARK    4  A    between atoms: C_11  and  N_12
REMARK    5  A    between atoms: C_14  and  C_15
REMARK    6  A    between atoms: C_17  and  C_18
REMARK    7  A    between atoms: C_18  and  C_19
REMARK    8  A    between atoms: C_26  and  C_27
REMARK                            x       y       z     vdW  Elec       q    Type
REMARK                         _______ _______ _______ _____ _____    ______ ____
ROOT
ATOM      1  C   UNL     1       8.246   8.134  18.223  0.00  0.00    +0.000 A 
ATOM      2  C   UNL     1       7.681   7.574  17.089  0.00  0.00    +0.000 A 
ATOM      3  C   UNL     1       7.391   6.214  17.119  0.00  0.00    +0.000 A 
ATOM      4  N   UNL     1       7.669   5.443  18.190  0.00  0.00    +0.000 NA
ATOM      5  C   UNL     1       8.236   6.053  19.241  0.00  0.00    +0.000 A 
ATOM      6  C   UNL     1       8.518   5.236  20.462  0.00  0.00    +0.000 C 
ATOM      7  N   UNL     1       8.538   7.361  19.294  0.00  0.00    +0.000 NA
ENDROOT
BRANCH   3   8
ATOM      8  N   UNL     1       6.760   5.615  15.983  0.00  0.00    +0.000 N 
ATOM      9  N   UNL     1       7.477   5.318  14.858  0.00  0.00    +0.000 NA
ATOM     10  C   UNL     1       6.560   4.755  14.067  0.00  0.00    +0.000 A 
ATOM     11  C   UNL     1       6.856   4.266  12.707  0.00  0.00    +0.000 C 
ATOM     12  N   UNL     1       5.314   4.670  14.597  0.00  0.00    +0.000 NA
ATOM     13  C   UNL     1       5.438   5.233  15.788  0.00  0.00    +0.000 A 
BRANCH  13  14
ATOM     14  C   UNL     1       4.299   5.424  16.738  0.00  0.00    +0.000 C 
BRANCH  14  15
ATOM     15  C   UNL     1       3.898   4.167  17.485  0.00  0.00    +0.000 A 
ATOM     16  C   UNL     1       4.587   3.763  18.641  0.00  0.00    +0.000 A 
ATOM     17  C   UNL     1       4.171   2.646  19.368  0.00  0.00    +0.000 A 
ATOM     18  C   UNL     1       3.056   1.922  18.954  0.00  0.00    +0.000 A 
ATOM     19  C   UNL     1       2.362   2.311  17.809  0.00  0.00    +0.000 A 
ATOM     20  C   UNL     1       2.779   3.426  17.080  0.00  0.00    +0.000 A 
ENDBRANCH  14  15
ENDBRANCH  13  14
ENDBRANCH   3   8
BRANCH   1  23
ATOM     21  C   UNL     1       9.802  10.254  18.719  0.00  0.00    +0.000 C 
ATOM     22  C   UNL     1       8.708  10.183  19.756  0.00  0.00    +0.000 C 
ATOM     23  C   UNL     1       8.462   9.627  18.372  0.00  0.00    +0.000 C 
BRANCH  21  28
ATOM     24  C   UNL     1      11.406  15.387  16.555  0.00  0.00    +0.000 C 
ATOM     25  C   UNL     1      10.935  14.076  17.102  0.00  0.00    +0.000 A 
ATOM     26  C   UNL     1       9.689  13.934  17.702  0.00  0.00    +0.000 A 
ATOM     27  C   UNL     1       9.311  12.692  18.218  0.00  0.00    +0.000 A 
ATOM     28  C   UNL     1      10.179  11.599  18.130  0.00  0.00    +0.000 A 
ATOM     29  N   UNL     1      11.390  11.731  17.535  0.00  0.00    +0.000 NA
ATOM     30  C   UNL     1      11.737  12.945  17.040  0.00  0.00    +0.000 A 
ENDBRANCH  21  28
ENDBRANCH   1  23
TORSDOF 5
ENDMDL
MODEL 4
REMARK VINA RESULT:      -8.1      2.542      9.149
REMARK  Name = 
REMARK  8 active torsions:
REMARK  status: ('A' for Active; 'I' for Inactive)
REMARK    1  A    between atoms: C_1  and  C_2
REMARK    2  A    between atoms: C_5  and  C_6
REMARK    3  A    between atoms: C_8  and  C_9
REMARK    4  A    between atoms: C_11  and  N_12
REMARK    5  A    between atoms: C_14  and  C_15
REMARK    6  A    between atoms: C_17  and  C_18
REMARK    7  A    between atoms: C_18  and  C_19
REMARK    8  A    between atoms: C_26  and  C_27
REMARK                            x       y       z     vdW  Elec       q    Type
REMARK                         _______ _______ _______ _____ _____    ______ ____
ROOT
ATOM      1  C   UNL     1       2.738   6.422  18.230  0.00  0.00    +0.000 A 
ATOM      2  C   UNL     1       3.808   6.137  17.397  0.00  0.00    +0.000 A 
ATOM      3  C   UNL     1       3.980   4.815  17.000  0.00  0.00    +0.000 A 
ATOM      4  N   UNL     1       3.168   3.825  17.424  0.00  0.00    +0.000 NA
ATOM      5  C   UNL     1       2.168   4.177  18.246  0.00  0.00    +0.000 A 
ATOM      6  C   UNL     1       1.222   3.110  18.700  0.00  0.00    +0.000 C 
ATOM      7  N   UNL     1       1.929   5.430  18.666  0.00  0.00    +0.000 NA
ENDROOT
BRANCH   3   8
ATOM      8  N   UNL     1       5.045   4.496  16.100  0.00  0.00    +0.000 N 
ATOM      9  N   UNL     1       4.792   4.202  14.789  0.00  0.00    +0.000 NA
ATOM     10  C   UNL     1       6.016   4.004  14.292  0.00  0.00    +0.000 A 
ATOM     11  C   UNL     1       6.267   3.642  12.884  0.00  0.00    +0.000 C 
ATOM     12  N   UNL     1       7.030   4.145  15.181  0.00  0.00    +0.000 NA
ATOM     13  C   UNL     1       6.417   4.429  16.319  0.00  0.00    +0.000 A 
BRANCH  13  14
ATOM     14  C   UNL     1       7.128   4.622  17.619  0.00  0.00    +0.000 C 
BRANCH  14  15
ATOM     15  C   UNL     1       7.582   6.046  17.872  0.00  0.00    +0.000 A 
ATOM     16  C   UNL     1       7.252   7.079  16.979  0.00  0.00    +0.000 A 
ATOM     17  C   UNL     1       7.610   8.401  17.250  0.00  0.00    +0.000 A 
ATOM     18  C   UNL     1       8.297   8.710  18.421  0.00  0.00    +0.000 A 
ATOM     19  C   UNL     1       8.633   7.696  19.317  0.00  0.00    +0.000 A 
ATOM     20  C   UNL     1       8.278   6.373  19.044  0.00  0.00    +0.000 A 
ENDBRANCH  14  15
ENDBRANCH  13  14
ENDBRANCH   3   8
BRANCH   1  23
ATOM     21  C   UNL     1       1.451   8.719  17.752  0.00  0.00    +0.000 C 
ATOM     22  C   UNL     1       2.937   8.978  17.799  0.00  0.00    +0.000 C 
ATOM     23  C   UNL     1       2.352   7.840  18.603  0.00  0.00    +0.000 C 
BRANCH  21  28
ATOM     24  C   UNL     1      -2.139  12.373  20.466  0.00  0.00    +0.000 C 
ATOM     25  C   UNL     1      -1.237  11.446  19.713  0.00  0.00    +0.000 A 
ATOM     26  C   UNL     1      -1.627  10.846  18.521  0.00  0.00    +0.000 A 
ATOM     27  C   UNL     1      -0.753   9.969  17.875  0.00  0.00    +0.000 A 
ATOM     28  C   UNL     1       0.505   9.698  18.421  0.00  0.00    +0.000 A 
ATOM     29  N   UNL     1       0.894  10.291  19.577  0.00  0.00    +0.000 NA
ATOM     30  C   UNL     1       0.031  11.139  20.188  0.00  0.00    +0.000 A 
ENDBRANCH  21  28
ENDBRANCH   1  23
TORSDOF 5
ENDMDL
MODEL 5
REMARK VINA RESULT:      -8.0      2.798      9.222
REMARK  Name = 
REMARK  8 active torsions:
REMARK  status: ('A' for Active; 'I' for Inactive)
REMARK    1  A    between atoms: C_1  and  C_2
REMARK    2  A    between atoms: C_5  and  C_6
REMARK    3  A    between atoms: C_8  and  C_9
REMARK    4  A    between atoms: C_11  and  N_12
REMARK    5  A    between atoms: C_14  and  C_15
REMARK    6  A    between atoms: C_17  and  C_18
REMARK    7  A    between atoms: C_18  and  C_19
REMARK    8  A    between atoms: C_26  and  C_27
REMARK                            x       y       z     vdW  Elec       q    Type
REMARK                         _______ _______ _______ _____ _____    ______ ____
ROOT
ATOM      1  C   UNL     1       2.856   6.254  18.334  0.00  0.00    +0.000 A 
ATOM      2  C   UNL     1       3.902   5.989  17.465  0.00  0.00    +0.000 A 
ATOM      3  C   UNL     1       4.001   4.701  16.951  0.00  0.00    +0.000 A 
ATOM      4  N   UNL     1       3.141   3.721  17.296  0.00  0.00    +0.000 NA
ATOM      5  C   UNL     1       2.169   4.049  18.159  0.00  0.00    +0.000 A 
ATOM      6  C   UNL     1       1.172   2.997  18.529  0.00  0.00    +0.000 C 
ATOM      7  N   UNL     1       2.000   5.271  18.692  0.00  0.00    +0.000 NA
ENDROOT
BRANCH   3   8
ATOM      8  N   UNL     1       5.039   4.408  16.011  0.00  0.00    +0.000 N 
ATOM      9  N   UNL     1       4.749   4.159  14.698  0.00  0.00    +0.000 NA
ATOM     10  C   UNL     1       5.958   3.974  14.162  0.00  0.00    +0.000 A 
ATOM     11  C   UNL     1       6.169   3.659  12.736  0.00  0.00    +0.000 C 
ATOM     12  N   UNL     1       6.997   4.082  15.027  0.00  0.00    +0.000 NA
ATOM     13  C   UNL     1       6.416   4.330  16.190  0.00  0.00    +0.000 A 
BRANCH  13  14
ATOM     14  C   UNL     1       7.163   4.477  17.476  0.00  0.00    +0.000 C 
BRANCH  14  15
ATOM     15  C   UNL     1       7.514   5.909  17.829  0.00  0.00    +0.000 A 
ATOM     16  C   UNL     1       8.185   6.215  19.025  0.00  0.00    +0.000 A 
ATOM     17  C   UNL     1       8.569   7.525  19.314  0.00  0.00    +0.000 A 
ATOM     18  C   UNL     1       8.297   8.548  18.408  0.00  0.00    +0.000 A 
ATOM     19  C   UNL     1       7.631   8.260  17.218  0.00  0.00    +0.000 A 
ATOM     20  C   UNL     1       7.243   6.950  16.929  0.00  0.00    +0.000 A 
ENDBRANCH  14  15
ENDBRANCH  13  14
ENDBRANCH   3   8
BRANCH   1  23
ATOM     21  C   UNL     1       1.233   8.366  18.586  0.00  0.00    +0.000 C 
ATOM     22  C   UNL     1       2.473   8.776  17.830  0.00  0.00    +0.000 C 
ATOM     23  C   UNL     1       2.550   7.651  18.836  0.00  0.00    +0.000 C 
BRANCH  21  28
ATOM     24  C   UNL     1      -1.042  11.783  22.679  0.00  0.00    +0.000 C 
ATOM     25  C   UNL     1      -0.436  10.950  21.594  0.00  0.00    +0.000 A 
ATOM     26  C   UNL     1      -0.330  11.409  20.285  0.00  0.00    +0.000 A 
ATOM     27  C   UNL     1       0.222  10.578  19.308  0.00  0.00    +0.000 A 
ATOM     28  C   UNL     1       0.667   9.295  19.642  0.00  0.00    +0.000 A 
ATOM     29  N   UNL     1       0.576   8.849  20.919  0.00  0.00    +0.000 NA
ATOM     30  C   UNL     1       0.038   9.671  21.853  0.00  0.00    +0.000 A 
ENDBRANCH  21  28
ENDBRANCH   1  23
TORSDOF 5
ENDMDL
MODEL 6
REMARK VINA RESULT:      -8.0      0.573      1.264
REMARK  Name = 
REMARK  8 active torsions:
REMARK  status: ('A' for Active; 'I' for Inactive)
REMARK    1  A    between atoms: C_1  and  C_2
REMARK    2  A    between atoms: C_5  and  C_6
REMARK    3  A    between atoms: C_8  and  C_9
REMARK    4  A    between atoms: C_11  and  N_12
REMARK    5  A    between atoms: C_14  and  C_15
REMARK    6  A    between atoms: C_17  and  C_18
REMARK    7  A    between atoms: C_18  and  C_19
REMARK    8  A    between atoms: C_26  and  C_27
REMARK                            x       y       z     vdW  Elec       q    Type
REMARK                         _______ _______ _______ _____ _____    ______ ____
ROOT
ATOM      1  C   UNL     1       1.599   8.453  20.350  0.00  0.00    +0.000 A 
ATOM      2  C   UNL     1       1.553   9.640  19.637  0.00  0.00    +0.000 A 
ATOM      3  C   UNL     1       0.902  10.719  20.225  0.00  0.00    +0.000 A 
ATOM      4  N   UNL     1       0.302  10.628  21.430  0.00  0.00    +0.000 NA
ATOM      5  C   UNL     1       0.371   9.440  22.048  0.00  0.00    +0.000 A 
ATOM      6  C   UNL     1      -0.247   9.316  23.406  0.00  0.00    +0.000 C 
ATOM      7  N   UNL     1       0.988   8.354  21.553  0.00  0.00    +0.000 NA
ENDROOT
BRANCH   3   8
ATOM      8  N   UNL     1       0.881  11.974  19.538  0.00  0.00    +0.000 N 
ATOM      9  N   UNL     1       2.043  12.590  19.165  0.00  0.00    +0.000 NA
ATOM     10  C   UNL     1       1.605  13.684  18.536  0.00  0.00    +0.000 A 
ATOM     11  C   UNL     1       2.507  14.695  17.950  0.00  0.00    +0.000 C 
ATOM     12  N   UNL     1       0.256  13.817  18.479  0.00  0.00    +0.000 NA
ATOM     13  C   UNL     1      -0.194  12.756  19.130  0.00  0.00    +0.000 A 
BRANCH  13  14
ATOM     14  C   UNL     1      -1.643  12.490  19.380  0.00  0.00    +0.000 C 
BRANCH  14  15
ATOM     15  C   UNL     1      -2.312  11.645  18.313  0.00  0.00    +0.000 A 
ATOM     16  C   UNL     1      -1.567  10.743  17.534  0.00  0.00    +0.000 A 
ATOM     17  C   UNL     1      -2.196   9.916  16.603  0.00  0.00    +0.000 A 
ATOM     18  C   UNL     1      -3.578   9.971  16.442  0.00  0.00    +0.000 A 
ATOM     19  C   UNL     1      -4.330  10.861  17.207  0.00  0.00    +0.000 A 
ATOM     20  C   UNL     1      -3.701  11.692  18.137  0.00  0.00    +0.000 A 
ENDBRANCH  14  15
ENDBRANCH  13  14
ENDBRANCH   3   8
BRANCH   1  23
ATOM     21  C   UNL     1       2.009   6.365  18.728  0.00  0.00    +0.000 C 
ATOM     22  C   UNL     1       1.860   5.874  20.147  0.00  0.00    +0.000 C 
ATOM     23  C   UNL     1       2.410   7.258  19.889  0.00  0.00    +0.000 C 
BRANCH  21  28
ATOM     24  C   UNL     1       6.130   3.917  15.468  0.00  0.00    +0.000 C 
ATOM     25  C   UNL     1       5.071   4.599  16.276  0.00  0.00    +0.000 A 
ATOM     26  C   UNL     1       5.063   5.976  16.468  0.00  0.00    +0.000 A 
ATOM     27  C   UNL     1       4.065   6.555  17.253  0.00  0.00    +0.000 A 
ATOM     28  C   UNL     1       3.078   5.757  17.840  0.00  0.00    +0.000 A 
ATOM     29  N   UNL     1       3.075   4.416  17.646  0.00  0.00    +0.000 NA
ATOM     30  C   UNL     1       4.053   3.873  16.880  0.00  0.00    +0.000 A 
ENDBRANCH  21  28
ENDBRANCH   1  23
TORSDOF 5
ENDMDL
MODEL 7
REMARK VINA RESULT:      -7.9      1.812      4.214
REMARK  Name = 
REMARK  8 active torsions:
REMARK  status: ('A' for Active; 'I' for Inactive)
REMARK    1  A    between atoms: C_1  and  C_2
REMARK    2  A    between atoms: C_5  and  C_6
REMARK    3  A    between atoms: C_8  and  C_9
REMARK    4  A    between atoms: C_11  and  N_12
REMARK    5  A    between atoms: C_14  and  C_15
REMARK    6  A    between atoms: C_17  and  C_18
REMARK    7  A    between atoms: C_18  and  C_19
REMARK    8  A    between atoms: C_26  and  C_27
REMARK                            x       y       z     vdW  Elec       q    Type
REMARK                         _______ _______ _______ _____ _____    ______ ____
ROOT
ATOM      1  C   UNL     1       3.423   6.123  18.276  0.00  0.00    +0.000 A 
ATOM      2  C   UNL     1       2.751   7.207  18.818  0.00  0.00    +0.000 A 
ATOM      3  C   UNL     1       2.021   6.994  19.982  0.00  0.00    +0.000 A 
ATOM      4  N   UNL     1       1.929   5.779  20.562  0.00  0.00    +0.000 NA
ATOM      5  C   UNL     1       2.588   4.776  19.965  0.00  0.00    +0.000 A 
ATOM      6  C   UNL     1       2.543   3.425  20.606  0.00  0.00    +0.000 C 
ATOM      7  N   UNL     1       3.322   4.901  18.847  0.00  0.00    +0.000 NA
ENDROOT
BRANCH   3   8
ATOM      8  N   UNL     1       1.358   8.103  20.596  0.00  0.00    +0.000 N 
ATOM      9  N   UNL     1       1.063   8.094  21.931  0.00  0.00    +0.000 NA
ATOM     10  C   UNL     1       0.498   9.290  22.114  0.00  0.00    +0.000 A 
ATOM     11  C   UNL     1      -0.010   9.753  23.420  0.00  0.00    +0.000 C 
ATOM     12  N   UNL     1       0.406  10.062  21.002  0.00  0.00    +0.000 NA
ATOM     13  C   UNL     1       0.923   9.305  20.048  0.00  0.00    +0.000 A 
BRANCH  13  14
ATOM     14  C   UNL     1       0.993   9.713  18.612  0.00  0.00    +0.000 C 
BRANCH  14  15
ATOM     15  C   UNL     1      -0.298  10.294  18.069  0.00  0.00    +0.000 A 
ATOM     16  C   UNL     1      -1.161   9.520  17.275  0.00  0.00    +0.000 A 
ATOM     17  C   UNL     1      -2.382  10.034  16.836  0.00  0.00    +0.000 A 
ATOM     18  C   UNL     1      -2.763  11.325  17.191  0.00  0.00    +0.000 A 
ATOM     19  C   UNL     1      -1.917  12.105  17.979  0.00  0.00    +0.000 A 
ATOM     20  C   UNL     1      -0.694  11.593  18.415  0.00  0.00    +0.000 A 
ENDBRANCH  14  15
ENDBRANCH  13  14
ENDBRANCH   3   8
BRANCH   1  23
ATOM     21  C   UNL     1       5.630   5.420  16.937  0.00  0.00    +0.000 C 
ATOM     22  C   UNL     1       5.736   6.867  17.352  0.00  0.00    +0.000 C 
ATOM     23  C   UNL     1       4.375   6.260  17.104  0.00  0.00    +0.000 C 
BRANCH  21  28
ATOM     24  C   UNL     1       7.381   4.034  11.588  0.00  0.00    +0.000 C 
ATOM     25  C   UNL     1       6.905   4.337  12.974  0.00  0.00    +0.000 A 
ATOM     26  C   UNL     1       5.761   3.752  13.504  0.00  0.00    +0.000 A 
ATOM     27  C   UNL     1       5.350   4.091  14.795  0.00  0.00    +0.000 A 
ATOM     28  C   UNL     1       6.084   5.011  15.550  0.00  0.00    +0.000 A 
ATOM     29  N   UNL     1       7.207   5.575  15.041  0.00  0.00    +0.000 NA
ATOM     30  C   UNL     1       7.589   5.231  13.786  0.00  0.00    +0.000 A 
ENDBRANCH  21  28
ENDBRANCH   1  23
TORSDOF 5
ENDMDL
MODEL 8
REMARK VINA RESULT:      -7.9      2.337      8.579
REMARK  Name = 
REMARK  8 active torsions:
REMARK  status: ('A' for Active; 'I' for Inactive)
REMARK    1  A    between atoms: C_1  and  C_2
REMARK    2  A    between atoms: C_5  and  C_6
REMARK    3  A    between atoms: C_8  and  C_9
REMARK    4  A    between atoms: C_11  and  N_12
REMARK    5  A    between atoms: C_14  and  C_15
REMARK    6  A    between atoms: C_17  and  C_18
REMARK    7  A    between atoms: C_18  and  C_19
REMARK    8  A    between atoms: C_26  and  C_27
REMARK                            x       y       z     vdW  Elec       q    Type
REMARK                         _______ _______ _______ _____ _____    ______ ____
ROOT
ATOM      1  C   UNL     1      -0.735  10.485  19.051  0.00  0.00    +0.000 A 
ATOM      2  C   UNL     1       0.230   9.649  18.514  0.00  0.00    +0.000 A 
ATOM      3  C   UNL     1       1.107   9.028  19.396  0.00  0.00    +0.000 A 
ATOM      4  N   UNL     1       1.060   9.242  20.727  0.00  0.00    +0.000 NA
ATOM      5  C   UNL     1       0.113  10.082  21.169  0.00  0.00    +0.000 A 
ATOM      6  C   UNL     1       0.005  10.307  22.644  0.00  0.00    +0.000 C 
ATOM      7  N   UNL     1      -0.777  10.712  20.384  0.00  0.00    +0.000 NA
ENDROOT
BRANCH   3   8
ATOM      8  N   UNL     1       2.082   8.119  18.878  0.00  0.00    +0.000 N 
ATOM      9  N   UNL     1       2.773   8.406  17.734  0.00  0.00    +0.000 NA
ATOM     10  C   UNL     1       3.588   7.355  17.612  0.00  0.00    +0.000 A 
ATOM     11  C   UNL     1       4.544   7.198  16.499  0.00  0.00    +0.000 C 
ATOM     12  N   UNL     1       3.472   6.418  18.586  0.00  0.00    +0.000 NA
ATOM     13  C   UNL     1       2.510   6.888  19.364  0.00  0.00    +0.000 A 
BRANCH  13  14
ATOM     14  C   UNL     1       1.983   6.164  20.561  0.00  0.00    +0.000 C 
BRANCH  14  15
ATOM     15  C   UNL     1       1.809   4.672  20.357  0.00  0.00    +0.000 A 
ATOM     16  C   UNL     1       2.108   3.763  21.385  0.00  0.00    +0.000 A 
ATOM     17  C   UNL     1       1.879   2.395  21.219  0.00  0.00    +0.000 A 
ATOM     18  C   UNL     1       1.342   1.919  20.026  0.00  0.00    +0.000 A 
ATOM     19  C   UNL     1       1.041   2.809  18.996  0.00  0.00    +0.000 A 
ATOM     20  C   UNL     1       1.272   4.176  19.161  0.00  0.00    +0.000 A 
ENDBRANCH  14  15
ENDBRANCH  13  14
ENDBRANCH   3   8
BRANCH   1  23
ATOM     21  C   UNL     1      -3.250  10.525  18.137  0.00  0.00    +0.000 C 
ATOM     22  C   UNL     1      -2.299  10.353  16.978  0.00  0.00    +0.000 C 
ATOM     23  C   UNL     1      -1.843  11.094  18.214  0.00  0.00    +0.000 C 
BRANCH  21  28
ATOM     24  C   UNL     1      -7.872  13.994  17.696  0.00  0.00    +0.000 C 
ATOM     25  C   UNL     1      -6.658  13.123  17.759  0.00  0.00    +0.000 A 
ATOM     26  C   UNL     1      -5.999  12.693  16.612  0.00  0.00    +0.000 A 
ATOM     27  C   UNL     1      -4.885  11.860  16.730  0.00  0.00    +0.000 A 
ATOM     28  C   UNL     1      -4.434  11.461  17.993  0.00  0.00    +0.000 A 
ATOM     29  N   UNL     1      -5.066  11.887  19.114  0.00  0.00    +0.000 NA
ATOM     30  C   UNL     1      -6.145  12.697  18.977  0.00  0.00    +0.000 A 
ENDBRANCH  21  28
ENDBRANCH   1  23
TORSDOF 5
ENDMDL
MODEL 9
REMARK VINA RESULT:      -7.9      1.260      3.481
REMARK  Name = 
REMARK  8 active torsions:
REMARK  status: ('A' for Active; 'I' for Inactive)
REMARK    1  A    between atoms: C_1  and  C_2
REMARK    2  A    between atoms: C_5  and  C_6
REMARK    3  A    between atoms: C_8  and  C_9
REMARK    4  A    between atoms: C_11  and  N_12
REMARK    5  A    between atoms: C_14  and  C_15
REMARK    6  A    between atoms: C_17  and  C_18
REMARK    7  A    between atoms: C_18  and  C_19
REMARK    8  A    between atoms: C_26  and  C_27
REMARK                            x       y       z     vdW  Elec       q    Type
REMARK                         _______ _______ _______ _____ _____    ______ ____
ROOT
ATOM      1  C   UNL     1       1.578   8.092  19.903  0.00  0.00    +0.000 A 
ATOM      2  C   UNL     1       0.827   8.808  18.985  0.00  0.00    +0.000 A 
ATOM      3  C   UNL     1      -0.075   9.743  19.481  0.00  0.00    +0.000 A 
ATOM      4  N   UNL     1      -0.253   9.939  20.804  0.00  0.00    +0.000 NA
ATOM      5  C   UNL     1       0.494   9.192  21.629  0.00  0.00    +0.000 A 
ATOM      6  C   UNL     1       0.353   9.416  23.102  0.00  0.00    +0.000 C 
ATOM      7  N   UNL     1       1.393   8.277  21.230  0.00  0.00    +0.000 NA
ENDROOT
BRANCH   3   8
ATOM      8  N   UNL     1      -0.828  10.536  18.558  0.00  0.00    +0.000 N 
ATOM      9  N   UNL     1      -1.473   9.959  17.500  0.00  0.00    +0.000 NA
ATOM     10  C   UNL     1      -2.073  11.002  16.920  0.00  0.00    +0.000 A 
ATOM     11  C   UNL     1      -2.899  10.884  15.703  0.00  0.00    +0.000 C 
ATOM     12  N   UNL     1      -1.862  12.198  17.522  0.00  0.00    +0.000 NA
ATOM     13  C   UNL     1      -1.061  11.907  18.534  0.00  0.00    +0.000 A 
BRANCH  13  14
ATOM     14  C   UNL     1      -0.502  12.928  19.471  0.00  0.00    +0.000 C 
BRANCH  14  15
ATOM     15  C   UNL     1       0.751  13.615  18.964  0.00  0.00    +0.000 A 
ATOM     16  C   UNL     1       0.858  15.016  18.968  0.00  0.00    +0.000 A 
ATOM     17  C   UNL     1       2.039  15.643  18.568  0.00  0.00    +0.000 A 
ATOM     18  C   UNL     1       3.132  14.880  18.166  0.00  0.00    +0.000 A 
ATOM     19  C   UNL     1       3.041  13.489  18.156  0.00  0.00    +0.000 A 
ATOM     20  C   UNL     1       1.858  12.860  18.554  0.00  0.00    +0.000 A 
ENDBRANCH  14  15
ENDBRANCH  13  14
ENDBRANCH   3   8
BRANCH   1  23
ATOM     21  C   UNL     1       2.530   6.025  18.495  0.00  0.00    +0.000 C 
ATOM     22  C   UNL     1       2.663   5.730  19.968  0.00  0.00    +0.000 C 
ATOM     23  C   UNL     1       2.701   7.162  19.487  0.00  0.00    +0.000 C 
BRANCH  21  28
ATOM     24  C   UNL     1       6.805   4.754  14.793  0.00  0.00    +0.000 C 
ATOM     25  C   UNL     1       5.714   5.032  15.778  0.00  0.00    +0.000 A 
ATOM     26  C   UNL     1       5.025   4.010  16.421  0.00  0.00    +0.000 A 
ATOM     27  C   UNL     1       3.998   4.327  17.313  0.00  0.00    +0.000 A 
ATOM     28  C   UNL     1       3.667   5.664  17.559  0.00  0.00    +0.000 A 
ATOM     29  N   UNL     1       4.345   6.663  16.944  0.00  0.00    +0.000 NA
ATOM     30  C   UNL     1       5.339   6.333  16.082  0.00  0.00    +0.000 A 
ENDBRANCH  21  28
ENDBRANCH   1  23
TORSDOF 5
ENDMDL
