MODEL 1
REMARK VINA RESULT:      -6.2      0.000      0.000
REMARK  Name = 
REMARK  2 active torsions:
REMARK  status: ('A' for Active; 'I' for Inactive)
REMARK    1  A    between atoms: C_4  and  C_5
REMARK    2  A    between atoms: C_8  and  C_9
REMARK                            x       y       z     vdW  Elec       q    Type
REMARK                         _______ _______ _______ _____ _____    ______ ____
ROOT
ATOM      1  C   UNL     1       5.445   4.787  15.514  0.00  0.00    +0.000 A 
ATOM      2  N   UNL     1       5.092   3.698  16.228  0.00  0.00    +0.000 NA
ATOM      3  N   UNL     1       4.360   3.876  17.358  0.00  0.00    +0.000 NA
ATOM      4  C   UNL     1       4.016   5.134  17.705  0.00  0.00    +0.000 A 
ATOM      5  N   UNL     1       4.376   6.227  16.999  0.00  0.00    +0.000 NA
ATOM      6  N   UNL     1       5.114   6.047  15.870  0.00  0.00    +0.000 NA
ENDROOT
BRANCH   1  10
ATOM      7  C   UNL     1       7.072   4.029  12.298  0.00  0.00    +0.000 A 
ATOM      8  C   UNL     1       7.792   5.048  12.871  0.00  0.00    +0.000 A 
ATOM      9  O   UNL     1       7.244   5.408  14.058  0.00  0.00    +0.000 OA
ATOM     10  C   UNL     1       6.158   4.602  14.267  0.00  0.00    +0.000 A 
ATOM     11  C   UNL     1       6.012   3.743  13.194  0.00  0.00    +0.000 A 
ENDBRANCH   1  10
BRANCH   4  12
ATOM     12  C   UNL     1       3.210   5.283  18.898  0.00  0.00    +0.000 A 
ATOM     13  C   UNL     1       2.497   6.341  19.432  0.00  0.00    +0.000 A 
ATOM     14  C   UNL     1       1.914   5.874  20.634  0.00  0.00    +0.000 A 
ATOM     15  C   UNL     1       2.308   4.565  20.765  0.00  0.00    +0.000 A 
ATOM     16  O   UNL     1       3.092   4.195  19.719  0.00  0.00    +0.000 OA
ENDBRANCH   4  12
TORSDOF 2
ENDMDL
MODEL 2
REMARK VINA RESULT:      -6.2      0.089      6.648
REMARK  Name = 
REMARK  2 active torsions:
REMARK  status: ('A' for Active; 'I' for Inactive)
REMARK    1  A    between atoms: C_4  and  C_5
REMARK    2  A    between atoms: C_8  and  C_9
REMARK                            x       y       z     vdW  Elec       q    Type
REMARK                         _______ _______ _______ _____ _____    ______ ____
ROOT
ATOM      1  C   UNL     1       4.084   5.079  17.715  0.00  0.00    +0.000 A 
ATOM      2  N   UNL     1       4.364   6.169  16.971  0.00  0.00    +0.000 NA
ATOM      3  N   UNL     1       5.089   6.004  15.835  0.00  0.00    +0.000 NA
ATOM      4  C   UNL     1       5.485   4.758  15.504  0.00  0.00    +0.000 A 
ATOM      5  N   UNL     1       5.216   3.666  16.251  0.00  0.00    +0.000 NA
ATOM      6  N   UNL     1       4.494   3.833  17.393  0.00  0.00    +0.000 NA
ENDROOT
BRANCH   1  10
ATOM      7  C   UNL     1       1.951   5.807  20.629  0.00  0.00    +0.000 A 
ATOM      8  C   UNL     1       2.343   4.497  20.748  0.00  0.00    +0.000 A 
ATOM      9  O   UNL     1       3.120   4.135  19.697  0.00  0.00    +0.000 OA
ATOM     10  C   UNL     1       3.245   5.232  18.886  0.00  0.00    +0.000 A 
ATOM     11  C   UNL     1       2.526   6.283  19.425  0.00  0.00    +0.000 A 
ENDBRANCH   1  10
BRANCH   4  12
ATOM     12  C   UNL     1       6.230   4.616  14.270  0.00  0.00    +0.000 A 
ATOM     13  C   UNL     1       6.111   3.768  13.185  0.00  0.00    +0.000 A 
ATOM     14  C   UNL     1       7.145   4.112  12.283  0.00  0.00    +0.000 A 
ATOM     15  C   UNL     1       7.836   5.144  12.871  0.00  0.00    +0.000 A 
ATOM     16  O   UNL     1       7.289   5.460  14.073  0.00  0.00    +0.000 OA
ENDBRANCH   4  12
TORSDOF 2
ENDMDL
MODEL 3
REMARK VINA RESULT:      -6.0      1.407      6.608
REMARK  Name = 
REMARK  2 active torsions:
REMARK  status: ('A' for Active; 'I' for Inactive)
REMARK    1  A    between atoms: C_4  and  C_5
REMARK    2  A    between atoms: C_8  and  C_9
REMARK                            x       y       z     vdW  Elec       q    Type
REMARK                         _______ _______ _______ _____ _____    ______ ____
ROOT
ATOM      1  C   UNL     1       4.248   3.953  18.441  0.00  0.00    +0.000 A 
ATOM      2  N   UNL     1       3.558   3.949  17.282  0.00  0.00    +0.000 NA
ATOM      3  N   UNL     1       4.242   4.125  16.123  0.00  0.00    +0.000 NA
ATOM      4  C   UNL     1       5.581   4.286  16.188  0.00  0.00    +0.000 A 
ATOM      5  N   UNL     1       6.274   4.300  17.346  0.00  0.00    +0.000 NA
ATOM      6  N   UNL     1       5.586   4.130  18.508  0.00  0.00    +0.000 NA
ENDROOT
BRANCH   1  10
ATOM      7  C   UNL     1       2.521   2.949  21.535  0.00  0.00    +0.000 A 
ATOM      8  C   UNL     1       2.187   4.260  21.308  0.00  0.00    +0.000 A 
ATOM      9  O   UNL     1       2.803   4.722  20.192  0.00  0.00    +0.000 OA
ATOM     10  C   UNL     1       3.539   3.689  19.676  0.00  0.00    +0.000 A 
ATOM     11  C   UNL     1       3.399   2.578  20.486  0.00  0.00    +0.000 A 
ENDBRANCH   1  10
BRANCH   4  12
ATOM     12  C   UNL     1       6.281   4.439  14.930  0.00  0.00    +0.000 A 
ATOM     13  C   UNL     1       6.131   3.853  13.686  0.00  0.00    +0.000 A 
ATOM     14  C   UNL     1       7.128   4.411  12.851  0.00  0.00    +0.000 A 
ATOM     15  C   UNL     1       7.829   5.296  13.633  0.00  0.00    +0.000 A 
ATOM     16  O   UNL     1       7.323   5.324  14.893  0.00  0.00    +0.000 OA
ENDBRANCH   4  12
TORSDOF 2
ENDMDL
MODEL 4
REMARK VINA RESULT:      -6.0      0.495      6.536
REMARK  Name = 
REMARK  2 active torsions:
REMARK  status: ('A' for Active; 'I' for Inactive)
REMARK    1  A    between atoms: C_4  and  C_5
REMARK    2  A    between atoms: C_8  and  C_9
REMARK                            x       y       z     vdW  Elec       q    Type
REMARK                         _______ _______ _______ _____ _____    ______ ____
ROOT
ATOM      1  C   UNL     1       4.071   4.661  17.680  0.00  0.00    +0.000 A 
ATOM      2  N   UNL     1       4.499   3.481  17.187  0.00  0.00    +0.000 NA
ATOM      3  N   UNL     1       5.243   3.487  16.052  0.00  0.00    +0.000 NA
ATOM      4  C   UNL     1       5.525   4.676  15.478  0.00  0.00    +0.000 A 
ATOM      5  N   UNL     1       5.090   5.859  15.962  0.00  0.00    +0.000 NA
ATOM      6  N   UNL     1       4.339   5.851  17.097  0.00  0.00    +0.000 NA
ENDROOT
BRANCH   1  10
ATOM      7  C   UNL     1       2.232   5.033  20.849  0.00  0.00    +0.000 A 
ATOM      8  C   UNL     1       2.563   3.706  20.742  0.00  0.00    +0.000 A 
ATOM      9  O   UNL     1       3.228   3.473  19.583  0.00  0.00    +0.000 OA
ATOM     10  C   UNL     1       3.343   4.672  18.932  0.00  0.00    +0.000 A 
ATOM     11  C   UNL     1       2.729   5.659  19.680  0.00  0.00    +0.000 A 
ENDBRANCH   1  10
BRANCH   4  12
ATOM     12  C   UNL     1       6.346   4.646  14.286  0.00  0.00    +0.000 A 
ATOM     13  C   UNL     1       6.294   3.906  13.119  0.00  0.00    +0.000 A 
ATOM     14  C   UNL     1       7.385   4.325  12.322  0.00  0.00    +0.000 A 
ATOM     15  C   UNL     1       8.041   5.289  13.050  0.00  0.00    +0.000 A 
ATOM     16  O   UNL     1       7.420   5.493  14.240  0.00  0.00    +0.000 OA
ENDBRANCH   4  12
TORSDOF 2
ENDMDL
MODEL 5
REMARK VINA RESULT:      -6.0      1.849      2.245
REMARK  Name = 
REMARK  2 active torsions:
REMARK  status: ('A' for Active; 'I' for Inactive)
REMARK    1  A    between atoms: C_4  and  C_5
REMARK    2  A    between atoms: C_8  and  C_9
REMARK                            x       y       z     vdW  Elec       q    Type
REMARK                         _______ _______ _______ _____ _____    ______ ____
ROOT
ATOM      1  C   UNL     1       5.079   4.138  16.579  0.00  0.00    +0.000 A 
ATOM      2  N   UNL     1       5.619   4.150  17.815  0.00  0.00    +0.000 NA
ATOM      3  N   UNL     1       4.813   3.877  18.874  0.00  0.00    +0.000 NA
ATOM      4  C   UNL     1       3.514   3.599  18.634  0.00  0.00    +0.000 A 
ATOM      5  N   UNL     1       2.968   3.597  17.400  0.00  0.00    +0.000 NA
ATOM      6  N   UNL     1       3.775   3.876  16.340  0.00  0.00    +0.000 NA
ENDROOT
BRANCH   1  10
ATOM      7  C   UNL     1       7.419   4.943  13.851  0.00  0.00    +0.000 A 
ATOM      8  C   UNL     1       6.529   4.028  13.347  0.00  0.00    +0.000 A 
ATOM      9  O   UNL     1       5.639   3.655  14.299  0.00  0.00    +0.000 OA
ATOM     10  C   UNL     1       5.945   4.351  15.438  0.00  0.00    +0.000 A 
ATOM     11  C   UNL     1       7.048   5.150  15.203  0.00  0.00    +0.000 A 
ENDBRANCH   1  10
BRANCH   4  12
ATOM     12  C   UNL     1       2.693   3.283  19.784  0.00  0.00    +0.000 A 
ATOM     13  C   UNL     1       1.356   3.482  20.075  0.00  0.00    +0.000 A 
ATOM     14  C   UNL     1       1.139   2.957  21.370  0.00  0.00    +0.000 A 
ATOM     15  C   UNL     1       2.353   2.476  21.796  0.00  0.00    +0.000 A 
ATOM     16  O   UNL     1       3.301   2.665  20.842  0.00  0.00    +0.000 OA
ENDBRANCH   4  12
TORSDOF 2
ENDMDL
MODEL 6
REMARK VINA RESULT:      -5.9      1.437      1.716
REMARK  Name = 
REMARK  2 active torsions:
REMARK  status: ('A' for Active; 'I' for Inactive)
REMARK    1  A    between atoms: C_4  and  C_5
REMARK    2  A    between atoms: C_8  and  C_9
REMARK                            x       y       z     vdW  Elec       q    Type
REMARK                         _______ _______ _______ _____ _____    ______ ____
ROOT
ATOM      1  C   UNL     1       5.333   4.323  16.289  0.00  0.00    +0.000 A 
ATOM      2  N   UNL     1       6.017   4.359  17.451  0.00  0.00    +0.000 NA
ATOM      3  N   UNL     1       5.335   4.155  18.608  0.00  0.00    +0.000 NA
ATOM      4  C   UNL     1       4.008   3.920  18.535  0.00  0.00    +0.000 A 
ATOM      5  N   UNL     1       3.318   3.894  17.375  0.00  0.00    +0.000 NA
ATOM      6  N   UNL     1       4.002   4.104  16.216  0.00  0.00    +0.000 NA
ENDROOT
BRANCH   1  10
ATOM      7  C   UNL     1       7.004   4.407  13.008  0.00  0.00    +0.000 A 
ATOM      8  C   UNL     1       7.719   5.240  13.833  0.00  0.00    +0.000 A 
ATOM      9  O   UNL     1       7.155   5.287  15.065  0.00  0.00    +0.000 OA
ATOM     10  C   UNL     1       6.064   4.461  15.046  0.00  0.00    +0.000 A 
ATOM     11  C   UNL     1       5.931   3.907  13.786  0.00  0.00    +0.000 A 
ENDBRANCH   1  10
BRANCH   4  12
ATOM     12  C   UNL     1       3.320   3.678  19.785  0.00  0.00    +0.000 A 
ATOM     13  C   UNL     1       2.410   4.413  20.523  0.00  0.00    +0.000 A 
ATOM     14  C   UNL     1       2.100   3.645  21.670  0.00  0.00    +0.000 A 
ATOM     15  C   UNL     1       2.841   2.493  21.569  0.00  0.00    +0.000 A 
ATOM     16  O   UNL     1       3.581   2.500  20.430  0.00  0.00    +0.000 OA
ENDBRANCH   4  12
TORSDOF 2
ENDMDL
MODEL 7
REMARK VINA RESULT:      -5.9      1.315      1.422
REMARK  Name = 
REMARK  2 active torsions:
REMARK  status: ('A' for Active; 'I' for Inactive)
REMARK    1  A    between atoms: C_4  and  C_5
REMARK    2  A    between atoms: C_8  and  C_9
REMARK                            x       y       z     vdW  Elec       q    Type
REMARK                         _______ _______ _______ _____ _____    ______ ____
ROOT
ATOM      1  C   UNL     1       5.575   4.186  15.999  0.00  0.00    +0.000 A 
ATOM      2  N   UNL     1       4.289   3.780  15.968  0.00  0.00    +0.000 NA
ATOM      3  N   UNL     1       3.617   3.676  17.143  0.00  0.00    +0.000 NA
ATOM      4  C   UNL     1       4.268   3.993  18.282  0.00  0.00    +0.000 A 
ATOM      5  N   UNL     1       5.557   4.390  18.319  0.00  0.00    +0.000 NA
ATOM      6  N   UNL     1       6.232   4.488  17.140  0.00  0.00    +0.000 NA
ENDROOT
BRANCH   1  10
ATOM      7  C   UNL     1       7.186   4.395  12.693  0.00  0.00    +0.000 A 
ATOM      8  C   UNL     1       7.871   5.252  13.517  0.00  0.00    +0.000 A 
ATOM      9  O   UNL     1       7.326   5.255  14.759  0.00  0.00    +0.000 OA
ATOM     10  C   UNL     1       6.277   4.376  14.746  0.00  0.00    +0.000 A 
ATOM     11  C   UNL     1       6.152   3.831  13.481  0.00  0.00    +0.000 A 
ENDBRANCH   1  10
BRANCH   4  12
ATOM     12  C   UNL     1       3.510   3.900  19.512  0.00  0.00    +0.000 A 
ATOM     13  C   UNL     1       2.808   4.825  20.264  0.00  0.00    +0.000 A 
ATOM     14  C   UNL     1       2.281   4.129  21.377  0.00  0.00    +0.000 A 
ATOM     15  C   UNL     1       2.695   2.826  21.244  0.00  0.00    +0.000 A 
ATOM     16  O   UNL     1       3.438   2.675  20.117  0.00  0.00    +0.000 OA
ENDBRANCH   4  12
TORSDOF 2
ENDMDL
MODEL 8
REMARK VINA RESULT:      -5.9      1.583      6.631
REMARK  Name = 
REMARK  2 active torsions:
REMARK  status: ('A' for Active; 'I' for Inactive)
REMARK    1  A    between atoms: C_4  and  C_5
REMARK    2  A    between atoms: C_8  and  C_9
REMARK                            x       y       z     vdW  Elec       q    Type
REMARK                         _______ _______ _______ _____ _____    ______ ____
ROOT
ATOM      1  C   UNL     1       3.703   3.843  18.527  0.00  0.00    +0.000 A 
ATOM      2  N   UNL     1       3.134   3.732  17.309  0.00  0.00    +0.000 NA
ATOM      3  N   UNL     1       3.909   3.944  16.214  0.00  0.00    +0.000 NA
ATOM      4  C   UNL     1       5.211   4.246  16.400  0.00  0.00    +0.000 A 
ATOM      5  N   UNL     1       5.782   4.368  17.617  0.00  0.00    +0.000 NA
ATOM      6  N   UNL     1       5.003   4.161  18.715  0.00  0.00    +0.000 NA
ENDROOT
BRANCH   1  10
ATOM      7  C   UNL     1       1.473   3.342  21.415  0.00  0.00    +0.000 A 
ATOM      8  C   UNL     1       2.575   2.553  21.630  0.00  0.00    +0.000 A 
ATOM      9  O   UNL     1       3.445   2.659  20.595  0.00  0.00    +0.000 OA
ATOM     10  C   UNL     1       2.907   3.542  19.699  0.00  0.00    +0.000 A 
ATOM     11  C   UNL     1       1.681   3.978  20.166  0.00  0.00    +0.000 A 
ENDBRANCH   1  10
BRANCH   4  12
ATOM     12  C   UNL     1       6.013   4.435  15.209  0.00  0.00    +0.000 A 
ATOM     13  C   UNL     1       5.941   3.918  13.928  0.00  0.00    +0.000 A 
ATOM     14  C   UNL     1       7.018   4.478  13.202  0.00  0.00    +0.000 A 
ATOM     15  C   UNL     1       7.687   5.295  14.081  0.00  0.00    +0.000 A 
ATOM     16  O   UNL     1       7.085   5.279  15.299  0.00  0.00    +0.000 OA
ENDBRANCH   4  12
TORSDOF 2
ENDMDL
MODEL 9
REMARK VINA RESULT:      -5.9      1.466      6.615
REMARK  Name = 
REMARK  2 active torsions:
REMARK  status: ('A' for Active; 'I' for Inactive)
REMARK    1  A    between atoms: C_4  and  C_5
REMARK    2  A    between atoms: C_8  and  C_9
REMARK                            x       y       z     vdW  Elec       q    Type
REMARK                         _______ _______ _______ _____ _____    ______ ____
ROOT
ATOM      1  C   UNL     1       4.244   3.781  18.459  0.00  0.00    +0.000 A 
ATOM      2  N   UNL     1       5.545   4.131  18.508  0.00  0.00    +0.000 NA
ATOM      3  N   UNL     1       6.207   4.318  17.337  0.00  0.00    +0.000 NA
ATOM      4  C   UNL     1       5.527   4.151  16.184  0.00  0.00    +0.000 A 
ATOM      5  N   UNL     1       4.227   3.791  16.130  0.00  0.00    +0.000 NA
ATOM      6  N   UNL     1       3.566   3.599  17.305  0.00  0.00    +0.000 NA
ENDROOT
BRANCH   1  10
ATOM      7  C   UNL     1       2.417   3.123  21.588  0.00  0.00    +0.000 A 
ATOM      8  C   UNL     1       2.212   4.446  21.286  0.00  0.00    +0.000 A 
ATOM      9  O   UNL     1       2.874   4.783  20.152  0.00  0.00    +0.000 OA
ATOM     10  C   UNL     1       3.508   3.657  19.700  0.00  0.00    +0.000 A 
ATOM     11  C   UNL     1       3.258   2.611  20.570  0.00  0.00    +0.000 A 
ENDBRANCH   1  10
BRANCH   4  12
ATOM     12  C   UNL     1       6.257   4.388  14.956  0.00  0.00    +0.000 A 
ATOM     13  C   UNL     1       6.147   3.877  13.676  0.00  0.00    +0.000 A 
ATOM     14  C   UNL     1       7.157   4.496  12.902  0.00  0.00    +0.000 A 
ATOM     15  C   UNL     1       7.826   5.340  13.754  0.00  0.00    +0.000 A 
ATOM     16  O   UNL     1       7.289   5.286  14.999  0.00  0.00    +0.000 OA
ENDBRANCH   4  12
TORSDOF 2
ENDMDL
