MODEL 1
REMARK VINA RESULT:      -4.7      0.000      0.000
REMARK  Name = 
REMARK  3 active torsions:
REMARK  status: ('A' for Active; 'I' for Inactive)
REMARK    1  A    between atoms: C_1  and  C_2
REMARK    2  A    between atoms: C_5  and  C_6
REMARK    3  A    between atoms: C_6  and  N_7
REMARK                            x       y       z     vdW  Elec       q    Type
REMARK                         _______ _______ _______ _____ _____    ______ ____
ROOT
ATOM      1  C   UNL     1       6.167   3.971  13.810  0.00  0.00    +0.000 C 
ATOM      2  C   UNL     1       6.356   4.224  15.257  0.00  0.00    +0.000 A 
ATOM      3  N   UNL     1       7.427   4.715  15.839  0.00  0.00    +0.000 NA
ATOM      4  C   UNL     1       7.130   4.766  17.176  0.00  0.00    +0.000 A 
ATOM      5  C   UNL     1       5.854   4.302  17.439  0.00  0.00    +0.000 A 
ATOM      6  N   UNL     1       5.383   3.961  16.185  0.00  0.00    +0.000 N 
ATOM      7  H   UNL     1       4.465   3.580  15.997  0.00  0.00    +0.000 HD
ENDROOT
BRANCH   5   8
ATOM      8  C   UNL     1       5.132   4.178  18.675  0.00  0.00    +0.000 C 
ATOM      9  S   UNL     1       4.171   5.410  19.252  0.00  0.00    +0.000 S 
BRANCH   8  10
ATOM     10  N   UNL     1       5.250   3.016  19.378  0.00  0.00    +0.000 N 
ATOM     11  H   UNL     1       4.473   2.398  19.566  0.00  0.00    +0.000 HD
ATOM     12  H   UNL     1       6.160   2.749  19.732  0.00  0.00    +0.000 HD
ENDBRANCH   8  10
ENDBRANCH   5   8
TORSDOF 2
ENDMDL
MODEL 2
REMARK VINA RESULT:      -4.6      2.867      3.869
REMARK  Name = 
REMARK  3 active torsions:
REMARK  status: ('A' for Active; 'I' for Inactive)
REMARK    1  A    between atoms: C_1  and  C_2
REMARK    2  A    between atoms: C_5  and  C_6
REMARK    3  A    between atoms: C_6  and  N_7
REMARK                            x       y       z     vdW  Elec       q    Type
REMARK                         _______ _______ _______ _____ _____    ______ ____
ROOT
ATOM      1  C   UNL     1       7.980   8.742  17.785  0.00  0.00    +0.000 C 
ATOM      2  C   UNL     1       7.672   7.295  17.720  0.00  0.00    +0.000 A 
ATOM      3  N   UNL     1       7.855   6.406  18.670  0.00  0.00    +0.000 NA
ATOM      4  C   UNL     1       7.424   5.215  18.148  0.00  0.00    +0.000 A 
ATOM      5  C   UNL     1       6.961   5.356  16.853  0.00  0.00    +0.000 A 
ATOM      6  N   UNL     1       7.134   6.705  16.607  0.00  0.00    +0.000 N 
ATOM      7  H   UNL     1       6.897   7.168  15.740  0.00  0.00    +0.000 HD
ENDROOT
BRANCH   5   8
ATOM      8  C   UNL     1       6.421   4.392  15.934  0.00  0.00    +0.000 C 
ATOM      9  S   UNL     1       6.679   4.512  14.292  0.00  0.00    +0.000 S 
BRANCH   8  10
ATOM     10  N   UNL     1       5.682   3.363  16.436  0.00  0.00    +0.000 N 
ATOM     11  H   UNL     1       4.803   3.063  16.039  0.00  0.00    +0.000 HD
ATOM     12  H   UNL     1       6.026   2.865  17.248  0.00  0.00    +0.000 HD
ENDBRANCH   8  10
ENDBRANCH   5   8
TORSDOF 2
ENDMDL
MODEL 3
REMARK VINA RESULT:      -4.5      2.948      3.241
REMARK  Name = 
REMARK  3 active torsions:
REMARK  status: ('A' for Active; 'I' for Inactive)
REMARK    1  A    between atoms: C_1  and  C_2
REMARK    2  A    between atoms: C_5  and  C_6
REMARK    3  A    between atoms: C_6  and  N_7
REMARK                            x       y       z     vdW  Elec       q    Type
REMARK                         _______ _______ _______ _____ _____    ______ ____
ROOT
ATOM      1  C   UNL     1       7.631   6.138  18.541  0.00  0.00    +0.000 C 
ATOM      2  C   UNL     1       6.316   5.455  18.557  0.00  0.00    +0.000 A 
ATOM      3  N   UNL     1       5.171   5.941  18.134  0.00  0.00    +0.000 NA
ATOM      4  C   UNL     1       4.249   4.950  18.351  0.00  0.00    +0.000 A 
ATOM      5  C   UNL     1       4.822   3.826  18.918  0.00  0.00    +0.000 A 
ATOM      6  N   UNL     1       6.152   4.183  19.038  0.00  0.00    +0.000 N 
ATOM      7  H   UNL     1       6.877   3.590  19.420  0.00  0.00    +0.000 HD
ENDROOT
BRANCH   5   8
ATOM      8  C   UNL     1       4.246   2.569  19.309  0.00  0.00    +0.000 C 
ATOM      9  S   UNL     1       2.709   2.130  18.840  0.00  0.00    +0.000 S 
BRANCH   8  10
ATOM     10  N   UNL     1       4.991   1.730  20.083  0.00  0.00    +0.000 N 
ATOM     11  H   UNL     1       4.875   1.646  21.083  0.00  0.00    +0.000 HD
ATOM     12  H   UNL     1       5.698   1.156  19.642  0.00  0.00    +0.000 HD
ENDBRANCH   8  10
ENDBRANCH   5   8
TORSDOF 2
ENDMDL
MODEL 4
REMARK VINA RESULT:      -4.5      2.061      2.834
REMARK  Name = 
REMARK  3 active torsions:
REMARK  status: ('A' for Active; 'I' for Inactive)
REMARK    1  A    between atoms: C_1  and  C_2
REMARK    2  A    between atoms: C_5  and  C_6
REMARK    3  A    between atoms: C_6  and  N_7
REMARK                            x       y       z     vdW  Elec       q    Type
REMARK                         _______ _______ _______ _____ _____    ______ ____
ROOT
ATOM      1  C   UNL     1       6.671   4.017  13.146  0.00  0.00    +0.000 C 
ATOM      2  C   UNL     1       6.540   4.332  14.587  0.00  0.00    +0.000 A 
ATOM      3  N   UNL     1       5.798   3.699  15.468  0.00  0.00    +0.000 NA
ATOM      4  C   UNL     1       6.005   4.347  16.657  0.00  0.00    +0.000 A 
ATOM      5  C   UNL     1       6.890   5.402  16.524  0.00  0.00    +0.000 A 
ATOM      6  N   UNL     1       7.215   5.365  15.181  0.00  0.00    +0.000 N 
ATOM      7  H   UNL     1       7.852   6.004  14.724  0.00  0.00    +0.000 HD
ENDROOT
BRANCH   5   8
ATOM      8  C   UNL     1       7.392   6.340  17.489  0.00  0.00    +0.000 C 
ATOM      9  S   UNL     1       7.731   5.883  19.055  0.00  0.00    +0.000 S 
BRANCH   8  10
ATOM     10  N   UNL     1       7.588   7.630  17.096  0.00  0.00    +0.000 N 
ATOM     11  H   UNL     1       8.333   8.213  17.450  0.00  0.00    +0.000 HD
ATOM     12  H   UNL     1       6.960   8.033  16.411  0.00  0.00    +0.000 HD
ENDBRANCH   8  10
ENDBRANCH   5   8
TORSDOF 2
ENDMDL
MODEL 5
REMARK VINA RESULT:      -4.4      2.454      4.037
REMARK  Name = 
REMARK  3 active torsions:
REMARK  status: ('A' for Active; 'I' for Inactive)
REMARK    1  A    between atoms: C_1  and  C_2
REMARK    2  A    between atoms: C_5  and  C_6
REMARK    3  A    between atoms: C_6  and  N_7
REMARK                            x       y       z     vdW  Elec       q    Type
REMARK                         _______ _______ _______ _____ _____    ______ ____
ROOT
ATOM      1  C   UNL     1       3.785   2.447  20.173  0.00  0.00    +0.000 C 
ATOM      2  C   UNL     1       4.317   3.591  19.396  0.00  0.00    +0.000 A 
ATOM      3  N   UNL     1       3.652   4.652  18.999  0.00  0.00    +0.000 NA
ATOM      4  C   UNL     1       4.560   5.425  18.323  0.00  0.00    +0.000 A 
ATOM      5  C   UNL     1       5.814   4.842  18.295  0.00  0.00    +0.000 A 
ATOM      6  N   UNL     1       5.624   3.664  18.993  0.00  0.00    +0.000 N 
ATOM      7  H   UNL     1       6.344   2.976  19.171  0.00  0.00    +0.000 HD
ENDROOT
BRANCH   5   8
ATOM      8  C   UNL     1       7.048   5.288  17.710  0.00  0.00    +0.000 C 
ATOM      9  S   UNL     1       7.434   6.905  17.614  0.00  0.00    +0.000 S 
BRANCH   8  10
ATOM     10  N   UNL     1       7.911   4.349  17.227  0.00  0.00    +0.000 N 
ATOM     11  H   UNL     1       7.658   3.673  16.521  0.00  0.00    +0.000 HD
ATOM     12  H   UNL     1       8.856   4.322  17.587  0.00  0.00    +0.000 HD
ENDBRANCH   8  10
ENDBRANCH   5   8
TORSDOF 2
ENDMDL
MODEL 6
REMARK VINA RESULT:      -4.4      1.701      2.274
REMARK  Name = 
REMARK  3 active torsions:
REMARK  status: ('A' for Active; 'I' for Inactive)
REMARK    1  A    between atoms: C_1  and  C_2
REMARK    2  A    between atoms: C_5  and  C_6
REMARK    3  A    between atoms: C_6  and  N_7
REMARK                            x       y       z     vdW  Elec       q    Type
REMARK                         _______ _______ _______ _____ _____    ______ ____
ROOT
ATOM      1  C   UNL     1       7.837   5.277  12.724  0.00  0.00    +0.000 C 
ATOM      2  C   UNL     1       7.109   4.832  13.935  0.00  0.00    +0.000 A 
ATOM      3  N   UNL     1       6.018   4.101  13.974  0.00  0.00    +0.000 NA
ATOM      4  C   UNL     1       5.724   3.950  15.304  0.00  0.00    +0.000 A 
ATOM      5  C   UNL     1       6.644   4.593  16.113  0.00  0.00    +0.000 A 
ATOM      6  N   UNL     1       7.521   5.151  15.202  0.00  0.00    +0.000 N 
ATOM      7  H   UNL     1       8.333   5.702  15.445  0.00  0.00    +0.000 HD
ENDROOT
BRANCH   5   8
ATOM      8  C   UNL     1       6.732   4.698  17.543  0.00  0.00    +0.000 C 
ATOM      9  S   UNL     1       5.442   5.217  18.460  0.00  0.00    +0.000 S 
BRANCH   8  10
ATOM     10  N   UNL     1       7.907   4.360  18.145  0.00  0.00    +0.000 N 
ATOM     11  H   UNL     1       8.785   4.819  17.948  0.00  0.00    +0.000 HD
ATOM     12  H   UNL     1       7.910   3.613  18.828  0.00  0.00    +0.000 HD
ENDBRANCH   8  10
ENDBRANCH   5   8
TORSDOF 2
ENDMDL
MODEL 7
REMARK VINA RESULT:      -4.4      2.440      3.210
REMARK  Name = 
REMARK  3 active torsions:
REMARK  status: ('A' for Active; 'I' for Inactive)
REMARK    1  A    between atoms: C_1  and  C_2
REMARK    2  A    between atoms: C_5  and  C_6
REMARK    3  A    between atoms: C_6  and  N_7
REMARK                            x       y       z     vdW  Elec       q    Type
REMARK                         _______ _______ _______ _____ _____    ______ ____
ROOT
ATOM      1  C   UNL     1       7.126   5.389  18.596  0.00  0.00    +0.000 C 
ATOM      2  C   UNL     1       5.887   4.714  18.144  0.00  0.00    +0.000 A 
ATOM      3  N   UNL     1       5.119   5.068  17.138  0.00  0.00    +0.000 NA
ATOM      4  C   UNL     1       4.103   4.148  17.110  0.00  0.00    +0.000 A 
ATOM      5  C   UNL     1       4.234   3.203  18.111  0.00  0.00    +0.000 A 
ATOM      6  N   UNL     1       5.391   3.595  18.758  0.00  0.00    +0.000 N 
ATOM      7  H   UNL     1       5.795   3.122  19.555  0.00  0.00    +0.000 HD
ENDROOT
BRANCH   5   8
ATOM      8  C   UNL     1       3.417   2.071  18.452  0.00  0.00    +0.000 C 
ATOM      9  S   UNL     1       1.829   2.251  18.921  0.00  0.00    +0.000 S 
BRANCH   8  10
ATOM     10  N   UNL     1       3.974   0.829  18.386  0.00  0.00    +0.000 N 
ATOM     11  H   UNL     1       4.267   0.396  17.521  0.00  0.00    +0.000 HD
ATOM     12  H   UNL     1       4.108   0.306  19.242  0.00  0.00    +0.000 HD
ENDBRANCH   8  10
ENDBRANCH   5   8
TORSDOF 2
ENDMDL
MODEL 8
REMARK VINA RESULT:      -4.4      1.167      1.167
REMARK  Name = 
REMARK  3 active torsions:
REMARK  status: ('A' for Active; 'I' for Inactive)
REMARK    1  A    between atoms: C_1  and  C_2
REMARK    2  A    between atoms: C_5  and  C_6
REMARK    3  A    between atoms: C_6  and  N_7
REMARK                            x       y       z     vdW  Elec       q    Type
REMARK                         _______ _______ _______ _____ _____    ______ ____
ROOT
ATOM      1  C   UNL     1       6.319   3.815  13.386  0.00  0.00    +0.000 C 
ATOM      2  C   UNL     1       6.481   4.357  14.755  0.00  0.00    +0.000 A 
ATOM      3  N   UNL     1       7.277   5.335  15.127  0.00  0.00    +0.000 NA
ATOM      4  C   UNL     1       7.080   5.477  16.476  0.00  0.00    +0.000 A 
ATOM      5  C   UNL     1       6.147   4.578  16.959  0.00  0.00    +0.000 A 
ATOM      6  N   UNL     1       5.782   3.872  15.828  0.00  0.00    +0.000 N 
ATOM      7  H   UNL     1       5.104   3.121  15.810  0.00  0.00    +0.000 HD
ENDROOT
BRANCH   5   8
ATOM      8  C   UNL     1       5.635   4.371  18.286  0.00  0.00    +0.000 C 
ATOM      9  S   UNL     1       4.223   3.529  18.555  0.00  0.00    +0.000 S 
BRANCH   8  10
ATOM     10  N   UNL     1       6.336   4.884  19.336  0.00  0.00    +0.000 N 
ATOM     11  H   UNL     1       7.212   4.500  19.661  0.00  0.00    +0.000 HD
ATOM     12  H   UNL     1       5.969   5.694  19.820  0.00  0.00    +0.000 HD
ENDBRANCH   8  10
ENDBRANCH   5   8
TORSDOF 2
ENDMDL
MODEL 9
REMARK VINA RESULT:      -4.4      1.014      1.064
REMARK  Name = 
REMARK  3 active torsions:
REMARK  status: ('A' for Active; 'I' for Inactive)
REMARK    1  A    between atoms: C_1  and  C_2
REMARK    2  A    between atoms: C_5  and  C_6
REMARK    3  A    between atoms: C_6  and  N_7
REMARK                            x       y       z     vdW  Elec       q    Type
REMARK                         _______ _______ _______ _____ _____    ______ ____
ROOT
ATOM      1  C   UNL     1       6.157   3.745  13.695  0.00  0.00    +0.000 C 
ATOM      2  C   UNL     1       5.841   4.438  14.966  0.00  0.00    +0.000 A 
ATOM      3  N   UNL     1       5.789   5.737  15.163  0.00  0.00    +0.000 NA
ATOM      4  C   UNL     1       5.460   5.895  16.484  0.00  0.00    +0.000 A 
ATOM      5  C   UNL     1       5.302   4.680  17.126  0.00  0.00    +0.000 A 
ATOM      6  N   UNL     1       5.554   3.764  16.122  0.00  0.00    +0.000 N 
ATOM      7  H   UNL     1       5.526   2.759  16.238  0.00  0.00    +0.000 HD
ENDROOT
BRANCH   5   8
ATOM      8  C   UNL     1       4.961   4.370  18.487  0.00  0.00    +0.000 C 
ATOM      9  S   UNL     1       3.960   5.355  19.382  0.00  0.00    +0.000 S 
BRANCH   8  10
ATOM     10  N   UNL     1       5.481   3.238  19.041  0.00  0.00    +0.000 N 
ATOM     11  H   UNL     1       5.056   2.754  19.819  0.00  0.00    +0.000 HD
ATOM     12  H   UNL     1       6.335   2.853  18.658  0.00  0.00    +0.000 HD
ENDBRANCH   8  10
ENDBRANCH   5   8
TORSDOF 2
ENDMDL
