MODEL 1
REMARK VINA RESULT:      -6.1      0.000      0.000
REMARK  Name = 
REMARK  4 active torsions:
REMARK  status: ('A' for Active; 'I' for Inactive)
REMARK    1  A    between atoms: C_1  and  C_2
REMARK    2  A    between atoms: C_5  and  C_6
REMARK    3  A    between atoms: N_8  and  C_9
REMARK    4  A    between atoms: C_9  and  C_10
REMARK                            x       y       z     vdW  Elec       q    Type
REMARK                         _______ _______ _______ _____ _____    ______ ____
ROOT
ATOM      1  C   UNL     1       4.517   3.767  19.135  0.00  0.00    +0.000 C 
ATOM      2  O   UNL     1       5.154   2.915  19.748  0.00  0.00    +0.000 OA
ATOM      3  N   UNL     1       3.134   3.751  19.119  0.00  0.00    +0.000 N 
ATOM      4  H   UNL     1       2.667   4.546  18.698  0.00  0.00    +0.000 HD
ENDROOT
BRANCH   1   9
ATOM      5  C   UNL     1       7.725   7.643  17.413  0.00  0.00    +0.000 C 
ATOM      6  C   UNL     1       6.613   6.661  17.551  0.00  0.00    +0.000 A 
ATOM      7  C   UNL     1       5.534   6.454  16.718  0.00  0.00    +0.000 A 
ATOM      8  C   UNL     1       4.682   5.408  17.190  0.00  0.00    +0.000 A 
ATOM      9  C   UNL     1       5.132   4.848  18.371  0.00  0.00    +0.000 A 
ATOM     10  S   UNL     1       6.585   5.603  18.889  0.00  0.00    +0.000 S 
ENDBRANCH   1   9
BRANCH   3  11
ATOM     11  C   UNL     1       2.354   2.791  19.893  0.00  0.00    +0.000 C 
BRANCH  11  12
ATOM     12  C   UNL     1       1.544   3.368  21.061  0.00  0.00    +0.000 C 
ATOM     13  F   UNL     1       2.239   4.284  21.771  0.00  0.00    +0.000 F 
ATOM     14  F   UNL     1       0.434   3.992  20.592  0.00  0.00    +0.000 F 
ATOM     15  F   UNL     1       1.131   2.403  21.910  0.00  0.00    +0.000 F 
ENDBRANCH  11  12
ENDBRANCH   3  11
TORSDOF 3
ENDMDL
MODEL 2
REMARK VINA RESULT:      -6.1      1.256      1.536
REMARK  Name = 
REMARK  4 active torsions:
REMARK  status: ('A' for Active; 'I' for Inactive)
REMARK    1  A    between atoms: C_1  and  C_2
REMARK    2  A    between atoms: C_5  and  C_6
REMARK    3  A    between atoms: N_8  and  C_9
REMARK    4  A    between atoms: C_9  and  C_10
REMARK                            x       y       z     vdW  Elec       q    Type
REMARK                         _______ _______ _______ _____ _____    ______ ____
ROOT
ATOM      1  C   UNL     1       4.531   3.686  18.530  0.00  0.00    +0.000 C 
ATOM      2  O   UNL     1       4.916   3.116  19.547  0.00  0.00    +0.000 OA
ATOM      3  N   UNL     1       3.437   3.222  17.822  0.00  0.00    +0.000 N 
ATOM      4  H   UNL     1       3.098   3.801  17.064  0.00  0.00    +0.000 HD
ENDROOT
BRANCH   1   9
ATOM      5  C   UNL     1       7.779   7.788  17.581  0.00  0.00    +0.000 C 
ATOM      6  C   UNL     1       6.674   6.791  17.509  0.00  0.00    +0.000 A 
ATOM      7  C   UNL     1       5.647   6.703  16.594  0.00  0.00    +0.000 A 
ATOM      8  C   UNL     1       4.784   5.595  16.858  0.00  0.00    +0.000 A 
ATOM      9  C   UNL     1       5.174   4.870  17.969  0.00  0.00    +0.000 A 
ATOM     10  S   UNL     1       6.585   5.547  18.675  0.00  0.00    +0.000 S 
ENDBRANCH   1   9
BRANCH   3  11
ATOM     11  C   UNL     1       2.626   2.099  18.282  0.00  0.00    +0.000 C 
BRANCH  11  12
ATOM     12  C   UNL     1       1.395   2.458  19.124  0.00  0.00    +0.000 C 
ATOM     13  F   UNL     1       1.496   2.027  20.400  0.00  0.00    +0.000 F 
ATOM     14  F   UNL     1       1.245   3.806  19.174  0.00  0.00    +0.000 F 
ATOM     15  F   UNL     1       0.261   1.949  18.597  0.00  0.00    +0.000 F 
ENDBRANCH  11  12
ENDBRANCH   3  11
TORSDOF 3
ENDMDL
MODEL 3
REMARK VINA RESULT:      -6.0      3.835      5.895
REMARK  Name = 
REMARK  4 active torsions:
REMARK  status: ('A' for Active; 'I' for Inactive)
REMARK    1  A    between atoms: C_1  and  C_2
REMARK    2  A    between atoms: C_5  and  C_6
REMARK    3  A    between atoms: N_8  and  C_9
REMARK    4  A    between atoms: C_9  and  C_10
REMARK                            x       y       z     vdW  Elec       q    Type
REMARK                         _______ _______ _______ _____ _____    ______ ____
ROOT
ATOM      1  C   UNL     1       5.048   3.799  17.477  0.00  0.00    +0.000 C 
ATOM      2  O   UNL     1       5.165   3.894  16.258  0.00  0.00    +0.000 OA
ATOM      3  N   UNL     1       6.086   4.144  18.323  0.00  0.00    +0.000 N 
ATOM      4  H   UNL     1       5.888   4.158  19.317  0.00  0.00    +0.000 HD
ENDROOT
BRANCH   1   9
ATOM      5  C   UNL     1       1.285   2.624  21.045  0.00  0.00    +0.000 C 
ATOM      6  C   UNL     1       2.075   2.753  19.789  0.00  0.00    +0.000 A 
ATOM      7  C   UNL     1       1.766   2.307  18.522  0.00  0.00    +0.000 A 
ATOM      8  C   UNL     1       2.783   2.632  17.573  0.00  0.00    +0.000 A 
ATOM      9  C   UNL     1       3.843   3.315  18.142  0.00  0.00    +0.000 A 
ATOM     10  S   UNL     1       3.584   3.550  19.823  0.00  0.00    +0.000 S 
ENDBRANCH   1   9
BRANCH   3  11
ATOM     11  C   UNL     1       7.334   4.723  17.835  0.00  0.00    +0.000 C 
BRANCH  11  12
ATOM     12  C   UNL     1       7.400   6.255  17.805  0.00  0.00    +0.000 C 
ATOM     13  F   UNL     1       8.251   6.756  18.726  0.00  0.00    +0.000 F 
ATOM     14  F   UNL     1       7.839   6.676  16.591  0.00  0.00    +0.000 F 
ATOM     15  F   UNL     1       6.187   6.813  18.006  0.00  0.00    +0.000 F 
ENDBRANCH  11  12
ENDBRANCH   3  11
TORSDOF 3
ENDMDL
MODEL 4
REMARK VINA RESULT:      -6.0      1.006      1.006
REMARK  Name = 
REMARK  4 active torsions:
REMARK  status: ('A' for Active; 'I' for Inactive)
REMARK    1  A    between atoms: C_1  and  C_2
REMARK    2  A    between atoms: C_5  and  C_6
REMARK    3  A    between atoms: N_8  and  C_9
REMARK    4  A    between atoms: C_9  and  C_10
REMARK                            x       y       z     vdW  Elec       q    Type
REMARK                         _______ _______ _______ _____ _____    ______ ____
ROOT
ATOM      1  C   UNL     1       3.974   3.315  18.212  0.00  0.00    +0.000 C 
ATOM      2  O   UNL     1       3.646   2.284  17.632  0.00  0.00    +0.000 OA
ATOM      3  N   UNL     1       3.503   3.601  19.480  0.00  0.00    +0.000 N 
ATOM      4  H   UNL     1       3.903   4.404  19.952  0.00  0.00    +0.000 HD
ENDROOT
BRANCH   1   9
ATOM      5  C   UNL     1       7.514   7.218  17.501  0.00  0.00    +0.000 C 
ATOM      6  C   UNL     1       6.505   6.144  17.282  0.00  0.00    +0.000 A 
ATOM      7  C   UNL     1       5.986   5.673  16.095  0.00  0.00    +0.000 A 
ATOM      8  C   UNL     1       5.040   4.623  16.300  0.00  0.00    +0.000 A 
ATOM      9  C   UNL     1       4.859   4.323  17.638  0.00  0.00    +0.000 A 
ATOM     10  S   UNL     1       5.845   5.323  18.625  0.00  0.00    +0.000 S 
ENDBRANCH   1   9
BRANCH   3  11
ATOM     11  C   UNL     1       2.674   2.668  20.237  0.00  0.00    +0.000 C 
BRANCH  11  12
ATOM     12  C   UNL     1       1.705   3.295  21.247  0.00  0.00    +0.000 C 
ATOM     13  F   UNL     1       2.275   4.284  21.968  0.00  0.00    +0.000 F 
ATOM     14  F   UNL     1       0.646   3.842  20.596  0.00  0.00    +0.000 F 
ATOM     15  F   UNL     1       1.214   2.378  22.107  0.00  0.00    +0.000 F 
ENDBRANCH  11  12
ENDBRANCH   3  11
TORSDOF 3
ENDMDL
MODEL 5
REMARK VINA RESULT:      -6.0      1.951      2.331
REMARK  Name = 
REMARK  4 active torsions:
REMARK  status: ('A' for Active; 'I' for Inactive)
REMARK    1  A    between atoms: C_1  and  C_2
REMARK    2  A    between atoms: C_5  and  C_6
REMARK    3  A    between atoms: N_8  and  C_9
REMARK    4  A    between atoms: C_9  and  C_10
REMARK                            x       y       z     vdW  Elec       q    Type
REMARK                         _______ _______ _______ _____ _____    ______ ____
ROOT
ATOM      1  C   UNL     1       3.570   5.186  19.072  0.00  0.00    +0.000 C 
ATOM      2  O   UNL     1       3.140   6.145  19.706  0.00  0.00    +0.000 OA
ATOM      3  N   UNL     1       3.463   3.898  19.564  0.00  0.00    +0.000 N 
ATOM      4  H   UNL     1       3.727   3.142  18.943  0.00  0.00    +0.000 HD
ENDROOT
BRANCH   1   9
ATOM      5  C   UNL     1       5.945   4.172  14.423  0.00  0.00    +0.000 C 
ATOM      6  C   UNL     1       5.343   4.852  15.604  0.00  0.00    +0.000 A 
ATOM      7  C   UNL     1       5.210   6.202  15.851  0.00  0.00    +0.000 A 
ATOM      8  C   UNL     1       4.567   6.460  17.100  0.00  0.00    +0.000 A 
ATOM      9  C   UNL     1       4.231   5.301  17.775  0.00  0.00    +0.000 A 
ATOM     10  S   UNL     1       4.702   3.915  16.878  0.00  0.00    +0.000 S 
ENDBRANCH   1   9
BRANCH   3  11
ATOM     11  C   UNL     1       2.761   3.590  20.805  0.00  0.00    +0.000 C 
BRANCH  11  12
ATOM     12  C   UNL     1       1.296   3.159  20.661  0.00  0.00    +0.000 C 
ATOM     13  F   UNL     1       0.482   4.188  20.340  0.00  0.00    +0.000 F 
ATOM     14  F   UNL     1       1.179   2.239  19.670  0.00  0.00    +0.000 F 
ATOM     15  F   UNL     1       0.827   2.589  21.791  0.00  0.00    +0.000 F 
ENDBRANCH  11  12
ENDBRANCH   3  11
TORSDOF 3
ENDMDL
MODEL 6
REMARK VINA RESULT:      -6.0      4.329      6.054
REMARK  Name = 
REMARK  4 active torsions:
REMARK  status: ('A' for Active; 'I' for Inactive)
REMARK    1  A    between atoms: C_1  and  C_2
REMARK    2  A    between atoms: C_5  and  C_6
REMARK    3  A    between atoms: N_8  and  C_9
REMARK    4  A    between atoms: C_9  and  C_10
REMARK                            x       y       z     vdW  Elec       q    Type
REMARK                         _______ _______ _______ _____ _____    ______ ____
ROOT
ATOM      1  C   UNL     1       5.393   4.227  18.352  0.00  0.00    +0.000 C 
ATOM      2  O   UNL     1       6.555   4.348  18.729  0.00  0.00    +0.000 OA
ATOM      3  N   UNL     1       5.085   4.117  17.008  0.00  0.00    +0.000 N 
ATOM      4  H   UNL     1       4.124   3.900  16.771  0.00  0.00    +0.000 HD
ENDROOT
BRANCH   1   9
ATOM      5  C   UNL     1       1.491   2.723  21.637  0.00  0.00    +0.000 C 
ATOM      6  C   UNL     1       2.417   3.522  20.786  0.00  0.00    +0.000 A 
ATOM      7  C   UNL     1       2.434   4.883  20.568  0.00  0.00    +0.000 A 
ATOM      8  C   UNL     1       3.489   5.274  19.687  0.00  0.00    +0.000 A 
ATOM      9  C   UNL     1       4.246   4.201  19.254  0.00  0.00    +0.000 A 
ATOM     10  S   UNL     1       3.662   2.733  19.926  0.00  0.00    +0.000 S 
ENDBRANCH   1   9
BRANCH   3  11
ATOM     11  C   UNL     1       6.111   4.044  15.974  0.00  0.00    +0.000 C 
BRANCH  11  12
ATOM     12  C   UNL     1       5.845   4.858  14.702  0.00  0.00    +0.000 C 
ATOM     13  F   UNL     1       5.053   4.204  13.824  0.00  0.00    +0.000 F 
ATOM     14  F   UNL     1       5.211   6.016  15.017  0.00  0.00    +0.000 F 
ATOM     15  F   UNL     1       6.990   5.189  14.068  0.00  0.00    +0.000 F 
ENDBRANCH  11  12
ENDBRANCH   3  11
TORSDOF 3
ENDMDL
MODEL 7
REMARK VINA RESULT:      -6.0      1.110      1.505
REMARK  Name = 
REMARK  4 active torsions:
REMARK  status: ('A' for Active; 'I' for Inactive)
REMARK    1  A    between atoms: C_1  and  C_2
REMARK    2  A    between atoms: C_5  and  C_6
REMARK    3  A    between atoms: N_8  and  C_9
REMARK    4  A    between atoms: C_9  and  C_10
REMARK                            x       y       z     vdW  Elec       q    Type
REMARK                         _______ _______ _______ _____ _____    ______ ____
ROOT
ATOM      1  C   UNL     1       4.020   3.204  18.222  0.00  0.00    +0.000 C 
ATOM      2  O   UNL     1       3.633   2.193  17.643  0.00  0.00    +0.000 OA
ATOM      3  N   UNL     1       3.554   3.528  19.483  0.00  0.00    +0.000 N 
ATOM      4  H   UNL     1       4.000   4.307  19.954  0.00  0.00    +0.000 HD
ENDROOT
BRANCH   1   9
ATOM      5  C   UNL     1       7.515   7.144  17.492  0.00  0.00    +0.000 C 
ATOM      6  C   UNL     1       6.604   5.984  17.287  0.00  0.00    +0.000 A 
ATOM      7  C   UNL     1       6.353   5.275  16.132  0.00  0.00    +0.000 A 
ATOM      8  C   UNL     1       5.415   4.217  16.343  0.00  0.00    +0.000 A 
ATOM      9  C   UNL     1       4.974   4.150  17.652  0.00  0.00    +0.000 A 
ATOM     10  S   UNL     1       5.707   5.375  18.606  0.00  0.00    +0.000 S 
ENDBRANCH   1   9
BRANCH   3  11
ATOM     11  C   UNL     1       2.659   2.655  20.235  0.00  0.00    +0.000 C 
BRANCH  11  12
ATOM     12  C   UNL     1       1.681   3.353  21.188  0.00  0.00    +0.000 C 
ATOM     13  F   UNL     1       0.612   3.873  20.545  0.00  0.00    +0.000 F 
ATOM     14  F   UNL     1       1.201   2.462  22.093  0.00  0.00    +0.000 F 
ATOM     15  F   UNL     1       2.277   4.345  21.882  0.00  0.00    +0.000 F 
ENDBRANCH  11  12
ENDBRANCH   3  11
TORSDOF 3
ENDMDL
MODEL 8
REMARK VINA RESULT:      -6.0      1.551      1.754
REMARK  Name = 
REMARK  4 active torsions:
REMARK  status: ('A' for Active; 'I' for Inactive)
REMARK    1  A    between atoms: C_1  and  C_2
REMARK    2  A    between atoms: C_5  and  C_6
REMARK    3  A    between atoms: N_8  and  C_9
REMARK    4  A    between atoms: C_9  and  C_10
REMARK                            x       y       z     vdW  Elec       q    Type
REMARK                         _______ _______ _______ _____ _____    ______ ____
ROOT
ATOM      1  C   UNL     1       3.357   3.604  17.680  0.00  0.00    +0.000 C 
ATOM      2  O   UNL     1       2.436   3.247  16.949  0.00  0.00    +0.000 OA
ATOM      3  N   UNL     1       3.393   3.239  19.013  0.00  0.00    +0.000 N 
ATOM      4  H   UNL     1       4.236   3.463  19.530  0.00  0.00    +0.000 HD
ENDROOT
BRANCH   1   9
ATOM      5  C   UNL     1       7.377   7.076  17.422  0.00  0.00    +0.000 C 
ATOM      6  C   UNL     1       6.346   6.053  17.090  0.00  0.00    +0.000 A 
ATOM      7  C   UNL     1       6.107   5.425  15.886  0.00  0.00    +0.000 A 
ATOM      8  C   UNL     1       5.028   4.492  15.970  0.00  0.00    +0.000 A 
ATOM      9  C   UNL     1       4.470   4.437  17.234  0.00  0.00    +0.000 A 
ATOM     10  S   UNL     1       5.268   5.520  18.301  0.00  0.00    +0.000 S 
ENDBRANCH   1   9
BRANCH   3  11
ATOM     11  C   UNL     1       2.407   2.343  19.607  0.00  0.00    +0.000 C 
BRANCH  11  12
ATOM     12  C   UNL     1       1.147   3.010  20.173  0.00  0.00    +0.000 C 
ATOM     13  F   UNL     1       0.903   2.654  21.454  0.00  0.00    +0.000 F 
ATOM     14  F   UNL     1       1.290   4.360  20.159  0.00  0.00    +0.000 F 
ATOM     15  F   UNL     1       0.051   2.717  19.441  0.00  0.00    +0.000 F 
ENDBRANCH  11  12
ENDBRANCH   3  11
TORSDOF 3
ENDMDL
MODEL 9
REMARK VINA RESULT:      -5.9      1.662      2.104
REMARK  Name = 
REMARK  4 active torsions:
REMARK  status: ('A' for Active; 'I' for Inactive)
REMARK    1  A    between atoms: C_1  and  C_2
REMARK    2  A    between atoms: C_5  and  C_6
REMARK    3  A    between atoms: N_8  and  C_9
REMARK    4  A    between atoms: C_9  and  C_10
REMARK                            x       y       z     vdW  Elec       q    Type
REMARK                         _______ _______ _______ _____ _____    ______ ____
ROOT
ATOM      1  C   UNL     1       4.568   3.643  19.377  0.00  0.00    +0.000 C 
ATOM      2  O   UNL     1       4.849   2.649  20.041  0.00  0.00    +0.000 OA
ATOM      3  N   UNL     1       3.465   4.419  19.684  0.00  0.00    +0.000 N 
ATOM      4  H   UNL     1       3.356   5.289  19.176  0.00  0.00    +0.000 HD
ENDROOT
BRANCH   1   9
ATOM      5  C   UNL     1       6.237   4.761  14.453  0.00  0.00    +0.000 C 
ATOM      6  C   UNL     1       6.138   4.619  15.933  0.00  0.00    +0.000 A 
ATOM      7  C   UNL     1       7.040   5.004  16.901  0.00  0.00    +0.000 A 
ATOM      8  C   UNL     1       6.578   4.702  18.219  0.00  0.00    +0.000 A 
ATOM      9  C   UNL     1       5.338   4.091  18.221  0.00  0.00    +0.000 A 
ATOM     10  S   UNL     1       4.753   3.894  16.619  0.00  0.00    +0.000 S 
ENDBRANCH   1   9
BRANCH   3  11
ATOM     11  C   UNL     1       2.631   4.165  20.855  0.00  0.00    +0.000 C 
BRANCH  11  12
ATOM     12  C   UNL     1       1.380   3.310  20.618  0.00  0.00    +0.000 C 
ATOM     13  F   UNL     1       0.980   2.657  21.730  0.00  0.00    +0.000 F 
ATOM     14  F   UNL     1       0.346   4.100  20.230  0.00  0.00    +0.000 F 
ATOM     15  F   UNL     1       1.573   2.398  19.642  0.00  0.00    +0.000 F 
ENDBRANCH  11  12
ENDBRANCH   3  11
TORSDOF 3
ENDMDL
