MODEL 1
REMARK VINA RESULT:      -3.7      0.000      0.000
REMARK  Name = 
REMARK  6 active torsions:
REMARK  status: ('A' for Active; 'I' for Inactive)
REMARK    1  A    between atoms: C_1  and  O_2
REMARK    2  A    between atoms: O_2  and  C_3
REMARK    3  A    between atoms: C_3  and  C_4
REMARK    4  A    between atoms: C_4  and  C_5
REMARK    5  A    between atoms: C_5  and  O_7
REMARK    6  A    between atoms: O_7  and  C_8
REMARK                            x       y       z     vdW  Elec       q    Type
REMARK                         _______ _______ _______ _____ _____    ______ ____
ROOT
ATOM      1  C   UNL     1       5.794   4.189  16.135  0.00  0.00    +0.000 C 
ENDROOT
BRANCH   1   2
ATOM      2  C   UNL     1       7.085   4.834  16.560  0.00  0.00    +0.000 C 
ATOM      3  O   UNL     1       8.035   4.242  17.052  0.00  0.00    +0.000 OA
BRANCH   2   4
ATOM      4  O   UNL     1       7.046   6.174  16.317  0.00  0.00    +0.000 OA
ATOM      5  C   UNL     1       7.408   6.967  17.450  0.00  0.00    +0.000 C 
ENDBRANCH   2   4
ENDBRANCH   1   2
BRANCH   1   6
ATOM      6  C   UNL     1       5.547   4.470  14.661  0.00  0.00    +0.000 C 
BRANCH   6   8
ATOM      7  C   UNL     1       6.034   3.475  12.592  0.00  0.00    +0.000 C 
ATOM      8  O   UNL     1       6.545   3.818  13.876  0.00  0.00    +0.000 OA
ENDBRANCH   6   8
ENDBRANCH   1   6
TORSDOF 4
ENDMDL
MODEL 2
REMARK VINA RESULT:      -3.6      2.252      3.811
REMARK  Name = 
REMARK  6 active torsions:
REMARK  status: ('A' for Active; 'I' for Inactive)
REMARK    1  A    between atoms: C_1  and  O_2
REMARK    2  A    between atoms: O_2  and  C_3
REMARK    3  A    between atoms: C_3  and  C_4
REMARK    4  A    between atoms: C_4  and  C_5
REMARK    5  A    between atoms: C_5  and  O_7
REMARK    6  A    between atoms: O_7  and  C_8
REMARK                            x       y       z     vdW  Elec       q    Type
REMARK                         _______ _______ _______ _____ _____    ______ ____
ROOT
ATOM      1  C   UNL     1       5.737   4.420  17.326  0.00  0.00    +0.000 C 
ENDROOT
BRANCH   1   2
ATOM      2  C   UNL     1       7.151   4.720  16.910  0.00  0.00    +0.000 C 
ATOM      3  O   UNL     1       8.152   4.307  17.479  0.00  0.00    +0.000 OA
BRANCH   2   4
ATOM      4  O   UNL     1       7.160   5.516  15.805  0.00  0.00    +0.000 OA
ATOM      5  C   UNL     1       6.934   4.803  14.588  0.00  0.00    +0.000 C 
ENDBRANCH   2   4
ENDBRANCH   1   2
BRANCH   1   6
ATOM      6  C   UNL     1       5.582   4.672  18.818  0.00  0.00    +0.000 C 
BRANCH   6   8
ATOM      7  C   UNL     1       4.044   2.988  19.375  0.00  0.00    +0.000 C 
ATOM      8  O   UNL     1       5.393   3.430  19.495  0.00  0.00    +0.000 OA
ENDBRANCH   6   8
ENDBRANCH   1   6
TORSDOF 4
ENDMDL
MODEL 3
REMARK VINA RESULT:      -3.6      1.923      3.991
REMARK  Name = 
REMARK  6 active torsions:
REMARK  status: ('A' for Active; 'I' for Inactive)
REMARK    1  A    between atoms: C_1  and  O_2
REMARK    2  A    between atoms: O_2  and  C_3
REMARK    3  A    between atoms: C_3  and  C_4
REMARK    4  A    between atoms: C_4  and  C_5
REMARK    5  A    between atoms: C_5  and  O_7
REMARK    6  A    between atoms: O_7  and  C_8
REMARK                            x       y       z     vdW  Elec       q    Type
REMARK                         _______ _______ _______ _____ _____    ______ ____
ROOT
ATOM      1  C   UNL     1       7.623   6.082  18.234  0.00  0.00    +0.000 C 
ENDROOT
BRANCH   1   2
ATOM      2  C   UNL     1       6.962   6.386  16.918  0.00  0.00    +0.000 C 
ATOM      3  O   UNL     1       5.984   7.106  16.775  0.00  0.00    +0.000 OA
BRANCH   2   4
ATOM      4  O   UNL     1       7.610   5.747  15.904  0.00  0.00    +0.000 OA
ATOM      5  C   UNL     1       6.840   4.701  15.308  0.00  0.00    +0.000 C 
ENDBRANCH   2   4
ENDBRANCH   1   2
BRANCH   1   6
ATOM      6  C   UNL     1       6.590   5.537  19.208  0.00  0.00    +0.000 C 
BRANCH   6   8
ATOM      7  C   UNL     1       4.858   3.969  18.979  0.00  0.00    +0.000 C 
ATOM      8  O   UNL     1       6.258   4.195  18.852  0.00  0.00    +0.000 OA
ENDBRANCH   6   8
ENDBRANCH   1   6
TORSDOF 4
ENDMDL
MODEL 4
REMARK VINA RESULT:      -3.5      2.543      4.093
REMARK  Name = 
REMARK  6 active torsions:
REMARK  status: ('A' for Active; 'I' for Inactive)
REMARK    1  A    between atoms: C_1  and  O_2
REMARK    2  A    between atoms: O_2  and  C_3
REMARK    3  A    between atoms: C_3  and  C_4
REMARK    4  A    between atoms: C_4  and  C_5
REMARK    5  A    between atoms: C_5  and  O_7
REMARK    6  A    between atoms: O_7  and  C_8
REMARK                            x       y       z     vdW  Elec       q    Type
REMARK                         _______ _______ _______ _____ _____    ______ ____
ROOT
ATOM      1  C   UNL     1       6.500   5.246  18.672  0.00  0.00    +0.000 C 
ENDROOT
BRANCH   1   2
ATOM      2  C   UNL     1       6.948   4.581  17.399  0.00  0.00    +0.000 C 
ATOM      3  O   UNL     1       8.096   4.239  17.153  0.00  0.00    +0.000 OA
BRANCH   2   4
ATOM      4  O   UNL     1       5.891   4.411  16.557  0.00  0.00    +0.000 OA
ATOM      5  C   UNL     1       6.276   4.072  15.223  0.00  0.00    +0.000 C 
ENDBRANCH   2   4
ENDBRANCH   1   2
BRANCH   1   6
ATOM      6  C   UNL     1       5.153   4.681  19.094  0.00  0.00    +0.000 C 
BRANCH   6   8
ATOM      7  C   UNL     1       4.141   2.595  19.462  0.00  0.00    +0.000 C 
ATOM      8  O   UNL     1       5.329   3.366  19.619  0.00  0.00    +0.000 OA
ENDBRANCH   6   8
ENDBRANCH   1   6
TORSDOF 4
ENDMDL
MODEL 5
REMARK VINA RESULT:      -3.5      1.927      2.776
REMARK  Name = 
REMARK  6 active torsions:
REMARK  status: ('A' for Active; 'I' for Inactive)
REMARK    1  A    between atoms: C_1  and  O_2
REMARK    2  A    between atoms: O_2  and  C_3
REMARK    3  A    between atoms: C_3  and  C_4
REMARK    4  A    between atoms: C_4  and  C_5
REMARK    5  A    between atoms: C_5  and  O_7
REMARK    6  A    between atoms: O_7  and  C_8
REMARK                            x       y       z     vdW  Elec       q    Type
REMARK                         _______ _______ _______ _____ _____    ______ ____
ROOT
ATOM      1  C   UNL     1       6.259   4.158  16.077  0.00  0.00    +0.000 C 
ENDROOT
BRANCH   1   2
ATOM      2  C   UNL     1       7.261   4.869  16.943  0.00  0.00    +0.000 C 
ATOM      3  O   UNL     1       7.783   4.397  17.943  0.00  0.00    +0.000 OA
BRANCH   2   4
ATOM      4  O   UNL     1       7.507   6.117  16.456  0.00  0.00    +0.000 OA
ATOM      5  C   UNL     1       7.353   7.149  17.432  0.00  0.00    +0.000 C 
ENDBRANCH   2   4
ENDBRANCH   1   2
BRANCH   1   6
ATOM      6  C   UNL     1       4.951   3.998  16.836  0.00  0.00    +0.000 C 
BRANCH   6   8
ATOM      7  C   UNL     1       3.198   5.204  17.827  0.00  0.00    +0.000 C 
ATOM      8  O   UNL     1       4.281   5.257  16.904  0.00  0.00    +0.000 OA
ENDBRANCH   6   8
ENDBRANCH   1   6
TORSDOF 4
ENDMDL
MODEL 6
REMARK VINA RESULT:      -3.5      3.070      4.282
REMARK  Name = 
REMARK  6 active torsions:
REMARK  status: ('A' for Active; 'I' for Inactive)
REMARK    1  A    between atoms: C_1  and  O_2
REMARK    2  A    between atoms: O_2  and  C_3
REMARK    3  A    between atoms: C_3  and  C_4
REMARK    4  A    between atoms: C_4  and  C_5
REMARK    5  A    between atoms: C_5  and  O_7
REMARK    6  A    between atoms: O_7  and  C_8
REMARK                            x       y       z     vdW  Elec       q    Type
REMARK                         _______ _______ _______ _____ _____    ______ ____
ROOT
ATOM      1  C   UNL     1       7.544   6.228  18.415  0.00  0.00    +0.000 C 
ENDROOT
BRANCH   1   2
ATOM      2  C   UNL     1       7.435   4.817  17.907  0.00  0.00    +0.000 C 
ATOM      3  O   UNL     1       8.380   4.059  17.737  0.00  0.00    +0.000 OA
BRANCH   2   4
ATOM      4  O   UNL     1       6.133   4.501  17.665  0.00  0.00    +0.000 OA
ATOM      5  C   UNL     1       5.387   4.214  18.850  0.00  0.00    +0.000 C 
ENDBRANCH   2   4
ENDBRANCH   1   2
BRANCH   1   6
ATOM      6  C   UNL     1       6.907   7.180  17.415  0.00  0.00    +0.000 C 
BRANCH   6   8
ATOM      7  C   UNL     1       8.263   8.966  18.107  0.00  0.00    +0.000 C 
ATOM      8  O   UNL     1       7.865   8.155  17.006  0.00  0.00    +0.000 OA
ENDBRANCH   6   8
ENDBRANCH   1   6
TORSDOF 4
ENDMDL
MODEL 7
REMARK VINA RESULT:      -3.5      1.526      2.150
REMARK  Name = 
REMARK  6 active torsions:
REMARK  status: ('A' for Active; 'I' for Inactive)
REMARK    1  A    between atoms: C_1  and  O_2
REMARK    2  A    between atoms: O_2  and  C_3
REMARK    3  A    between atoms: C_3  and  C_4
REMARK    4  A    between atoms: C_4  and  C_5
REMARK    5  A    between atoms: C_5  and  O_7
REMARK    6  A    between atoms: O_7  and  C_8
REMARK                            x       y       z     vdW  Elec       q    Type
REMARK                         _______ _______ _______ _____ _____    ______ ____
ROOT
ATOM      1  C   UNL     1       6.041   4.064  14.589  0.00  0.00    +0.000 C 
ENDROOT
BRANCH   1   2
ATOM      2  C   UNL     1       7.264   4.876  14.913  0.00  0.00    +0.000 C 
ATOM      3  O   UNL     1       7.858   5.595  14.121  0.00  0.00    +0.000 OA
BRANCH   2   4
ATOM      4  O   UNL     1       7.619   4.699  16.216  0.00  0.00    +0.000 OA
ATOM      5  C   UNL     1       6.503   4.492  17.085  0.00  0.00    +0.000 C 
ENDBRANCH   2   4
ENDBRANCH   1   2
BRANCH   1   6
ATOM      6  C   UNL     1       6.093   3.622  13.136  0.00  0.00    +0.000 C 
BRANCH   6   8
ATOM      7  C   UNL     1       4.683   2.899  11.404  0.00  0.00    +0.000 C 
ATOM      8  O   UNL     1       4.793   3.727  12.556  0.00  0.00    +0.000 OA
ENDBRANCH   6   8
ENDBRANCH   1   6
TORSDOF 4
ENDMDL
MODEL 8
REMARK VINA RESULT:      -3.5      2.031      3.437
REMARK  Name = 
REMARK  6 active torsions:
REMARK  status: ('A' for Active; 'I' for Inactive)
REMARK    1  A    between atoms: C_1  and  O_2
REMARK    2  A    between atoms: O_2  and  C_3
REMARK    3  A    between atoms: C_3  and  C_4
REMARK    4  A    between atoms: C_4  and  C_5
REMARK    5  A    between atoms: C_5  and  O_7
REMARK    6  A    between atoms: O_7  and  C_8
REMARK                            x       y       z     vdW  Elec       q    Type
REMARK                         _______ _______ _______ _____ _____    ______ ____
ROOT
ATOM      1  C   UNL     1       5.671   4.343  15.857  0.00  0.00    +0.000 C 
ENDROOT
BRANCH   1   2
ATOM      2  C   UNL     1       7.134   4.661  15.993  0.00  0.00    +0.000 C 
ATOM      3  O   UNL     1       7.830   4.364  16.954  0.00  0.00    +0.000 OA
BRANCH   2   4
ATOM      4  O   UNL     1       7.578   5.327  14.890  0.00  0.00    +0.000 OA
ATOM      5  C   UNL     1       7.063   4.803  13.664  0.00  0.00    +0.000 C 
ENDBRANCH   2   4
ENDBRANCH   1   2
BRANCH   1   6
ATOM      6  C   UNL     1       4.915   4.905  17.051  0.00  0.00    +0.000 C 
BRANCH   6   8
ATOM      7  C   UNL     1       4.936   3.968  19.203  0.00  0.00    +0.000 C 
ATOM      8  O   UNL     1       4.451   3.833  17.871  0.00  0.00    +0.000 OA
ENDBRANCH   6   8
ENDBRANCH   1   6
TORSDOF 4
ENDMDL
MODEL 9
REMARK VINA RESULT:      -3.5      2.555      3.406
REMARK  Name = 
REMARK  6 active torsions:
REMARK  status: ('A' for Active; 'I' for Inactive)
REMARK    1  A    between atoms: C_1  and  O_2
REMARK    2  A    between atoms: O_2  and  C_3
REMARK    3  A    between atoms: C_3  and  C_4
REMARK    4  A    between atoms: C_4  and  C_5
REMARK    5  A    between atoms: C_5  and  O_7
REMARK    6  A    between atoms: O_7  and  C_8
REMARK                            x       y       z     vdW  Elec       q    Type
REMARK                         _______ _______ _______ _____ _____    ______ ____
ROOT
ATOM      1  C   UNL     1       6.845   5.482  18.808  0.00  0.00    +0.000 C 
ENDROOT
BRANCH   1   2
ATOM      2  C   UNL     1       5.532   4.812  19.107  0.00  0.00    +0.000 C 
ATOM      3  O   UNL     1       5.397   3.630  19.392  0.00  0.00    +0.000 OA
BRANCH   2   4
ATOM      4  O   UNL     1       4.511   5.710  19.018  0.00  0.00    +0.000 OA
ATOM      5  C   UNL     1       4.026   5.888  17.686  0.00  0.00    +0.000 C 
ENDBRANCH   2   4
ENDBRANCH   1   2
BRANCH   1   6
ATOM      6  C   UNL     1       7.590   4.689  17.746  0.00  0.00    +0.000 C 
BRANCH   6   8
ATOM      7  C   UNL     1       6.886   4.594  15.509  0.00  0.00    +0.000 C 
ATOM      8  O   UNL     1       7.533   5.385  16.501  0.00  0.00    +0.000 OA
ENDBRANCH   6   8
ENDBRANCH   1   6
TORSDOF 4
ENDMDL
