MODEL 1
REMARK VINA RESULT:      -8.5      0.000      0.000
REMARK  Name = 
REMARK  7 active torsions:
REMARK  status: ('A' for Active; 'I' for Inactive)
REMARK    1  A    between atoms: C_1  and  C_2
REMARK    2  A    between atoms: C_2  and  C_3
REMARK    3  A    between atoms: C_6  and  C_7
REMARK    4  A    between atoms: C_7  and  N_8
REMARK    5  A    between atoms: C_9  and  C_11
REMARK    6  A    between atoms: C_11  and  C_12
REMARK    7  A    between atoms: C_15  and  N_16
REMARK                            x       y       z     vdW  Elec       q    Type
REMARK                         _______ _______ _______ _____ _____    ______ ____
ROOT
ATOM      1  C   UNL     1       2.926   4.668  19.134  0.00  0.00    +0.000 A 
ATOM      2  C   UNL     1       2.151   4.551  20.294  0.00  0.00    +0.000 A 
ATOM      3  C   UNL     1       1.554   5.676  20.870  0.00  0.00    +0.000 A 
ATOM      4  C   UNL     1       1.732   6.936  20.302  0.00  0.00    +0.000 A 
ATOM      5  C   UNL     1       2.482   7.050  19.125  0.00  0.00    +0.000 A 
ATOM      6  C   UNL     1       3.079   5.927  18.547  0.00  0.00    +0.000 A 
ENDROOT
BRANCH   4   7
ATOM      7  N   UNL     1       1.176   8.121  20.831  0.00  0.00    +0.000 N 
ATOM      8  C   UNL     1       0.788   9.252  20.124  0.00  0.00    +0.000 C 
ATOM      9  O   UNL     1       0.794   9.263  18.894  0.00  0.00    +0.000 OA
ATOM     10  N   UNL     1       0.376  10.356  20.912  0.00  0.00    +0.000 N 
ATOM     11  C   UNL     1       0.150  10.259  22.368  0.00  0.00    +0.000 C 
ATOM     12  C   UNL     1      -1.131  10.924  22.836  0.00  0.00    +0.000 C 
ATOM     13  S   UNL     1      -0.954  12.700  22.718  0.00  0.00    +0.000 S 
ATOM     14  C   UNL     1      -0.316  12.791  21.058  0.00  0.00    +0.000 A 
ATOM     15  N   UNL     1      -0.425  14.055  20.566  0.00  0.00    +0.000 NA
ATOM     16  C   UNL     1       0.002  14.286  19.315  0.00  0.00    +0.000 A 
ATOM     17  C   UNL     1       0.546  13.307  18.519  0.00  0.00    +0.000 A 
ATOM     18  C   UNL     1       0.662  12.016  19.040  0.00  0.00    +0.000 A 
ATOM     19  C   UNL     1       0.228  11.700  20.340  0.00  0.00    +0.000 A 
ATOM     20  H   UNL     1       0.898   8.025  21.788  0.00  0.00    +0.000 HD
ENDBRANCH   4   7
BRANCH   1  21
ATOM     21  C   UNL     1       3.584   3.455  18.526  0.00  0.00    +0.000 C 
BRANCH  21  23
ATOM     22  N   UNL     1       5.943   4.074  18.487  0.00  0.00    +0.000 N 
ATOM     23  C   UNL     1       4.840   3.758  17.728  0.00  0.00    +0.000 C 
ATOM     24  O   UNL     1       4.827   3.801  16.500  0.00  0.00    +0.000 OA
ATOM     25  H   UNL     1       5.951   3.813  19.464  0.00  0.00    +0.000 HD
BRANCH  22  26
ATOM     26  C   UNL     1       7.203   4.439  17.887  0.00  0.00    +0.000 C 
BRANCH  26  30
ATOM     27  C   UNL     1       8.158   8.643  18.153  0.00  0.00    +0.000 A 
ATOM     28  C   UNL     1       8.574   7.756  19.151  0.00  0.00    +0.000 A 
ATOM     29  C   UNL     1       8.234   6.402  19.077  0.00  0.00    +0.000 A 
ATOM     30  C   UNL     1       7.486   5.913  17.999  0.00  0.00    +0.000 A 
ATOM     31  C   UNL     1       7.028   6.812  17.027  0.00  0.00    +0.000 A 
ATOM     32  C   UNL     1       7.366   8.165  17.102  0.00  0.00    +0.000 A 
BRANCH  27  34
ATOM     33  C   UNL     1       9.496  10.341  19.390  0.00  0.00    +0.000 C 
ATOM     34  C   UNL     1       8.633  10.073  18.164  0.00  0.00    +0.000 C 
ENDBRANCH  27  34
ENDBRANCH  26  30
ENDBRANCH  22  26
ENDBRANCH  21  23
ENDBRANCH   1  21
TORSDOF 6
ENDMDL
MODEL 2
REMARK VINA RESULT:      -8.4      4.320      8.028
REMARK  Name = 
REMARK  7 active torsions:
REMARK  status: ('A' for Active; 'I' for Inactive)
REMARK    1  A    between atoms: C_1  and  C_2
REMARK    2  A    between atoms: C_2  and  C_3
REMARK    3  A    between atoms: C_6  and  C_7
REMARK    4  A    between atoms: C_7  and  N_8
REMARK    5  A    between atoms: C_9  and  C_11
REMARK    6  A    between atoms: C_11  and  C_12
REMARK    7  A    between atoms: C_15  and  N_16
REMARK                            x       y       z     vdW  Elec       q    Type
REMARK                         _______ _______ _______ _____ _____    ______ ____
ROOT
ATOM      1  C   UNL     1       6.897   5.969  18.128  0.00  0.00    +0.000 A 
ATOM      2  C   UNL     1       6.473   6.925  17.197  0.00  0.00    +0.000 A 
ATOM      3  C   UNL     1       7.080   8.182  17.136  0.00  0.00    +0.000 A 
ATOM      4  C   UNL     1       8.115   8.507  18.013  0.00  0.00    +0.000 A 
ATOM      5  C   UNL     1       8.560   7.542  18.924  0.00  0.00    +0.000 A 
ATOM      6  C   UNL     1       7.955   6.284  18.986  0.00  0.00    +0.000 A 
ENDROOT
BRANCH   4   7
ATOM      7  N   UNL     1       8.769   9.758  18.025  0.00  0.00    +0.000 N 
ATOM      8  C   UNL     1       9.133  10.501  19.141  0.00  0.00    +0.000 C 
ATOM      9  O   UNL     1       9.009  10.042  20.275  0.00  0.00    +0.000 OA
ATOM     10  N   UNL     1       9.664  11.787  18.874  0.00  0.00    +0.000 N 
ATOM     11  C   UNL     1      10.027  12.237  17.515  0.00  0.00    +0.000 C 
ATOM     12  C   UNL     1      11.373  12.930  17.435  0.00  0.00    +0.000 C 
ATOM     13  S   UNL     1      11.260  14.536  18.217  0.00  0.00    +0.000 S 
ATOM     14  C   UNL     1      10.469  14.033  19.732  0.00  0.00    +0.000 A 
ATOM     15  N   UNL     1      10.583  15.002  20.682  0.00  0.00    +0.000 NA
ATOM     16  C   UNL     1      10.046  14.770  21.890  0.00  0.00    +0.000 A 
ATOM     17  C   UNL     1       9.388  13.605  22.202  0.00  0.00    +0.000 A 
ATOM     18  C   UNL     1       9.270  12.624  21.216  0.00  0.00    +0.000 A 
ATOM     19  C   UNL     1       9.813  12.796  19.930  0.00  0.00    +0.000 A 
ATOM     20  H   UNL     1       9.133  10.015  17.128  0.00  0.00    +0.000 HD
ENDBRANCH   4   7
BRANCH   1  21
ATOM     21  C   UNL     1       6.227   4.621  18.203  0.00  0.00    +0.000 C 
BRANCH  21  23
ATOM     22  N   UNL     1       4.310   5.437  19.472  0.00  0.00    +0.000 N 
ATOM     23  C   UNL     1       4.722   4.680  18.399  0.00  0.00    +0.000 C 
ATOM     24  O   UNL     1       3.956   4.024  17.698  0.00  0.00    +0.000 OA
ATOM     25  H   UNL     1       4.952   6.112  19.865  0.00  0.00    +0.000 HD
BRANCH  22  26
ATOM     26  C   UNL     1       2.918   5.557  19.831  0.00  0.00    +0.000 C 
BRANCH  26  30
ATOM     27  C   UNL     1       1.220   9.431  18.960  0.00  0.00    +0.000 A 
ATOM     28  C   UNL     1       1.915   8.724  17.975  0.00  0.00    +0.000 A 
ATOM     29  C   UNL     1       2.491   7.485  18.271  0.00  0.00    +0.000 A 
ATOM     30  C   UNL     1       2.369   6.930  19.551  0.00  0.00    +0.000 A 
ATOM     31  C   UNL     1       1.716   7.664  20.550  0.00  0.00    +0.000 A 
ATOM     32  C   UNL     1       1.142   8.903  20.254  0.00  0.00    +0.000 A 
BRANCH  27  34
ATOM     33  C   UNL     1       0.274  11.557  19.850  0.00  0.00    +0.000 C 
ATOM     34  C   UNL     1       0.490  10.702  18.608  0.00  0.00    +0.000 C 
ENDBRANCH  27  34
ENDBRANCH  26  30
ENDBRANCH  22  26
ENDBRANCH  21  23
ENDBRANCH   1  21
TORSDOF 6
ENDMDL
MODEL 3
REMARK VINA RESULT:      -8.2      4.261      7.841
REMARK  Name = 
REMARK  7 active torsions:
REMARK  status: ('A' for Active; 'I' for Inactive)
REMARK    1  A    between atoms: C_1  and  C_2
REMARK    2  A    between atoms: C_2  and  C_3
REMARK    3  A    between atoms: C_6  and  C_7
REMARK    4  A    between atoms: C_7  and  N_8
REMARK    5  A    between atoms: C_9  and  C_11
REMARK    6  A    between atoms: C_11  and  C_12
REMARK    7  A    between atoms: C_15  and  N_16
REMARK                            x       y       z     vdW  Elec       q    Type
REMARK                         _______ _______ _______ _____ _____    ______ ____
ROOT
ATOM      1  C   UNL     1       7.048   5.971  18.025  0.00  0.00    +0.000 A 
ATOM      2  C   UNL     1       8.055   6.306  18.938  0.00  0.00    +0.000 A 
ATOM      3  C   UNL     1       8.584   7.599  18.976  0.00  0.00    +0.000 A 
ATOM      4  C   UNL     1       8.121   8.575  18.094  0.00  0.00    +0.000 A 
ATOM      5  C   UNL     1       7.093   8.249  17.201  0.00  0.00    +0.000 A 
ATOM      6  C   UNL     1       6.563   6.958  17.162  0.00  0.00    +0.000 A 
ENDROOT
BRANCH   4   7
ATOM      7  N   UNL     1       8.614   9.898  18.059  0.00  0.00    +0.000 N 
ATOM      8  C   UNL     1       9.072  10.649  19.134  0.00  0.00    +0.000 C 
ATOM      9  O   UNL     1       9.198  10.146  20.249  0.00  0.00    +0.000 OA
ATOM     10  N   UNL     1       9.393  11.998  18.845  0.00  0.00    +0.000 N 
ATOM     11  C   UNL     1       9.463  12.527  17.469  0.00  0.00    +0.000 C 
ATOM     12  C   UNL     1      10.684  13.386  17.201  0.00  0.00    +0.000 C 
ATOM     13  S   UNL     1      10.515  14.943  18.069  0.00  0.00    +0.000 S 
ATOM     14  C   UNL     1      10.059  14.303  19.667  0.00  0.00    +0.000 A 
ATOM     15  N   UNL     1      10.217  15.251  20.631  0.00  0.00    +0.000 NA
ATOM     16  C   UNL     1       9.925  14.920  21.898  0.00  0.00    +0.000 A 
ATOM     17  C   UNL     1       9.473  13.674  22.259  0.00  0.00    +0.000 A 
ATOM     18  C   UNL     1       9.306  12.713  21.258  0.00  0.00    +0.000 A 
ATOM     19  C   UNL     1       9.598  12.988  19.911  0.00  0.00    +0.000 A 
ATOM     20  H   UNL     1       8.787  10.223  17.128  0.00  0.00    +0.000 HD
ENDBRANCH   4   7
BRANCH   1  21
ATOM     21  C   UNL     1       6.493   4.570  17.974  0.00  0.00    +0.000 C 
BRANCH  21  23
ATOM     22  N   UNL     1       4.500   4.982  19.317  0.00  0.00    +0.000 N 
ATOM     23  C   UNL     1       4.985   4.487  18.128  0.00  0.00    +0.000 C 
ATOM     24  O   UNL     1       4.282   3.936  17.286  0.00  0.00    +0.000 OA
ATOM     25  H   UNL     1       5.084   5.606  19.859  0.00  0.00    +0.000 HD
BRANCH  22  26
ATOM     26  C   UNL     1       3.097   4.933  19.648  0.00  0.00    +0.000 C 
BRANCH  26  30
ATOM     27  C   UNL     1       1.382   8.896  19.700  0.00  0.00    +0.000 A 
ATOM     28  C   UNL     1       1.271   8.061  20.816  0.00  0.00    +0.000 A 
ATOM     29  C   UNL     1       1.799   6.767  20.782  0.00  0.00    +0.000 A 
ATOM     30  C   UNL     1       2.457   6.295  19.639  0.00  0.00    +0.000 A 
ATOM     31  C   UNL     1       2.521   7.116  18.506  0.00  0.00    +0.000 A 
ATOM     32  C   UNL     1       1.992   8.408  18.538  0.00  0.00    +0.000 A 
BRANCH  27  34
ATOM     33  C   UNL     1       0.246  10.751  18.485  0.00  0.00    +0.000 C 
ATOM     34  C   UNL     1       0.929  10.332  19.780  0.00  0.00    +0.000 C 
ENDBRANCH  27  34
ENDBRANCH  26  30
ENDBRANCH  22  26
ENDBRANCH  21  23
ENDBRANCH   1  21
TORSDOF 6
ENDMDL
MODEL 4
REMARK VINA RESULT:      -8.2      0.585      1.029
REMARK  Name = 
REMARK  7 active torsions:
REMARK  status: ('A' for Active; 'I' for Inactive)
REMARK    1  A    between atoms: C_1  and  C_2
REMARK    2  A    between atoms: C_2  and  C_3
REMARK    3  A    between atoms: C_6  and  C_7
REMARK    4  A    between atoms: C_7  and  N_8
REMARK    5  A    between atoms: C_9  and  C_11
REMARK    6  A    between atoms: C_11  and  C_12
REMARK    7  A    between atoms: C_15  and  N_16
REMARK                            x       y       z     vdW  Elec       q    Type
REMARK                         _______ _______ _______ _____ _____    ______ ____
ROOT
ATOM      1  C   UNL     1       2.687   5.071  18.876  0.00  0.00    +0.000 A 
ATOM      2  C   UNL     1       2.762   6.294  18.199  0.00  0.00    +0.000 A 
ATOM      3  C   UNL     1       2.242   7.459  18.768  0.00  0.00    +0.000 A 
ATOM      4  C   UNL     1       1.629   7.418  20.020  0.00  0.00    +0.000 A 
ATOM      5  C   UNL     1       1.580   6.201  20.711  0.00  0.00    +0.000 A 
ATOM      6  C   UNL     1       2.100   5.035  20.144  0.00  0.00    +0.000 A 
ENDROOT
BRANCH   4   7
ATOM      7  N   UNL     1       1.066   8.546  20.656  0.00  0.00    +0.000 N 
ATOM      8  C   UNL     1       0.911   9.818  20.119  0.00  0.00    +0.000 C 
ATOM      9  O   UNL     1       1.162  10.040  18.936  0.00  0.00    +0.000 OA
ATOM     10  N   UNL     1       0.432  10.806  21.014  0.00  0.00    +0.000 N 
ATOM     11  C   UNL     1      -0.086  10.484  22.359  0.00  0.00    +0.000 C 
ATOM     12  C   UNL     1      -1.383  11.192  22.703  0.00  0.00    +0.000 C 
ATOM     13  S   UNL     1      -1.056  12.933  22.962  0.00  0.00    +0.000 S 
ATOM     14  C   UNL     1      -0.096  13.239  21.494  0.00  0.00    +0.000 A 
ATOM     15  N   UNL     1      -0.012  14.574  21.241  0.00  0.00    +0.000 NA
ATOM     16  C   UNL     1       0.672  14.971  20.157  0.00  0.00    +0.000 A 
ATOM     17  C   UNL     1       1.290  14.091  19.301  0.00  0.00    +0.000 A 
ATOM     18  C   UNL     1       1.205  12.725  19.579  0.00  0.00    +0.000 A 
ATOM     19  C   UNL     1       0.499  12.237  20.693  0.00  0.00    +0.000 A 
ATOM     20  H   UNL     1       0.597   8.316  21.510  0.00  0.00    +0.000 HD
ENDBRANCH   4   7
BRANCH   1  21
ATOM     21  C   UNL     1       3.232   3.812  18.250  0.00  0.00    +0.000 C 
BRANCH  21  23
ATOM     22  N   UNL     1       5.625   4.202  18.513  0.00  0.00    +0.000 N 
ATOM     23  C   UNL     1       4.604   3.970  17.619  0.00  0.00    +0.000 C 
ATOM     24  O   UNL     1       4.755   3.977  16.401  0.00  0.00    +0.000 OA
ATOM     25  H   UNL     1       5.480   3.971  19.486  0.00  0.00    +0.000 HD
BRANCH  22  26
ATOM     26  C   UNL     1       6.982   4.427  18.078  0.00  0.00    +0.000 C 
BRANCH  26  30
ATOM     27  C   UNL     1       8.193   8.572  18.069  0.00  0.00    +0.000 A 
ATOM     28  C   UNL     1       8.559   7.729  19.123  0.00  0.00    +0.000 A 
ATOM     29  C   UNL     1       8.136   6.396  19.137  0.00  0.00    +0.000 A 
ATOM     30  C   UNL     1       7.355   5.885  18.094  0.00  0.00    +0.000 A 
ATOM     31  C   UNL     1       6.949   6.745  17.065  0.00  0.00    +0.000 A 
ATOM     32  C   UNL     1       7.370   8.077  17.051  0.00  0.00    +0.000 A 
BRANCH  27  34
ATOM     33  C   UNL     1       9.422  10.356  19.299  0.00  0.00    +0.000 C 
ATOM     34  C   UNL     1       8.755   9.969  17.986  0.00  0.00    +0.000 C 
ENDBRANCH  27  34
ENDBRANCH  26  30
ENDBRANCH  22  26
ENDBRANCH  21  23
ENDBRANCH   1  21
TORSDOF 6
ENDMDL
MODEL 5
REMARK VINA RESULT:      -8.1      3.760      9.863
REMARK  Name = 
REMARK  7 active torsions:
REMARK  status: ('A' for Active; 'I' for Inactive)
REMARK    1  A    between atoms: C_1  and  C_2
REMARK    2  A    between atoms: C_2  and  C_3
REMARK    3  A    between atoms: C_6  and  C_7
REMARK    4  A    between atoms: C_7  and  N_8
REMARK    5  A    between atoms: C_9  and  C_11
REMARK    6  A    between atoms: C_11  and  C_12
REMARK    7  A    between atoms: C_15  and  N_16
REMARK                            x       y       z     vdW  Elec       q    Type
REMARK                         _______ _______ _______ _____ _____    ______ ____
ROOT
ATOM      1  C   UNL     1      -0.710  11.109  22.198  0.00  0.00    +0.000 A 
ATOM      2  C   UNL     1      -0.138  10.939  20.931  0.00  0.00    +0.000 A 
ATOM      3  C   UNL     1       0.383   9.702  20.542  0.00  0.00    +0.000 A 
ATOM      4  C   UNL     1       0.350   8.618  21.419  0.00  0.00    +0.000 A 
ATOM      5  C   UNL     1      -0.248   8.779  22.674  0.00  0.00    +0.000 A 
ATOM      6  C   UNL     1      -0.770  10.014  23.065  0.00  0.00    +0.000 A 
ENDROOT
BRANCH   4   7
ATOM      7  N   UNL     1       0.869   7.342  21.108  0.00  0.00    +0.000 N 
ATOM      8  C   UNL     1       1.935   7.055  20.265  0.00  0.00    +0.000 C 
ATOM      9  O   UNL     1       2.624   7.954  19.787  0.00  0.00    +0.000 OA
ATOM     10  N   UNL     1       2.172   5.679  20.024  0.00  0.00    +0.000 N 
ATOM     11  C   UNL     1       1.495   4.606  20.780  0.00  0.00    +0.000 C 
ATOM     12  C   UNL     1       2.424   3.501  21.244  0.00  0.00    +0.000 C 
ATOM     13  S   UNL     1       2.946   2.533  19.832  0.00  0.00    +0.000 S 
ATOM     14  C   UNL     1       3.424   3.873  18.760  0.00  0.00    +0.000 A 
ATOM     15  N   UNL     1       4.203   3.420  17.739  0.00  0.00    +0.000 NA
ATOM     16  C   UNL     1       4.658   4.314  16.846  0.00  0.00    +0.000 A 
ATOM     17  C   UNL     1       4.367   5.654  16.918  0.00  0.00    +0.000 A 
ATOM     18  C   UNL     1       3.557   6.103  17.965  0.00  0.00    +0.000 A 
ATOM     19  C   UNL     1       3.052   5.225  18.940  0.00  0.00    +0.000 A 
ATOM     20  H   UNL     1       0.510   6.622  21.703  0.00  0.00    +0.000 HD
ENDBRANCH   4   7
BRANCH   1  21
ATOM     21  C   UNL     1      -1.253  12.450  22.621  0.00  0.00    +0.000 C 
BRANCH  21  23
ATOM     22  N   UNL     1      -3.142  12.228  21.095  0.00  0.00    +0.000 N 
ATOM     23  C   UNL     1      -2.202  13.085  21.620  0.00  0.00    +0.000 C 
ATOM     24  O   UNL     1      -2.067  14.250  21.255  0.00  0.00    +0.000 OA
ATOM     25  H   UNL     1      -3.340  11.365  21.583  0.00  0.00    +0.000 HD
BRANCH  22  26
ATOM     26  C   UNL     1      -4.088  12.655  20.092  0.00  0.00    +0.000 C 
BRANCH  26  30
ATOM     27  C   UNL     1      -3.319  10.994  16.180  0.00  0.00    +0.000 A 
ATOM     28  C   UNL     1      -4.598  11.445  16.520  0.00  0.00    +0.000 A 
ATOM     29  C   UNL     1      -4.849  11.952  17.799  0.00  0.00    +0.000 A 
ATOM     30  C   UNL     1      -3.824  12.027  18.750  0.00  0.00    +0.000 A 
ATOM     31  C   UNL     1      -2.557  11.528  18.423  0.00  0.00    +0.000 A 
ATOM     32  C   UNL     1      -2.305  11.020  17.146  0.00  0.00    +0.000 A 
BRANCH  27  34
ATOM     33  C   UNL     1      -4.149   9.720  14.207  0.00  0.00    +0.000 C 
ATOM     34  C   UNL     1      -3.016  10.570  14.766  0.00  0.00    +0.000 C 
ENDBRANCH  27  34
ENDBRANCH  26  30
ENDBRANCH  22  26
ENDBRANCH  21  23
ENDBRANCH   1  21
TORSDOF 6
ENDMDL
MODEL 6
REMARK VINA RESULT:      -8.1      1.546      2.239
REMARK  Name = 
REMARK  7 active torsions:
REMARK  status: ('A' for Active; 'I' for Inactive)
REMARK    1  A    between atoms: C_1  and  C_2
REMARK    2  A    between atoms: C_2  and  C_3
REMARK    3  A    between atoms: C_6  and  C_7
REMARK    4  A    between atoms: C_7  and  N_8
REMARK    5  A    between atoms: C_9  and  C_11
REMARK    6  A    between atoms: C_11  and  C_12
REMARK    7  A    between atoms: C_15  and  N_16
REMARK                            x       y       z     vdW  Elec       q    Type
REMARK                         _______ _______ _______ _____ _____    ______ ____
ROOT
ATOM      1  C   UNL     1       2.293   5.527  19.514  0.00  0.00    +0.000 A 
ATOM      2  C   UNL     1       2.500   6.379  18.422  0.00  0.00    +0.000 A 
ATOM      3  C   UNL     1       2.110   7.720  18.477  0.00  0.00    +0.000 A 
ATOM      4  C   UNL     1       1.497   8.228  19.622  0.00  0.00    +0.000 A 
ATOM      5  C   UNL     1       1.317   7.385  20.725  0.00  0.00    +0.000 A 
ATOM      6  C   UNL     1       1.706   6.044  20.672  0.00  0.00    +0.000 A 
ENDROOT
BRANCH   4   7
ATOM      7  N   UNL     1       1.061   9.564  19.751  0.00  0.00    +0.000 N 
ATOM      8  C   UNL     1       1.501  10.662  19.022  0.00  0.00    +0.000 C 
ATOM      9  O   UNL     1       2.269  10.523  18.071  0.00  0.00    +0.000 OA
ATOM     10  N   UNL     1       0.992  11.917  19.437  0.00  0.00    +0.000 N 
ATOM     11  C   UNL     1      -0.101  12.051  20.420  0.00  0.00    +0.000 C 
ATOM     12  C   UNL     1      -1.172  13.048  20.017  0.00  0.00    +0.000 C 
ATOM     13  S   UNL     1      -0.510  14.707  20.137  0.00  0.00    +0.000 S 
ATOM     14  C   UNL     1       1.013  14.446  19.252  0.00  0.00    +0.000 A 
ATOM     15  N   UNL     1       1.562  15.633  18.872  0.00  0.00    +0.000 NA
ATOM     16  C   UNL     1       2.712  15.606  18.182  0.00  0.00    +0.000 A 
ATOM     17  C   UNL     1       3.356  14.438  17.850  0.00  0.00    +0.000 A 
ATOM     18  C   UNL     1       2.788  13.228  18.255  0.00  0.00    +0.000 A 
ATOM     19  C   UNL     1       1.581  13.181  18.975  0.00  0.00    +0.000 A 
ATOM     20  H   UNL     1       0.239   9.651  20.315  0.00  0.00    +0.000 HD
ENDBRANCH   4   7
BRANCH   1  21
ATOM     21  C   UNL     1       2.697   4.077  19.443  0.00  0.00    +0.000 C 
BRANCH  21  23
ATOM     22  N   UNL     1       5.010   4.669  18.946  0.00  0.00    +0.000 N 
ATOM     23  C   UNL     1       3.969   3.819  18.654  0.00  0.00    +0.000 C 
ATOM     24  O   UNL     1       4.013   2.972  17.765  0.00  0.00    +0.000 OA
ATOM     25  H   UNL     1       4.987   5.185  19.815  0.00  0.00    +0.000 HD
BRANCH  22  26
ATOM     26  C   UNL     1       6.272   4.596  18.251  0.00  0.00    +0.000 C 
BRANCH  26  30
ATOM     27  C   UNL     1       8.086   8.509  18.015  0.00  0.00    +0.000 A 
ATOM     28  C   UNL     1       7.076   8.139  17.120  0.00  0.00    +0.000 A 
ATOM     29  C   UNL     1       6.516   6.860  17.180  0.00  0.00    +0.000 A 
ATOM     30  C   UNL     1       6.946   5.937  18.142  0.00  0.00    +0.000 A 
ATOM     31  C   UNL     1       7.991   6.293  19.003  0.00  0.00    +0.000 A 
ATOM     32  C   UNL     1       8.553   7.570  18.943  0.00  0.00    +0.000 A 
BRANCH  27  34
ATOM     33  C   UNL     1       9.443  10.171  19.280  0.00  0.00    +0.000 C 
ATOM     34  C   UNL     1       8.598   9.926  18.036  0.00  0.00    +0.000 C 
ENDBRANCH  27  34
ENDBRANCH  26  30
ENDBRANCH  22  26
ENDBRANCH  21  23
ENDBRANCH   1  21
TORSDOF 6
ENDMDL
MODEL 7
REMARK VINA RESULT:      -8.1      2.631      3.984
REMARK  Name = 
REMARK  7 active torsions:
REMARK  status: ('A' for Active; 'I' for Inactive)
REMARK    1  A    between atoms: C_1  and  C_2
REMARK    2  A    between atoms: C_2  and  C_3
REMARK    3  A    between atoms: C_6  and  C_7
REMARK    4  A    between atoms: C_7  and  N_8
REMARK    5  A    between atoms: C_9  and  C_11
REMARK    6  A    between atoms: C_11  and  C_12
REMARK    7  A    between atoms: C_15  and  N_16
REMARK                            x       y       z     vdW  Elec       q    Type
REMARK                         _______ _______ _______ _____ _____    ______ ____
ROOT
ATOM      1  C   UNL     1       1.900   6.552  19.752  0.00  0.00    +0.000 A 
ATOM      2  C   UNL     1       2.063   7.216  18.530  0.00  0.00    +0.000 A 
ATOM      3  C   UNL     1       1.805   8.585  18.419  0.00  0.00    +0.000 A 
ATOM      4  C   UNL     1       1.369   9.310  19.528  0.00  0.00    +0.000 A 
ATOM      5  C   UNL     1       1.234   8.654  20.757  0.00  0.00    +0.000 A 
ATOM      6  C   UNL     1       1.492   7.286  20.870  0.00  0.00    +0.000 A 
ENDROOT
BRANCH   4   7
ATOM      7  N   UNL     1       1.072  10.690  19.494  0.00  0.00    +0.000 N 
ATOM      8  C   UNL     1       1.746  11.673  18.782  0.00  0.00    +0.000 C 
ATOM      9  O   UNL     1       2.636  11.380  17.985  0.00  0.00    +0.000 OA
ATOM     10  N   UNL     1       1.322  13.004  19.023  0.00  0.00    +0.000 N 
ATOM     11  C   UNL     1       0.107  13.328  19.796  0.00  0.00    +0.000 C 
ATOM     12  C   UNL     1      -0.764  14.392  19.155  0.00  0.00    +0.000 C 
ATOM     13  S   UNL     1       0.053  15.980  19.278  0.00  0.00    +0.000 S 
ATOM     14  C   UNL     1       1.660  15.494  18.683  0.00  0.00    +0.000 A 
ATOM     15  N   UNL     1       2.393  16.584  18.326  0.00  0.00    +0.000 NA
ATOM     16  C   UNL     1       3.629  16.384  17.843  0.00  0.00    +0.000 A 
ATOM     17  C   UNL     1       4.182  15.134  17.701  0.00  0.00    +0.000 A 
ATOM     18  C   UNL     1       3.422  14.025  18.081  0.00  0.00    +0.000 A 
ATOM     19  C   UNL     1       2.117  14.159  18.588  0.00  0.00    +0.000 A 
ATOM     20  H   UNL     1       0.184  10.906  19.905  0.00  0.00    +0.000 HD
ENDBRANCH   4   7
BRANCH   1  21
ATOM     21  C   UNL     1       2.161   5.072  19.862  0.00  0.00    +0.000 C 
BRANCH  21  23
ATOM     22  N   UNL     1       4.501   5.694  19.579  0.00  0.00    +0.000 N 
ATOM     23  C   UNL     1       3.591   4.663  19.555  0.00  0.00    +0.000 C 
ATOM     24  O   UNL     1       3.875   3.515  19.226  0.00  0.00    +0.000 OA
ATOM     25  H   UNL     1       4.255   6.550  20.058  0.00  0.00    +0.000 HD
BRANCH  22  26
ATOM     26  C   UNL     1       5.894   5.490  19.259  0.00  0.00    +0.000 C 
BRANCH  26  30
ATOM     27  C   UNL     1       6.522   5.094  15.005  0.00  0.00    +0.000 A 
ATOM     28  C   UNL     1       7.401   4.493  15.911  0.00  0.00    +0.000 A 
ATOM     29  C   UNL     1       7.212   4.651  17.287  0.00  0.00    +0.000 A 
ATOM     30  C   UNL     1       6.135   5.401  17.777  0.00  0.00    +0.000 A 
ATOM     31  C   UNL     1       5.286   6.043  16.867  0.00  0.00    +0.000 A 
ATOM     32  C   UNL     1       5.475   5.886  15.492  0.00  0.00    +0.000 A 
BRANCH  27  34
ATOM     33  C   UNL     1       5.895   3.546  13.156  0.00  0.00    +0.000 C 
ATOM     34  C   UNL     1       6.648   4.817  13.529  0.00  0.00    +0.000 C 
ENDBRANCH  27  34
ENDBRANCH  26  30
ENDBRANCH  22  26
ENDBRANCH  21  23
ENDBRANCH   1  21
TORSDOF 6
ENDMDL
MODEL 8
REMARK VINA RESULT:      -8.0      0.890      1.508
REMARK  Name = 
REMARK  7 active torsions:
REMARK  status: ('A' for Active; 'I' for Inactive)
REMARK    1  A    between atoms: C_1  and  C_2
REMARK    2  A    between atoms: C_2  and  C_3
REMARK    3  A    between atoms: C_6  and  C_7
REMARK    4  A    between atoms: C_7  and  N_8
REMARK    5  A    between atoms: C_9  and  C_11
REMARK    6  A    between atoms: C_11  and  C_12
REMARK    7  A    between atoms: C_15  and  N_16
REMARK                            x       y       z     vdW  Elec       q    Type
REMARK                         _______ _______ _______ _____ _____    ______ ____
ROOT
ATOM      1  C   UNL     1       2.623   5.052  19.443  0.00  0.00    +0.000 A 
ATOM      2  C   UNL     1       3.071   6.291  18.970  0.00  0.00    +0.000 A 
ATOM      3  C   UNL     1       2.536   7.483  19.466  0.00  0.00    +0.000 A 
ATOM      4  C   UNL     1       1.535   7.454  20.436  0.00  0.00    +0.000 A 
ATOM      5  C   UNL     1       1.106   6.216  20.932  0.00  0.00    +0.000 A 
ATOM      6  C   UNL     1       1.641   5.024  20.437  0.00  0.00    +0.000 A 
ENDROOT
BRANCH   4   7
ATOM      7  N   UNL     1       0.932   8.611  20.977  0.00  0.00    +0.000 N 
ATOM      8  C   UNL     1       0.473   9.719  20.277  0.00  0.00    +0.000 C 
ATOM      9  O   UNL     1       0.449   9.726  19.048  0.00  0.00    +0.000 OA
ATOM     10  N   UNL     1       0.025  10.803  21.072  0.00  0.00    +0.000 N 
ATOM     11  C   UNL     1      -0.163  10.699  22.533  0.00  0.00    +0.000 C 
ATOM     12  C   UNL     1      -1.464  11.300  23.030  0.00  0.00    +0.000 C 
ATOM     13  S   UNL     1      -1.378  13.083  22.906  0.00  0.00    +0.000 S 
ATOM     14  C   UNL     1      -0.785  13.201  21.230  0.00  0.00    +0.000 A 
ATOM     15  N   UNL     1      -0.969  14.457  20.739  0.00  0.00    +0.000 NA
ATOM     16  C   UNL     1      -0.583  14.705  19.478  0.00  0.00    +0.000 A 
ATOM     17  C   UNL     1      -0.010  13.752  18.671  0.00  0.00    +0.000 A 
ATOM     18  C   UNL     1       0.183  12.470  19.192  0.00  0.00    +0.000 A 
ATOM     19  C   UNL     1      -0.204  12.137  20.502  0.00  0.00    +0.000 A 
ATOM     20  H   UNL     1       0.683   8.504  21.940  0.00  0.00    +0.000 HD
ENDBRANCH   4   7
BRANCH   1  21
ATOM     21  C   UNL     1       3.189   3.769  18.890  0.00  0.00    +0.000 C 
BRANCH  21  23
ATOM     22  N   UNL     1       5.092   4.301  17.461  0.00  0.00    +0.000 N 
ATOM     23  C   UNL     1       4.692   3.790  18.675  0.00  0.00    +0.000 C 
ATOM     24  O   UNL     1       5.466   3.301  19.493  0.00  0.00    +0.000 OA
ATOM     25  H   UNL     1       4.444   4.874  16.938  0.00  0.00    +0.000 HD
BRANCH  22  26
ATOM     26  C   UNL     1       6.481   4.346  17.073  0.00  0.00    +0.000 C 
BRANCH  26  30
ATOM     27  C   UNL     1       8.302   8.024  18.417  0.00  0.00    +0.000 A 
ATOM     28  C   UNL     1       7.648   7.966  17.182  0.00  0.00    +0.000 A 
ATOM     29  C   UNL     1       7.089   6.764  16.737  0.00  0.00    +0.000 A 
ATOM     30  C   UNL     1       7.163   5.609  17.525  0.00  0.00    +0.000 A 
ATOM     31  C   UNL     1       7.862   5.658  18.738  0.00  0.00    +0.000 A 
ATOM     32  C   UNL     1       8.422   6.858  19.182  0.00  0.00    +0.000 A 
BRANCH  27  34
ATOM     33  C   UNL     1       8.585  10.450  17.927  0.00  0.00    +0.000 C 
ATOM     34  C   UNL     1       8.789   9.345  18.954  0.00  0.00    +0.000 C 
ENDBRANCH  27  34
ENDBRANCH  26  30
ENDBRANCH  22  26
ENDBRANCH  21  23
ENDBRANCH   1  21
TORSDOF 6
ENDMDL
MODEL 9
REMARK VINA RESULT:      -7.9      1.906      2.574
REMARK  Name = 
REMARK  7 active torsions:
REMARK  status: ('A' for Active; 'I' for Inactive)
REMARK    1  A    between atoms: C_1  and  C_2
REMARK    2  A    between atoms: C_2  and  C_3
REMARK    3  A    between atoms: C_6  and  C_7
REMARK    4  A    between atoms: C_7  and  N_8
REMARK    5  A    between atoms: C_9  and  C_11
REMARK    6  A    between atoms: C_11  and  C_12
REMARK    7  A    between atoms: C_15  and  N_16
REMARK                            x       y       z     vdW  Elec       q    Type
REMARK                         _______ _______ _______ _____ _____    ______ ____
ROOT
ATOM      1  C   UNL     1       2.371   6.160  18.850  0.00  0.00    +0.000 A 
ATOM      2  C   UNL     1       2.067   6.612  20.140  0.00  0.00    +0.000 A 
ATOM      3  C   UNL     1       1.646   7.927  20.356  0.00  0.00    +0.000 A 
ATOM      4  C   UNL     1       1.532   8.814  19.286  0.00  0.00    +0.000 A 
ATOM      5  C   UNL     1       1.807   8.355  17.992  0.00  0.00    +0.000 A 
ATOM      6  C   UNL     1       2.228   7.041  17.774  0.00  0.00    +0.000 A 
ENDROOT
BRANCH   4   7
ATOM      7  N   UNL     1       1.128  10.160  19.423  0.00  0.00    +0.000 N 
ATOM      8  C   UNL     1       1.673  11.266  18.784  0.00  0.00    +0.000 C 
ATOM      9  O   UNL     1       2.526  11.134  17.908  0.00  0.00    +0.000 OA
ATOM     10  N   UNL     1       1.165  12.523  19.196  0.00  0.00    +0.000 N 
ATOM     11  C   UNL     1      -0.015  12.661  20.071  0.00  0.00    +0.000 C 
ATOM     12  C   UNL     1      -1.008  13.709  19.604  0.00  0.00    +0.000 C 
ATOM     13  S   UNL     1      -0.309  15.338  19.853  0.00  0.00    +0.000 S 
ATOM     14  C   UNL     1       1.285  15.055  19.112  0.00  0.00    +0.000 A 
ATOM     15  N   UNL     1       1.906  16.234  18.833  0.00  0.00    +0.000 NA
ATOM     16  C   UNL     1       3.118  16.191  18.258  0.00  0.00    +0.000 A 
ATOM     17  C   UNL     1       3.754  15.014  17.946  0.00  0.00    +0.000 A 
ATOM     18  C   UNL     1       3.110  13.811  18.247  0.00  0.00    +0.000 A 
ATOM     19  C   UNL     1       1.837  13.781  18.843  0.00  0.00    +0.000 A 
ATOM     20  H   UNL     1       0.257  10.256  19.907  0.00  0.00    +0.000 HD
ENDBRANCH   4   7
BRANCH   1  21
ATOM     21  C   UNL     1       2.845   4.747  18.624  0.00  0.00    +0.000 C 
BRANCH  21  23
ATOM     22  N   UNL     1       4.941   5.012  17.407  0.00  0.00    +0.000 N 
ATOM     23  C   UNL     1       4.354   4.591  18.579  0.00  0.00    +0.000 C 
ATOM     24  O   UNL     1       4.972   4.048  19.490  0.00  0.00    +0.000 OA
ATOM     25  H   UNL     1       4.425   5.636  16.802  0.00  0.00    +0.000 HD
BRANCH  22  26
ATOM     26  C   UNL     1       6.360   4.887  17.177  0.00  0.00    +0.000 C 
BRANCH  26  30
ATOM     27  C   UNL     1       8.423   8.426  18.545  0.00  0.00    +0.000 A 
ATOM     28  C   UNL     1       7.671   8.454  17.367  0.00  0.00    +0.000 A 
ATOM     29  C   UNL     1       7.032   7.297  16.911  0.00  0.00    +0.000 A 
ATOM     30  C   UNL     1       7.125   6.101  17.633  0.00  0.00    +0.000 A 
ATOM     31  C   UNL     1       7.920   6.063  18.785  0.00  0.00    +0.000 A 
ATOM     32  C   UNL     1       8.560   7.218  19.240  0.00  0.00    +0.000 A 
BRANCH  27  34
ATOM     33  C   UNL     1       8.934  10.818  18.074  0.00  0.00    +0.000 C 
ATOM     34  C   UNL     1       9.003   9.700  19.105  0.00  0.00    +0.000 C 
ENDBRANCH  27  34
ENDBRANCH  26  30
ENDBRANCH  22  26
ENDBRANCH  21  23
ENDBRANCH   1  21
TORSDOF 6
ENDMDL
