MODEL 1
REMARK VINA RESULT:      -7.5      0.000      0.000
REMARK  Name = 
REMARK  5 active torsions:
REMARK  status: ('A' for Active; 'I' for Inactive)
REMARK    1  A    between atoms: C_1  and  O_2
REMARK    2  A    between atoms: O_2  and  C_3
REMARK    3  A    between atoms: C_3  and  C_5
REMARK    4  A    between atoms: C_9  and  N_10
REMARK    5  A    between atoms: N_10  and  C_11
REMARK                            x       y       z     vdW  Elec       q    Type
REMARK                         _______ _______ _______ _____ _____    ______ ____
ROOT
ATOM      1  C   UNL     1       3.959   5.523  18.818  0.00  0.00    +0.000 A 
ATOM      2  C   UNL     1       3.683   6.407  17.780  0.00  0.00    +0.000 A 
ATOM      3  C   UNL     1       2.786   7.396  18.266  0.00  0.00    +0.000 A 
ATOM      4  C   UNL     1       2.128   8.522  17.731  0.00  0.00    +0.000 A 
ATOM      5  C   UNL     1       1.278   9.258  18.567  0.00  0.00    +0.000 A 
ATOM      6  C   UNL     1       1.172   8.835  19.900  0.00  0.00    +0.000 A 
ATOM      7  N   UNL     1       1.777   7.763  20.468  0.00  0.00    +0.000 NA
ATOM      8  C   UNL     1       2.550   7.095  19.599  0.00  0.00    +0.000 A 
ATOM      9  N   UNL     1       3.250   5.969  19.911  0.00  0.00    +0.000 N 
ATOM     10  H   UNL     1       3.243   5.531  20.822  0.00  0.00    +0.000 HD
ENDROOT
BRANCH   1  11
ATOM     11  C   UNL     1       4.781   4.343  18.893  0.00  0.00    +0.000 C 
ATOM     12  O   UNL     1       5.934   4.334  19.304  0.00  0.00    +0.000 OA
BRANCH  11  14
ATOM     13  C   UNL     1       3.673   2.373  19.481  0.00  0.00    +0.000 C 
ATOM     14  O   UNL     1       4.099   3.257  18.442  0.00  0.00    +0.000 OA
ENDBRANCH  11  14
ENDBRANCH   1  11
BRANCH   5  15
ATOM     15  N   UNL     1       0.549  10.348  18.059  0.00  0.00    +0.000 N 
ATOM     16  H   UNL     1       1.045  10.937  17.398  0.00  0.00    +0.000 HD
BRANCH  15  17
ATOM     17  C   UNL     1      -0.841  10.569  18.083  0.00  0.00    +0.000 A 
ATOM     18  C   UNL     1      -1.675   9.816  17.245  0.00  0.00    +0.000 A 
ATOM     19  C   UNL     1      -3.051  10.067  17.192  0.00  0.00    +0.000 A 
ATOM     20  C   UNL     1      -3.603  11.068  17.987  0.00  0.00    +0.000 A 
ATOM     21 BR   UNL     1      -5.457  11.425  17.905  0.00  0.00    +0.000 Br
ATOM     22  C   UNL     1      -2.795  11.815  18.837  0.00  0.00    +0.000 A 
ATOM     23  C   UNL     1      -1.422  11.564  18.881  0.00  0.00    +0.000 A 
ENDBRANCH  15  17
ENDBRANCH   5  15
TORSDOF 4
ENDMDL
MODEL 2
REMARK VINA RESULT:      -7.5      0.414      1.131
REMARK  Name = 
REMARK  5 active torsions:
REMARK  status: ('A' for Active; 'I' for Inactive)
REMARK    1  A    between atoms: C_1  and  O_2
REMARK    2  A    between atoms: O_2  and  C_3
REMARK    3  A    between atoms: C_3  and  C_5
REMARK    4  A    between atoms: C_9  and  N_10
REMARK    5  A    between atoms: N_10  and  C_11
REMARK                            x       y       z     vdW  Elec       q    Type
REMARK                         _______ _______ _______ _____ _____    ______ ____
ROOT
ATOM      1  C   UNL     1       3.771   5.453  19.006  0.00  0.00    +0.000 A 
ATOM      2  C   UNL     1       3.523   6.303  17.933  0.00  0.00    +0.000 A 
ATOM      3  C   UNL     1       2.665   7.343  18.378  0.00  0.00    +0.000 A 
ATOM      4  C   UNL     1       2.046   8.468  17.798  0.00  0.00    +0.000 A 
ATOM      5  C   UNL     1       1.225   9.268  18.604  0.00  0.00    +0.000 A 
ATOM      6  C   UNL     1       1.109   8.906  19.954  0.00  0.00    +0.000 A 
ATOM      7  N   UNL     1       1.676   7.836  20.566  0.00  0.00    +0.000 NA
ATOM      8  C   UNL     1       2.422   7.106  19.724  0.00  0.00    +0.000 A 
ATOM      9  N   UNL     1       3.082   5.970  20.081  0.00  0.00    +0.000 N 
ATOM     10  H   UNL     1       3.062   5.570  21.009  0.00  0.00    +0.000 HD
ENDROOT
BRANCH   1  11
ATOM     11  C   UNL     1       4.550   4.249  19.129  0.00  0.00    +0.000 C 
ATOM     12  O   UNL     1       5.773   4.214  19.084  0.00  0.00    +0.000 OA
BRANCH  11  14
ATOM     13  C   UNL     1       3.347   2.551  18.068  0.00  0.00    +0.000 C 
ATOM     14  O   UNL     1       3.739   3.170  19.295  0.00  0.00    +0.000 OA
ENDBRANCH  11  14
ENDBRANCH   1  11
BRANCH   5  15
ATOM     15  N   UNL     1       0.535  10.363  18.053  0.00  0.00    +0.000 N 
ATOM     16  H   UNL     1       1.074  10.949  17.424  0.00  0.00    +0.000 HD
BRANCH  15  17
ATOM     17  C   UNL     1      -0.854  10.591  17.991  0.00  0.00    +0.000 A 
ATOM     18  C   UNL     1      -1.427  11.585  18.795  0.00  0.00    +0.000 A 
ATOM     19  C   UNL     1      -2.812  11.782  18.811  0.00  0.00    +0.000 A 
ATOM     20  C   UNL     1      -3.633  10.989  18.012  0.00  0.00    +0.000 A 
ATOM     21 BR   UNL     1      -5.506  11.236  18.044  0.00  0.00    +0.000 Br
ATOM     22  C   UNL     1      -3.082  10.008  17.195  0.00  0.00    +0.000 A 
ATOM     23  C   UNL     1      -1.700   9.813  17.188  0.00  0.00    +0.000 A 
ENDBRANCH  15  17
ENDBRANCH   5  15
TORSDOF 4
ENDMDL
MODEL 3
REMARK VINA RESULT:      -7.4      0.572      1.598
REMARK  Name = 
REMARK  5 active torsions:
REMARK  status: ('A' for Active; 'I' for Inactive)
REMARK    1  A    between atoms: C_1  and  O_2
REMARK    2  A    between atoms: O_2  and  C_3
REMARK    3  A    between atoms: C_3  and  C_5
REMARK    4  A    between atoms: C_9  and  N_10
REMARK    5  A    between atoms: N_10  and  C_11
REMARK                            x       y       z     vdW  Elec       q    Type
REMARK                         _______ _______ _______ _____ _____    ______ ____
ROOT
ATOM      1  C   UNL     1       3.811   5.658  18.740  0.00  0.00    +0.000 A 
ATOM      2  C   UNL     1       3.525   6.578  17.736  0.00  0.00    +0.000 A 
ATOM      3  C   UNL     1       2.655   7.566  18.271  0.00  0.00    +0.000 A 
ATOM      4  C   UNL     1       2.003   8.716  17.786  0.00  0.00    +0.000 A 
ATOM      5  C   UNL     1       1.183   9.439  18.663  0.00  0.00    +0.000 A 
ATOM      6  C   UNL     1       1.100   8.977  19.985  0.00  0.00    +0.000 A 
ATOM      7  N   UNL     1       1.700   7.878  20.506  0.00  0.00    +0.000 NA
ATOM      8  C   UNL     1       2.444   7.226  19.600  0.00  0.00    +0.000 A 
ATOM      9  N   UNL     1       3.133   6.081  19.861  0.00  0.00    +0.000 N 
ATOM     10  H   UNL     1       3.139   5.615  20.758  0.00  0.00    +0.000 HD
ENDROOT
BRANCH   1  11
ATOM     11  C   UNL     1       4.616   4.465  18.760  0.00  0.00    +0.000 C 
ATOM     12  O   UNL     1       4.324   3.430  18.175  0.00  0.00    +0.000 OA
BRANCH  11  14
ATOM     13  C   UNL     1       6.728   5.453  18.882  0.00  0.00    +0.000 C 
ATOM     14  O   UNL     1       5.729   4.653  19.517  0.00  0.00    +0.000 OA
ENDBRANCH  11  14
ENDBRANCH   1  11
BRANCH   5  15
ATOM     15  N   UNL     1       0.460  10.555  18.205  0.00  0.00    +0.000 N 
ATOM     16  H   UNL     1       0.995  11.236  17.676  0.00  0.00    +0.000 HD
BRANCH  15  17
ATOM     17  C   UNL     1      -0.934  10.722  18.099  0.00  0.00    +0.000 A 
ATOM     18  C   UNL     1      -1.574  11.698  18.874  0.00  0.00    +0.000 A 
ATOM     19  C   UNL     1      -2.966  11.834  18.846  0.00  0.00    +0.000 A 
ATOM     20  C   UNL     1      -3.728  10.999  18.032  0.00  0.00    +0.000 A 
ATOM     21 BR   UNL     1      -5.609  11.165  18.004  0.00  0.00    +0.000 Br
ATOM     22  C   UNL     1      -3.110  10.035  17.242  0.00  0.00    +0.000 A 
ATOM     23  C   UNL     1      -1.720   9.901  17.279  0.00  0.00    +0.000 A 
ENDBRANCH  15  17
ENDBRANCH   5  15
TORSDOF 4
ENDMDL
MODEL 4
REMARK VINA RESULT:      -7.2      3.277      4.798
REMARK  Name = 
REMARK  5 active torsions:
REMARK  status: ('A' for Active; 'I' for Inactive)
REMARK    1  A    between atoms: C_1  and  O_2
REMARK    2  A    between atoms: O_2  and  C_3
REMARK    3  A    between atoms: C_3  and  C_5
REMARK    4  A    between atoms: C_9  and  N_10
REMARK    5  A    between atoms: N_10  and  C_11
REMARK                            x       y       z     vdW  Elec       q    Type
REMARK                         _______ _______ _______ _____ _____    ______ ____
ROOT
ATOM      1  C   UNL     1       6.019   5.005  15.435  0.00  0.00    +0.000 A 
ATOM      2  C   UNL     1       5.224   6.087  15.802  0.00  0.00    +0.000 A 
ATOM      3  C   UNL     1       4.693   5.831  17.095  0.00  0.00    +0.000 A 
ATOM      4  C   UNL     1       3.831   6.496  17.989  0.00  0.00    +0.000 A 
ATOM      5  C   UNL     1       3.526   5.876  19.208  0.00  0.00    +0.000 A 
ATOM      6  C   UNL     1       4.139   4.641  19.466  0.00  0.00    +0.000 A 
ATOM      7  N   UNL     1       4.972   3.955  18.645  0.00  0.00    +0.000 NA
ATOM      8  C   UNL     1       5.193   4.598  17.490  0.00  0.00    +0.000 A 
ATOM      9  N   UNL     1       5.974   4.114  16.485  0.00  0.00    +0.000 N 
ATOM     10  H   UNL     1       6.451   3.224  16.517  0.00  0.00    +0.000 HD
ENDROOT
BRANCH   1  11
ATOM     11  C   UNL     1       6.782   4.722  14.249  0.00  0.00    +0.000 C 
ATOM     12  O   UNL     1       7.769   5.356  13.898  0.00  0.00    +0.000 OA
BRANCH  11  14
ATOM     13  C   UNL     1       6.629   3.603  12.204  0.00  0.00    +0.000 C 
ATOM     14  O   UNL     1       6.250   3.663  13.580  0.00  0.00    +0.000 OA
ENDBRANCH  11  14
ENDBRANCH   1  11
BRANCH   5  15
ATOM     15  N   UNL     1       2.619   6.472  20.102  0.00  0.00    +0.000 N 
ATOM     16  H   UNL     1       2.626   6.101  21.046  0.00  0.00    +0.000 HD
BRANCH  15  17
ATOM     17  C   UNL     1       1.931   7.695  19.979  0.00  0.00    +0.000 A 
ATOM     18  C   UNL     1       1.216   8.199  21.074  0.00  0.00    +0.000 A 
ATOM     19  C   UNL     1       0.462   9.372  20.957  0.00  0.00    +0.000 A 
ATOM     20  C   UNL     1       0.427  10.054  19.743  0.00  0.00    +0.000 A 
ATOM     21 BR   UNL     1      -0.605  11.628  19.573  0.00  0.00    +0.000 Br
ATOM     22  C   UNL     1       1.144   9.580  18.650  0.00  0.00    +0.000 A 
ATOM     23  C   UNL     1       1.889   8.405  18.772  0.00  0.00    +0.000 A 
ENDBRANCH  15  17
ENDBRANCH   5  15
TORSDOF 4
ENDMDL
MODEL 5
REMARK VINA RESULT:      -7.1      3.504      5.065
REMARK  Name = 
REMARK  5 active torsions:
REMARK  status: ('A' for Active; 'I' for Inactive)
REMARK    1  A    between atoms: C_1  and  O_2
REMARK    2  A    between atoms: O_2  and  C_3
REMARK    3  A    between atoms: C_3  and  C_5
REMARK    4  A    between atoms: C_9  and  N_10
REMARK    5  A    between atoms: N_10  and  C_11
REMARK                            x       y       z     vdW  Elec       q    Type
REMARK                         _______ _______ _______ _____ _____    ______ ____
ROOT
ATOM      1  C   UNL     1       6.406   5.082  15.224  0.00  0.00    +0.000 A 
ATOM      2  C   UNL     1       5.209   5.754  15.454  0.00  0.00    +0.000 A 
ATOM      3  C   UNL     1       4.915   5.677  16.842  0.00  0.00    +0.000 A 
ATOM      4  C   UNL     1       3.877   6.118  17.686  0.00  0.00    +0.000 A 
ATOM      5  C   UNL     1       3.951   5.812  19.051  0.00  0.00    +0.000 A 
ATOM      6  C   UNL     1       5.086   5.111  19.487  0.00  0.00    +0.000 A 
ATOM      7  N   UNL     1       6.111   4.660  18.722  0.00  0.00    +0.000 NA
ATOM      8  C   UNL     1       5.954   4.967  17.427  0.00  0.00    +0.000 A 
ATOM      9  N   UNL     1       6.830   4.612  16.448  0.00  0.00    +0.000 N 
ATOM     10  H   UNL     1       7.673   4.077  16.607  0.00  0.00    +0.000 HD
ENDROOT
BRANCH   1  11
ATOM     11  C   UNL     1       7.164   4.835  14.026  0.00  0.00    +0.000 C 
ATOM     12  O   UNL     1       8.167   5.461  13.706  0.00  0.00    +0.000 OA
BRANCH  11  14
ATOM     13  C   UNL     1       6.970   3.830  11.927  0.00  0.00    +0.000 C 
ATOM     14  O   UNL     1       6.607   3.823  13.309  0.00  0.00    +0.000 OA
ENDBRANCH  11  14
ENDBRANCH   1  11
BRANCH   5  15
ATOM     15  N   UNL     1       2.906   6.174  19.921  0.00  0.00    +0.000 N 
ATOM     16  H   UNL     1       2.867   5.663  20.796  0.00  0.00    +0.000 HD
BRANCH  15  17
ATOM     17  C   UNL     1       2.106   7.333  19.904  0.00  0.00    +0.000 A 
ATOM     18  C   UNL     1       2.058   8.122  18.747  0.00  0.00    +0.000 A 
ATOM     19  C   UNL     1       1.332   9.318  18.727  0.00  0.00    +0.000 A 
ATOM     20  C   UNL     1       0.640   9.727  19.865  0.00  0.00    +0.000 A 
ATOM     21 BR   UNL     1      -0.327  11.351  19.850  0.00  0.00    +0.000 Br
ATOM     22  C   UNL     1       0.661   8.949  21.017  0.00  0.00    +0.000 A 
ATOM     23  C   UNL     1       1.392   7.760  21.032  0.00  0.00    +0.000 A 
ENDBRANCH  15  17
ENDBRANCH   5  15
TORSDOF 4
ENDMDL
MODEL 6
REMARK VINA RESULT:      -6.8      5.074      8.139
REMARK  Name = 
REMARK  5 active torsions:
REMARK  status: ('A' for Active; 'I' for Inactive)
REMARK    1  A    between atoms: C_1  and  O_2
REMARK    2  A    between atoms: O_2  and  C_3
REMARK    3  A    between atoms: C_3  and  C_5
REMARK    4  A    between atoms: C_9  and  N_10
REMARK    5  A    between atoms: N_10  and  C_11
REMARK                            x       y       z     vdW  Elec       q    Type
REMARK                         _______ _______ _______ _____ _____    ______ ____
ROOT
ATOM      1  C   UNL     1       1.500   7.829  20.473  0.00  0.00    +0.000 A 
ATOM      2  C   UNL     1       2.271   7.742  19.318  0.00  0.00    +0.000 A 
ATOM      3  C   UNL     1       2.803   6.427  19.236  0.00  0.00    +0.000 A 
ATOM      4  C   UNL     1       3.649   5.726  18.353  0.00  0.00    +0.000 A 
ATOM      5  C   UNL     1       3.962   4.392  18.647  0.00  0.00    +0.000 A 
ATOM      6  C   UNL     1       3.374   3.837  19.792  0.00  0.00    +0.000 A 
ATOM      7  N   UNL     1       2.558   4.461  20.677  0.00  0.00    +0.000 NA
ATOM      8  C   UNL     1       2.328   5.740  20.344  0.00  0.00    +0.000 A 
ATOM      9  N   UNL     1       1.560   6.592  21.076  0.00  0.00    +0.000 N 
ATOM     10  H   UNL     1       1.101   6.341  21.941  0.00  0.00    +0.000 HD
ENDROOT
BRANCH   1  11
ATOM     11  C   UNL     1       0.747   8.908  21.056  0.00  0.00    +0.000 C 
ATOM     12  O   UNL     1      -0.003   9.642  20.425  0.00  0.00    +0.000 OA
BRANCH  11  14
ATOM     13  C   UNL     1      -0.063   9.614  23.130  0.00  0.00    +0.000 C 
ATOM     14  O   UNL     1       0.991   8.993  22.391  0.00  0.00    +0.000 OA
ENDBRANCH  11  14
ENDBRANCH   1  11
BRANCH   5  15
ATOM     15  N   UNL     1       4.854   3.674  17.830  0.00  0.00    +0.000 N 
ATOM     16  H   UNL     1       4.836   2.667  17.942  0.00  0.00    +0.000 HD
BRANCH  15  17
ATOM     17  C   UNL     1       5.536   4.105  16.675  0.00  0.00    +0.000 A 
ATOM     18  C   UNL     1       4.919   3.982  15.423  0.00  0.00    +0.000 A 
ATOM     19  C   UNL     1       5.602   4.330  14.252  0.00  0.00    +0.000 A 
ATOM     20  C   UNL     1       6.906   4.814  14.329  0.00  0.00    +0.000 A 
ATOM     21 BR   UNL     1       7.840   5.268  12.751  0.00  0.00    +0.000 Br
ATOM     22  C   UNL     1       7.529   4.960  15.564  0.00  0.00    +0.000 A 
ATOM     23  C   UNL     1       6.844   4.605  16.728  0.00  0.00    +0.000 A 
ENDBRANCH  15  17
ENDBRANCH   5  15
TORSDOF 4
ENDMDL
MODEL 7
REMARK VINA RESULT:      -6.8      0.905      1.331
REMARK  Name = 
REMARK  5 active torsions:
REMARK  status: ('A' for Active; 'I' for Inactive)
REMARK    1  A    between atoms: C_1  and  O_2
REMARK    2  A    between atoms: O_2  and  C_3
REMARK    3  A    between atoms: C_3  and  C_5
REMARK    4  A    between atoms: C_9  and  N_10
REMARK    5  A    between atoms: N_10  and  C_11
REMARK                            x       y       z     vdW  Elec       q    Type
REMARK                         _______ _______ _______ _____ _____    ______ ____
ROOT
ATOM      1  C   UNL     1       4.068   5.709  18.051  0.00  0.00    +0.000 A 
ATOM      2  C   UNL     1       3.775   6.832  17.285  0.00  0.00    +0.000 A 
ATOM      3  C   UNL     1       2.891   7.660  18.028  0.00  0.00    +0.000 A 
ATOM      4  C   UNL     1       2.227   8.885  17.817  0.00  0.00    +0.000 A 
ATOM      5  C   UNL     1       1.396   9.376  18.832  0.00  0.00    +0.000 A 
ATOM      6  C   UNL     1       1.314   8.621  20.011  0.00  0.00    +0.000 A 
ATOM      7  N   UNL     1       1.925   7.438  20.269  0.00  0.00    +0.000 NA
ATOM      8  C   UNL     1       2.679   7.021  19.242  0.00  0.00    +0.000 A 
ATOM      9  N   UNL     1       3.381   5.854  19.236  0.00  0.00    +0.000 N 
ATOM     10  H   UNL     1       3.390   5.194  20.001  0.00  0.00    +0.000 HD
ENDROOT
BRANCH   1  11
ATOM     11  C   UNL     1       4.887   4.552  17.801  0.00  0.00    +0.000 C 
ATOM     12  O   UNL     1       4.724   3.785  16.860  0.00  0.00    +0.000 OA
BRANCH  11  14
ATOM     13  C   UNL     1       7.035   5.182  18.467  0.00  0.00    +0.000 C 
ATOM     14  O   UNL     1       5.851   4.435  18.752  0.00  0.00    +0.000 OA
ENDBRANCH  11  14
ENDBRANCH   1  11
BRANCH   5  15
ATOM     15  N   UNL     1       0.662  10.561  18.639  0.00  0.00    +0.000 N 
ATOM     16  H   UNL     1       1.205  11.373  18.370  0.00  0.00    +0.000 HD
BRANCH  15  17
ATOM     17  C   UNL     1      -0.726  10.720  18.459  0.00  0.00    +0.000 A 
ATOM     18  C   UNL     1      -1.411   9.866  17.584  0.00  0.00    +0.000 A 
ATOM     19  C   UNL     1      -2.775  10.049  17.327  0.00  0.00    +0.000 A 
ATOM     20  C   UNL     1      -3.464  11.085  17.954  0.00  0.00    +0.000 A 
ATOM     21 BR   UNL     1      -5.300  11.350  17.596  0.00  0.00    +0.000 Br
ATOM     22  C   UNL     1      -2.806  11.932  18.838  0.00  0.00    +0.000 A 
ATOM     23  C   UNL     1      -1.444  11.748  19.086  0.00  0.00    +0.000 A 
ENDBRANCH  15  17
ENDBRANCH   5  15
TORSDOF 4
ENDMDL
MODEL 8
REMARK VINA RESULT:      -6.7      4.950      8.175
REMARK  Name = 
REMARK  5 active torsions:
REMARK  status: ('A' for Active; 'I' for Inactive)
REMARK    1  A    between atoms: C_1  and  O_2
REMARK    2  A    between atoms: O_2  and  C_3
REMARK    3  A    between atoms: C_3  and  C_5
REMARK    4  A    between atoms: C_9  and  N_10
REMARK    5  A    between atoms: N_10  and  C_11
REMARK                            x       y       z     vdW  Elec       q    Type
REMARK                         _______ _______ _______ _____ _____    ______ ____
ROOT
ATOM      1  C   UNL     1       1.565   8.106  20.027  0.00  0.00    +0.000 A 
ATOM      2  C   UNL     1       2.310   7.892  18.872  0.00  0.00    +0.000 A 
ATOM      3  C   UNL     1       2.855   6.582  18.930  0.00  0.00    +0.000 A 
ATOM      4  C   UNL     1       3.687   5.790  18.114  0.00  0.00    +0.000 A 
ATOM      5  C   UNL     1       4.022   4.502  18.552  0.00  0.00    +0.000 A 
ATOM      6  C   UNL     1       3.467   4.078  19.768  0.00  0.00    +0.000 A 
ATOM      7  N   UNL     1       2.665   4.794  20.595  0.00  0.00    +0.000 NA
ATOM      8  C   UNL     1       2.413   6.023  20.121  0.00  0.00    +0.000 A 
ATOM      9  N   UNL     1       1.653   6.948  20.768  0.00  0.00    +0.000 N 
ATOM     10  H   UNL     1       1.217   6.796  21.667  0.00  0.00    +0.000 HD
ENDROOT
BRANCH   1  11
ATOM     11  C   UNL     1       0.814   9.239  20.500  0.00  0.00    +0.000 C 
ATOM     12  O   UNL     1       1.017  10.394  20.147  0.00  0.00    +0.000 OA
BRANCH  11  14
ATOM     13  C   UNL     1      -0.066   9.513  22.646  0.00  0.00    +0.000 C 
ATOM     14  O   UNL     1      -0.139   8.844  21.386  0.00  0.00    +0.000 OA
ENDBRANCH  11  14
ENDBRANCH   1  11
BRANCH   5  15
ATOM     15  N   UNL     1       4.904   3.702  17.803  0.00  0.00    +0.000 N 
ATOM     16  H   UNL     1       4.861   2.707  17.994  0.00  0.00    +0.000 HD
BRANCH  15  17
ATOM     17  C   UNL     1       5.604   4.024  16.624  0.00  0.00    +0.000 A 
ATOM     18  C   UNL     1       6.883   4.589  16.714  0.00  0.00    +0.000 A 
ATOM     19  C   UNL     1       7.570   4.989  15.562  0.00  0.00    +0.000 A 
ATOM     20  C   UNL     1       6.983   4.818  14.311  0.00  0.00    +0.000 A 
ATOM     21 BR   UNL     1       7.897   5.375  12.754  0.00  0.00    +0.000 Br
ATOM     22  C   UNL     1       5.721   4.244  14.200  0.00  0.00    +0.000 A 
ATOM     23  C   UNL     1       5.039   3.852  15.353  0.00  0.00    +0.000 A 
ENDBRANCH  15  17
ENDBRANCH   5  15
TORSDOF 4
ENDMDL
MODEL 9
REMARK VINA RESULT:      -6.7      2.790      3.369
REMARK  Name = 
REMARK  5 active torsions:
REMARK  status: ('A' for Active; 'I' for Inactive)
REMARK    1  A    between atoms: C_1  and  O_2
REMARK    2  A    between atoms: O_2  and  C_3
REMARK    3  A    between atoms: C_3  and  C_5
REMARK    4  A    between atoms: C_9  and  N_10
REMARK    5  A    between atoms: N_10  and  C_11
REMARK                            x       y       z     vdW  Elec       q    Type
REMARK                         _______ _______ _______ _____ _____    ______ ____
ROOT
ATOM      1  C   UNL     1       3.737   5.403  18.717  0.00  0.00    +0.000 A 
ATOM      2  C   UNL     1       3.567   6.368  17.730  0.00  0.00    +0.000 A 
ATOM      3  C   UNL     1       2.760   7.410  18.260  0.00  0.00    +0.000 A 
ATOM      4  C   UNL     1       2.223   8.623  17.784  0.00  0.00    +0.000 A 
ATOM      5  C   UNL     1       1.431   9.388  18.651  0.00  0.00    +0.000 A 
ATOM      6  C   UNL     1       1.259   8.901  19.955  0.00  0.00    +0.000 A 
ATOM      7  N   UNL     1       1.747   7.743  20.466  0.00  0.00    +0.000 NA
ATOM      8  C   UNL     1       2.470   7.056  19.570  0.00  0.00    +0.000 A 
ATOM      9  N   UNL     1       3.052   5.852  19.824  0.00  0.00    +0.000 N 
ATOM     10  H   UNL     1       2.986   5.364  20.707  0.00  0.00    +0.000 HD
ENDROOT
BRANCH   1  11
ATOM     11  C   UNL     1       4.441   4.147  18.733  0.00  0.00    +0.000 C 
ATOM     12  O   UNL     1       5.447   3.931  19.396  0.00  0.00    +0.000 OA
BRANCH  11  14
ATOM     13  C   UNL     1       3.308   2.110  18.592  0.00  0.00    +0.000 C 
ATOM     14  O   UNL     1       3.834   3.250  17.910  0.00  0.00    +0.000 OA
ENDBRANCH  11  14
ENDBRANCH   1  11
BRANCH   5  15
ATOM     15  N   UNL     1       0.820  10.571  18.198  0.00  0.00    +0.000 N 
ATOM     16  H   UNL     1      -0.125  10.469  17.845  0.00  0.00    +0.000 HD
BRANCH  15  17
ATOM     17  C   UNL     1       1.193  11.907  18.445  0.00  0.00    +0.000 A 
ATOM     18  C   UNL     1       0.243  12.807  18.947  0.00  0.00    +0.000 A 
ATOM     19  C   UNL     1       0.564  14.157  19.129  0.00  0.00    +0.000 A 
ATOM     20  C   UNL     1       1.843  14.613  18.818  0.00  0.00    +0.000 A 
ATOM     21 BR   UNL     1       2.276  16.438  19.043  0.00  0.00    +0.000 Br
ATOM     22  C   UNL     1       2.804  13.732  18.334  0.00  0.00    +0.000 A 
ATOM     23  C   UNL     1       2.476  12.387  18.149  0.00  0.00    +0.000 A 
ENDBRANCH  15  17
ENDBRANCH   5  15
TORSDOF 4
ENDMDL
