MODEL 1
REMARK VINA RESULT:      -8.4      0.000      0.000
REMARK  Name = 
REMARK  8 active torsions:
REMARK  status: ('A' for Active; 'I' for Inactive)
REMARK    1  A    between atoms: C_1  and  C_2
REMARK    2  A    between atoms: C_5  and  O_6
REMARK    3  A    between atoms: O_6  and  C_7
REMARK    4  A    between atoms: C_7  and  C_8
REMARK    5  A    between atoms: C_8  and  C_9
REMARK    6  A    between atoms: C_9  and  C_10
REMARK    7  A    between atoms: N_15  and  S_16
REMARK    8  A    between atoms: S_16  and  C_19
REMARK                            x       y       z     vdW  Elec       q    Type
REMARK                         _______ _______ _______ _____ _____    ______ ____
ROOT
ATOM      1  C   UNL     1       3.874   2.486  19.147  0.00  0.00    +0.000 C 
ATOM      2  O   UNL     1       3.467   1.452  18.616  0.00  0.00    +0.000 OA
ATOM      3  N   UNL     1       4.527   3.463  18.418  0.00  0.00    +0.000 N 
ATOM      4  C   UNL     1       4.679   3.230  16.978  0.00  0.00    +0.000 C 
ATOM      5  C   UNL     1       4.562   4.533  16.206  0.00  0.00    +0.000 C 
ATOM      6  N   UNL     1       5.555   5.551  16.679  0.00  0.00    +0.000 NA
ATOM      7  C   UNL     1       5.314   5.813  18.142  0.00  0.00    +0.000 C 
ATOM      8  C   UNL     1       5.388   4.523  18.977  0.00  0.00    +0.000 C 
ENDROOT
BRANCH   6   9
ATOM      9  S   UNL     1       7.193   5.283  16.230  0.00  0.00    +0.000 S 
ATOM     10  O   UNL     1       7.903   6.542  16.385  0.00  0.00    +0.000 OA
ATOM     11  O   UNL     1       7.657   4.091  16.899  0.00  0.00    +0.000 OA
BRANCH   9  12
ATOM     12  C   UNL     1       7.072   4.926  14.489  0.00  0.00    +0.000 A 
ATOM     13  C   UNL     1       7.855   5.637  13.576  0.00  0.00    +0.000 A 
ATOM     14  C   UNL     1       7.810   5.314  12.213  0.00  0.00    +0.000 A 
ATOM     15  C   UNL     1       7.003   4.262  11.783  0.00  0.00    +0.000 A 
ATOM     16  C   UNL     1       6.251   3.542  12.706  0.00  0.00    +0.000 A 
ATOM     17  F   UNL     1       5.518   2.502  12.288  0.00  0.00    +0.000 F 
ATOM     18  C   UNL     1       6.261   3.870  14.062  0.00  0.00    +0.000 A 
ENDBRANCH   9  12
ENDBRANCH   6   9
BRANCH   1  19
ATOM     19  C   UNL     1       3.566   2.777  20.605  0.00  0.00    +0.000 C 
BRANCH  19  20
ATOM     20  C   UNL     1       2.097   2.551  20.935  0.00  0.00    +0.000 C 
BRANCH  20  21
ATOM     21  C   UNL     1       1.246   3.757  20.537  0.00  0.00    +0.000 C 
BRANCH  21  22
ATOM     22  O   UNL     1       1.868   4.932  21.054  0.00  0.00    +0.000 OA
BRANCH  22  27
ATOM     23  C   UNL     1       1.888   9.654  17.908  0.00  0.00    +0.000 C 
ATOM     24  C   UNL     1       1.873   8.393  18.721  0.00  0.00    +0.000 A 
ATOM     25  C   UNL     1       1.631   8.422  20.098  0.00  0.00    +0.000 A 
ATOM     26  C   UNL     1       1.638   7.240  20.839  0.00  0.00    +0.000 A 
ATOM     27  C   UNL     1       1.868   6.012  20.216  0.00  0.00    +0.000 A 
ATOM     28  C   UNL     1       2.118   5.978  18.844  0.00  0.00    +0.000 A 
ATOM     29  C   UNL     1       2.119   7.163  18.101  0.00  0.00    +0.000 A 
ENDBRANCH  22  27
ENDBRANCH  21  22
ENDBRANCH  20  21
ENDBRANCH  19  20
ENDBRANCH   1  19
TORSDOF 7
ENDMDL
MODEL 2
REMARK VINA RESULT:      -8.2      1.361      2.083
REMARK  Name = 
REMARK  8 active torsions:
REMARK  status: ('A' for Active; 'I' for Inactive)
REMARK    1  A    between atoms: C_1  and  C_2
REMARK    2  A    between atoms: C_5  and  O_6
REMARK    3  A    between atoms: O_6  and  C_7
REMARK    4  A    between atoms: C_7  and  C_8
REMARK    5  A    between atoms: C_8  and  C_9
REMARK    6  A    between atoms: C_9  and  C_10
REMARK    7  A    between atoms: N_15  and  S_16
REMARK    8  A    between atoms: S_16  and  C_19
REMARK                            x       y       z     vdW  Elec       q    Type
REMARK                         _______ _______ _______ _____ _____    ______ ____
ROOT
ATOM      1  C   UNL     1       3.215   3.610  19.793  0.00  0.00    +0.000 C 
ATOM      2  O   UNL     1       2.925   2.415  19.732  0.00  0.00    +0.000 OA
ATOM      3  N   UNL     1       3.884   4.245  18.763  0.00  0.00    +0.000 N 
ATOM      4  C   UNL     1       4.200   3.441  17.578  0.00  0.00    +0.000 C 
ATOM      5  C   UNL     1       4.091   4.276  16.315  0.00  0.00    +0.000 C 
ATOM      6  N   UNL     1       4.970   5.489  16.372  0.00  0.00    +0.000 NA
ATOM      7  C   UNL     1       4.562   6.321  17.558  0.00  0.00    +0.000 C 
ATOM      8  C   UNL     1       4.621   5.520  18.871  0.00  0.00    +0.000 C 
ENDROOT
BRANCH   6   9
ATOM      9  S   UNL     1       6.658   5.215  16.199  0.00  0.00    +0.000 S 
ATOM     10  O   UNL     1       7.337   6.471  16.473  0.00  0.00    +0.000 OA
ATOM     11  O   UNL     1       7.001   4.020  16.932  0.00  0.00    +0.000 OA
BRANCH   9  12
ATOM     12  C   UNL     1       6.824   4.862  14.461  0.00  0.00    +0.000 A 
ATOM     13  C   UNL     1       7.744   5.579  13.690  0.00  0.00    +0.000 A 
ATOM     14  C   UNL     1       7.923   5.260  12.337  0.00  0.00    +0.000 A 
ATOM     15  C   UNL     1       7.202   4.205  11.778  0.00  0.00    +0.000 A 
ATOM     16  C   UNL     1       6.312   3.480  12.565  0.00  0.00    +0.000 A 
ATOM     17  F   UNL     1       5.662   2.438  12.030  0.00  0.00    +0.000 F 
ATOM     18  C   UNL     1       6.099   3.804  13.905  0.00  0.00    +0.000 A 
ENDBRANCH   9  12
ENDBRANCH   6   9
BRANCH   1  19
ATOM     19  C   UNL     1       2.739   4.460  20.958  0.00  0.00    +0.000 C 
BRANCH  19  20
ATOM     20  C   UNL     1       1.496   5.267  20.608  0.00  0.00    +0.000 C 
BRANCH  20  21
ATOM     21  C   UNL     1       1.641   6.726  21.039  0.00  0.00    +0.000 C 
BRANCH  21  22
ATOM     22  O   UNL     1       2.081   7.482  19.911  0.00  0.00    +0.000 OA
BRANCH  22  27
ATOM     23  C   UNL     1      -0.685  12.245  18.549  0.00  0.00    +0.000 C 
ATOM     24  C   UNL     1       0.048  10.994  18.932  0.00  0.00    +0.000 A 
ATOM     25  C   UNL     1       0.929  10.369  18.043  0.00  0.00    +0.000 A 
ATOM     26  C   UNL     1       1.588   9.196  18.413  0.00  0.00    +0.000 A 
ATOM     27  C   UNL     1       1.393   8.640  19.678  0.00  0.00    +0.000 A 
ATOM     28  C   UNL     1       0.509   9.254  20.566  0.00  0.00    +0.000 A 
ATOM     29  C   UNL     1      -0.159  10.426  20.193  0.00  0.00    +0.000 A 
ENDBRANCH  22  27
ENDBRANCH  21  22
ENDBRANCH  20  21
ENDBRANCH  19  20
ENDBRANCH   1  19
TORSDOF 7
ENDMDL
MODEL 3
REMARK VINA RESULT:      -8.2      3.461      5.470
REMARK  Name = 
REMARK  8 active torsions:
REMARK  status: ('A' for Active; 'I' for Inactive)
REMARK    1  A    between atoms: C_1  and  C_2
REMARK    2  A    between atoms: C_5  and  O_6
REMARK    3  A    between atoms: O_6  and  C_7
REMARK    4  A    between atoms: C_7  and  C_8
REMARK    5  A    between atoms: C_8  and  C_9
REMARK    6  A    between atoms: C_9  and  C_10
REMARK    7  A    between atoms: N_15  and  S_16
REMARK    8  A    between atoms: S_16  and  C_19
REMARK                            x       y       z     vdW  Elec       q    Type
REMARK                         _______ _______ _______ _____ _____    ______ ____
ROOT
ATOM      1  C   UNL     1       1.401   8.191  20.449  0.00  0.00    +0.000 C 
ATOM      2  O   UNL     1       0.948   8.095  21.590  0.00  0.00    +0.000 OA
ATOM      3  N   UNL     1       1.983   7.111  19.811  0.00  0.00    +0.000 N 
ATOM      4  C   UNL     1       2.002   5.837  20.538  0.00  0.00    +0.000 C 
ATOM      5  C   UNL     1       1.813   4.670  19.585  0.00  0.00    +0.000 C 
ATOM      6  N   UNL     1       2.845   4.666  18.498  0.00  0.00    +0.000 NA
ATOM      7  C   UNL     1       2.740   5.958  17.732  0.00  0.00    +0.000 C 
ATOM      8  C   UNL     1       2.892   7.184  18.650  0.00  0.00    +0.000 C 
ENDROOT
BRANCH   6   9
ATOM      9  S   UNL     1       4.434   4.200  18.958  0.00  0.00    +0.000 S 
ATOM     10  O   UNL     1       4.863   5.090  20.023  0.00  0.00    +0.000 OA
ATOM     11  O   UNL     1       4.450   2.768  19.147  0.00  0.00    +0.000 OA
BRANCH   9  12
ATOM     12  C   UNL     1       5.391   4.573  17.503  0.00  0.00    +0.000 A 
ATOM     13  C   UNL     1       6.379   5.561  17.554  0.00  0.00    +0.000 A 
ATOM     14  C   UNL     1       7.177   5.812  16.430  0.00  0.00    +0.000 A 
ATOM     15  C   UNL     1       6.998   5.051  15.275  0.00  0.00    +0.000 A 
ATOM     16  C   UNL     1       6.031   4.050  15.248  0.00  0.00    +0.000 A 
ATOM     17  F   UNL     1       5.902   3.293  14.151  0.00  0.00    +0.000 F 
ATOM     18  C   UNL     1       5.208   3.808  16.347  0.00  0.00    +0.000 A 
ENDBRANCH   9  12
ENDBRANCH   6   9
BRANCH   1  19
ATOM     19  C   UNL     1       1.229   9.474  19.656  0.00  0.00    +0.000 C 
BRANCH  19  20
ATOM     20  C   UNL     1       0.659  10.600  20.507  0.00  0.00    +0.000 C 
BRANCH  20  21
ATOM     21  C   UNL     1      -0.202  11.547  19.671  0.00  0.00    +0.000 C 
BRANCH  21  22
ATOM     22  O   UNL     1      -1.548  11.076  19.710  0.00  0.00    +0.000 OA
BRANCH  22  27
ATOM     23  C   UNL     1      -3.832  10.180  14.594  0.00  0.00    +0.000 C 
ATOM     24  C   UNL     1      -3.236  10.440  15.946  0.00  0.00    +0.000 A 
ATOM     25  C   UNL     1      -2.042   9.829  16.341  0.00  0.00    +0.000 A 
ATOM     26  C   UNL     1      -1.513  10.071  17.609  0.00  0.00    +0.000 A 
ATOM     27  C   UNL     1      -2.156  10.938  18.494  0.00  0.00    +0.000 A 
ATOM     28  C   UNL     1      -3.352  11.545  18.107  0.00  0.00    +0.000 A 
ATOM     29  C   UNL     1      -3.887  11.297  16.840  0.00  0.00    +0.000 A 
ENDBRANCH  22  27
ENDBRANCH  21  22
ENDBRANCH  20  21
ENDBRANCH  19  20
ENDBRANCH   1  19
TORSDOF 7
ENDMDL
MODEL 4
REMARK VINA RESULT:      -8.0      5.757      9.931
REMARK  Name = 
REMARK  8 active torsions:
REMARK  status: ('A' for Active; 'I' for Inactive)
REMARK    1  A    between atoms: C_1  and  C_2
REMARK    2  A    between atoms: C_5  and  O_6
REMARK    3  A    between atoms: O_6  and  C_7
REMARK    4  A    between atoms: C_7  and  C_8
REMARK    5  A    between atoms: C_8  and  C_9
REMARK    6  A    between atoms: C_9  and  C_10
REMARK    7  A    between atoms: N_15  and  S_16
REMARK    8  A    between atoms: S_16  and  C_19
REMARK                            x       y       z     vdW  Elec       q    Type
REMARK                         _______ _______ _______ _____ _____    ______ ____
ROOT
ATOM      1  C   UNL     1       2.473   8.331  18.203  0.00  0.00    +0.000 C 
ATOM      2  O   UNL     1       2.645   9.019  17.196  0.00  0.00    +0.000 OA
ATOM      3  N   UNL     1       1.605   8.725  19.206  0.00  0.00    +0.000 N 
ATOM      4  C   UNL     1       0.871   9.977  19.000  0.00  0.00    +0.000 C 
ATOM      5  C   UNL     1      -0.529   9.883  19.579  0.00  0.00    +0.000 C 
ATOM      6  N   UNL     1      -0.506   9.525  21.034  0.00  0.00    +0.000 NA
ATOM      7  C   UNL     1       0.190   8.199  21.191  0.00  0.00    +0.000 C 
ATOM      8  C   UNL     1       1.608   8.219  20.593  0.00  0.00    +0.000 C 
ENDROOT
BRANCH   6   9
ATOM      9  S   UNL     1      -0.003  10.763  22.116  0.00  0.00    +0.000 S 
ATOM     10  O   UNL     1       0.234  10.146  23.410  0.00  0.00    +0.000 OA
ATOM     11  O   UNL     1       1.032  11.536  21.471  0.00  0.00    +0.000 OA
BRANCH   9  12
ATOM     12  C   UNL     1      -1.455  11.787  22.247  0.00  0.00    +0.000 A 
ATOM     13  C   UNL     1      -1.807  12.633  21.191  0.00  0.00    +0.000 A 
ATOM     14  C   UNL     1      -2.983  13.392  21.264  0.00  0.00    +0.000 A 
ATOM     15  C   UNL     1      -3.810  13.271  22.380  0.00  0.00    +0.000 A 
ATOM     16  C   UNL     1      -3.464  12.402  23.410  0.00  0.00    +0.000 A 
ATOM     17  F   UNL     1      -4.291  12.257  24.453  0.00  0.00    +0.000 F 
ATOM     18  C   UNL     1      -2.282  11.663  23.367  0.00  0.00    +0.000 A 
ENDBRANCH   9  12
ENDBRANCH   6   9
BRANCH   1  19
ATOM     19  C   UNL     1       3.121   6.964  18.323  0.00  0.00    +0.000 C 
BRANCH  19  20
ATOM     20  C   UNL     1       3.900   6.588  17.070  0.00  0.00    +0.000 C 
BRANCH  20  21
ATOM     21  C   UNL     1       4.447   5.163  17.162  0.00  0.00    +0.000 C 
BRANCH  21  22
ATOM     22  O   UNL     1       3.343   4.260  17.139  0.00  0.00    +0.000 OA
BRANCH  22  27
ATOM     23  C   UNL     1       1.262   2.348  22.059  0.00  0.00    +0.000 C 
ATOM     24  C   UNL     1       1.831   2.863  20.770  0.00  0.00    +0.000 A 
ATOM     25  C   UNL     1       1.002   3.343  19.752  0.00  0.00    +0.000 A 
ATOM     26  C   UNL     1       1.550   3.802  18.554  0.00  0.00    +0.000 A 
ATOM     27  C   UNL     1       2.933   3.805  18.361  0.00  0.00    +0.000 A 
ATOM     28  C   UNL     1       3.765   3.319  19.370  0.00  0.00    +0.000 A 
ATOM     29  C   UNL     1       3.215   2.851  20.568  0.00  0.00    +0.000 A 
ENDBRANCH  22  27
ENDBRANCH  21  22
ENDBRANCH  20  21
ENDBRANCH  19  20
ENDBRANCH   1  19
TORSDOF 7
ENDMDL
MODEL 5
REMARK VINA RESULT:      -7.9      5.749      9.678
REMARK  Name = 
REMARK  8 active torsions:
REMARK  status: ('A' for Active; 'I' for Inactive)
REMARK    1  A    between atoms: C_1  and  C_2
REMARK    2  A    between atoms: C_5  and  O_6
REMARK    3  A    between atoms: O_6  and  C_7
REMARK    4  A    between atoms: C_7  and  C_8
REMARK    5  A    between atoms: C_8  and  C_9
REMARK    6  A    between atoms: C_9  and  C_10
REMARK    7  A    between atoms: N_15  and  S_16
REMARK    8  A    between atoms: S_16  and  C_19
REMARK                            x       y       z     vdW  Elec       q    Type
REMARK                         _______ _______ _______ _____ _____    ______ ____
ROOT
ATOM      1  C   UNL     1       2.458   7.485  18.897  0.00  0.00    +0.000 C 
ATOM      2  O   UNL     1       3.088   7.621  17.848  0.00  0.00    +0.000 OA
ATOM      3  N   UNL     1       1.582   8.458  19.344  0.00  0.00    +0.000 N 
ATOM      4  C   UNL     1       1.409   9.640  18.494  0.00  0.00    +0.000 C 
ATOM      5  C   UNL     1      -0.026  10.133  18.544  0.00  0.00    +0.000 C 
ATOM      6  N   UNL     1      -0.465  10.429  19.946  0.00  0.00    +0.000 NA
ATOM      7  C   UNL     1      -0.341   9.171  20.763  0.00  0.00    +0.000 C 
ATOM      8  C   UNL     1       1.089   8.601  20.728  0.00  0.00    +0.000 C 
ENDROOT
BRANCH   6   9
ATOM      9  S   UNL     1       0.184  11.850  20.664  0.00  0.00    +0.000 S 
ATOM     10  O   UNL     1       1.113  11.435  21.701  0.00  0.00    +0.000 OA
ATOM     11  O   UNL     1       0.610  12.737  19.608  0.00  0.00    +0.000 OA
BRANCH   9  12
ATOM     12  C   UNL     1      -1.238  12.578  21.453  0.00  0.00    +0.000 A 
ATOM     13  C   UNL     1      -1.860  13.690  20.879  0.00  0.00    +0.000 A 
ATOM     14  C   UNL     1      -3.016  14.225  21.462  0.00  0.00    +0.000 A 
ATOM     15  C   UNL     1      -3.556  13.621  22.597  0.00  0.00    +0.000 A 
ATOM     16  C   UNL     1      -2.944  12.496  23.142  0.00  0.00    +0.000 A 
ATOM     17  F   UNL     1      -3.499  11.895  24.202  0.00  0.00    +0.000 F 
ATOM     18  C   UNL     1      -1.776  11.969  22.592  0.00  0.00    +0.000 A 
ENDBRANCH   9  12
ENDBRANCH   6   9
BRANCH   1  19
ATOM     19  C   UNL     1       2.533   6.186  19.679  0.00  0.00    +0.000 C 
BRANCH  19  20
ATOM     20  C   UNL     1       2.325   4.969  18.788  0.00  0.00    +0.000 C 
BRANCH  20  21
ATOM     21  C   UNL     1       3.250   3.821  19.191  0.00  0.00    +0.000 C 
BRANCH  21  22
ATOM     22  O   UNL     1       4.183   3.609  18.133  0.00  0.00    +0.000 OA
BRANCH  22  27
ATOM     23  C   UNL     1       7.975   7.782  17.494  0.00  0.00    +0.000 C 
ATOM     24  C   UNL     1       6.957   6.692  17.649  0.00  0.00    +0.000 A 
ATOM     25  C   UNL     1       6.848   5.966  18.840  0.00  0.00    +0.000 A 
ATOM     26  C   UNL     1       5.906   4.944  18.958  0.00  0.00    +0.000 A 
ATOM     27  C   UNL     1       5.047   4.643  17.899  0.00  0.00    +0.000 A 
ATOM     28  C   UNL     1       5.157   5.358  16.706  0.00  0.00    +0.000 A 
ATOM     29  C   UNL     1       6.106   6.377  16.584  0.00  0.00    +0.000 A 
ENDBRANCH  22  27
ENDBRANCH  21  22
ENDBRANCH  20  21
ENDBRANCH  19  20
ENDBRANCH   1  19
TORSDOF 7
ENDMDL
MODEL 6
REMARK VINA RESULT:      -7.8      5.844     10.073
REMARK  Name = 
REMARK  8 active torsions:
REMARK  status: ('A' for Active; 'I' for Inactive)
REMARK    1  A    between atoms: C_1  and  C_2
REMARK    2  A    between atoms: C_5  and  O_6
REMARK    3  A    between atoms: O_6  and  C_7
REMARK    4  A    between atoms: C_7  and  C_8
REMARK    5  A    between atoms: C_8  and  C_9
REMARK    6  A    between atoms: C_9  and  C_10
REMARK    7  A    between atoms: N_15  and  S_16
REMARK    8  A    between atoms: S_16  and  C_19
REMARK                            x       y       z     vdW  Elec       q    Type
REMARK                         _______ _______ _______ _____ _____    ______ ____
ROOT
ATOM      1  C   UNL     1       2.302   8.526  18.106  0.00  0.00    +0.000 C 
ATOM      2  O   UNL     1       2.461   9.236  17.112  0.00  0.00    +0.000 OA
ATOM      3  N   UNL     1       1.462   8.904  19.137  0.00  0.00    +0.000 N 
ATOM      4  C   UNL     1       0.738  10.170  18.977  0.00  0.00    +0.000 C 
ATOM      5  C   UNL     1      -0.650  10.078  19.585  0.00  0.00    +0.000 C 
ATOM      6  N   UNL     1      -0.599   9.684  21.030  0.00  0.00    +0.000 NA
ATOM      7  C   UNL     1       0.084   8.347  21.140  0.00  0.00    +0.000 C 
ATOM      8  C   UNL     1       1.489   8.366  20.511  0.00  0.00    +0.000 C 
ENDROOT
BRANCH   6   9
ATOM      9  S   UNL     1      -0.058  10.890  22.130  0.00  0.00    +0.000 S 
ATOM     10  O   UNL     1       0.227  10.235  23.395  0.00  0.00    +0.000 OA
ATOM     11  O   UNL     1       0.952  11.684  21.471  0.00  0.00    +0.000 OA
BRANCH   9  12
ATOM     12  C   UNL     1      -1.505  11.907  22.344  0.00  0.00    +0.000 A 
ATOM     13  C   UNL     1      -1.836  12.860  21.377  0.00  0.00    +0.000 A 
ATOM     14  C   UNL     1      -3.008  13.616  21.511  0.00  0.00    +0.000 A 
ATOM     15  C   UNL     1      -3.853  13.388  22.596  0.00  0.00    +0.000 A 
ATOM     16  C   UNL     1      -3.527  12.415  23.537  0.00  0.00    +0.000 A 
ATOM     17  F   UNL     1      -4.370  12.171  24.548  0.00  0.00    +0.000 F 
ATOM     18  C   UNL     1      -2.349  11.675  23.435  0.00  0.00    +0.000 A 
ENDBRANCH   9  12
ENDBRANCH   6   9
BRANCH   1  19
ATOM     19  C   UNL     1       2.937   7.148  18.179  0.00  0.00    +0.000 C 
BRANCH  19  20
ATOM     20  C   UNL     1       4.122   7.013  17.232  0.00  0.00    +0.000 C 
BRANCH  20  21
ATOM     21  C   UNL     1       5.301   6.320  17.913  0.00  0.00    +0.000 C 
BRANCH  21  22
ATOM     22  O   UNL     1       5.352   4.972  17.452  0.00  0.00    +0.000 OA
BRANCH  22  27
ATOM     23  C   UNL     1       1.173   1.777  19.581  0.00  0.00    +0.000 C 
ATOM     24  C   UNL     1       2.279   2.607  18.999  0.00  0.00    +0.000 A 
ATOM     25  C   UNL     1       3.246   3.201  19.815  0.00  0.00    +0.000 A 
ATOM     26  C   UNL     1       4.257   3.983  19.256  0.00  0.00    +0.000 A 
ATOM     27  C   UNL     1       4.328   4.170  17.874  0.00  0.00    +0.000 A 
ATOM     28  C   UNL     1       3.360   3.586  17.055  0.00  0.00    +0.000 A 
ATOM     29  C   UNL     1       2.343   2.809  17.616  0.00  0.00    +0.000 A 
ENDBRANCH  22  27
ENDBRANCH  21  22
ENDBRANCH  20  21
ENDBRANCH  19  20
ENDBRANCH   1  19
TORSDOF 7
ENDMDL
MODEL 7
REMARK VINA RESULT:      -7.8      3.761      5.739
REMARK  Name = 
REMARK  8 active torsions:
REMARK  status: ('A' for Active; 'I' for Inactive)
REMARK    1  A    between atoms: C_1  and  C_2
REMARK    2  A    between atoms: C_5  and  O_6
REMARK    3  A    between atoms: O_6  and  C_7
REMARK    4  A    between atoms: C_7  and  C_8
REMARK    5  A    between atoms: C_8  and  C_9
REMARK    6  A    between atoms: C_9  and  C_10
REMARK    7  A    between atoms: N_15  and  S_16
REMARK    8  A    between atoms: S_16  and  C_19
REMARK                            x       y       z     vdW  Elec       q    Type
REMARK                         _______ _______ _______ _____ _____    ______ ____
ROOT
ATOM      1  C   UNL     1       1.451   7.986  20.574  0.00  0.00    +0.000 C 
ATOM      2  O   UNL     1       0.986   7.889  21.711  0.00  0.00    +0.000 OA
ATOM      3  N   UNL     1       1.994   6.894  19.921  0.00  0.00    +0.000 N 
ATOM      4  C   UNL     1       1.957   5.609  20.627  0.00  0.00    +0.000 C 
ATOM      5  C   UNL     1       1.729   4.466  19.653  0.00  0.00    +0.000 C 
ATOM      6  N   UNL     1       2.768   4.440  18.573  0.00  0.00    +0.000 NA
ATOM      7  C   UNL     1       2.719   5.748  17.828  0.00  0.00    +0.000 C 
ATOM      8  C   UNL     1       2.913   6.952  18.767  0.00  0.00    +0.000 C 
ENDROOT
BRANCH   6   9
ATOM      9  S   UNL     1       4.335   3.904  19.035  0.00  0.00    +0.000 S 
ATOM     10  O   UNL     1       4.754   4.702  20.174  0.00  0.00    +0.000 OA
ATOM     11  O   UNL     1       4.315   2.463  19.115  0.00  0.00    +0.000 OA
BRANCH   9  12
ATOM     12  C   UNL     1       5.337   4.363  17.635  0.00  0.00    +0.000 A 
ATOM     13  C   UNL     1       5.149   3.726  16.405  0.00  0.00    +0.000 A 
ATOM     14  C   UNL     1       5.891   4.130  15.287  0.00  0.00    +0.000 A 
ATOM     15  C   UNL     1       6.791   5.188  15.405  0.00  0.00    +0.000 A 
ATOM     16  C   UNL     1       6.947   5.833  16.628  0.00  0.00    +0.000 A 
ATOM     17  F   UNL     1       7.778   6.879  16.717  0.00  0.00    +0.000 F 
ATOM     18  C   UNL     1       6.239   5.424  17.758  0.00  0.00    +0.000 A 
ENDBRANCH   9  12
ENDBRANCH   6   9
BRANCH   1  19
ATOM     19  C   UNL     1       1.335   9.288  19.802  0.00  0.00    +0.000 C 
BRANCH  19  20
ATOM     20  C   UNL     1       0.514  10.328  20.553  0.00  0.00    +0.000 C 
BRANCH  20  21
ATOM     21  C   UNL     1       0.469  11.654  19.794  0.00  0.00    +0.000 C 
BRANCH  21  22
ATOM     22  O   UNL     1      -0.075  11.408  18.499  0.00  0.00    +0.000 OA
BRANCH  22  27
ATOM     23  C   UNL     1      -5.700  10.790  18.082  0.00  0.00    +0.000 C 
ATOM     24  C   UNL     1      -4.216  10.978  18.193  0.00  0.00    +0.000 A 
ATOM     25  C   UNL     1      -3.327  10.146  17.506  0.00  0.00    +0.000 A 
ATOM     26  C   UNL     1      -1.950  10.326  17.637  0.00  0.00    +0.000 A 
ATOM     27  C   UNL     1      -1.440  11.348  18.439  0.00  0.00    +0.000 A 
ATOM     28  C   UNL     1      -2.323  12.176  19.134  0.00  0.00    +0.000 A 
ATOM     29  C   UNL     1      -3.703  11.991  19.010  0.00  0.00    +0.000 A 
ENDBRANCH  22  27
ENDBRANCH  21  22
ENDBRANCH  20  21
ENDBRANCH  19  20
ENDBRANCH   1  19
TORSDOF 7
ENDMDL
MODEL 8
REMARK VINA RESULT:      -7.8      4.959      7.615
REMARK  Name = 
REMARK  8 active torsions:
REMARK  status: ('A' for Active; 'I' for Inactive)
REMARK    1  A    between atoms: C_1  and  C_2
REMARK    2  A    between atoms: C_5  and  O_6
REMARK    3  A    between atoms: O_6  and  C_7
REMARK    4  A    between atoms: C_7  and  C_8
REMARK    5  A    between atoms: C_8  and  C_9
REMARK    6  A    between atoms: C_9  and  C_10
REMARK    7  A    between atoms: N_15  and  S_16
REMARK    8  A    between atoms: S_16  and  C_19
REMARK                            x       y       z     vdW  Elec       q    Type
REMARK                         _______ _______ _______ _____ _____    ______ ____
ROOT
ATOM      1  C   UNL     1       6.459   5.786  16.824  0.00  0.00    +0.000 C 
ATOM      2  O   UNL     1       6.655   5.658  15.615  0.00  0.00    +0.000 OA
ATOM      3  N   UNL     1       5.455   5.089  17.470  0.00  0.00    +0.000 N 
ATOM      4  C   UNL     1       4.657   4.162  16.660  0.00  0.00    +0.000 C 
ATOM      5  C   UNL     1       4.278   2.932  17.464  0.00  0.00    +0.000 C 
ATOM      6  N   UNL     1       3.543   3.293  18.719  0.00  0.00    +0.000 NA
ATOM      7  C   UNL     1       4.426   4.182  19.554  0.00  0.00    +0.000 C 
ATOM      8  C   UNL     1       4.872   5.437  18.782  0.00  0.00    +0.000 C 
ENDROOT
BRANCH   6   9
ATOM      9  S   UNL     1       1.919   3.825  18.526  0.00  0.00    +0.000 S 
ATOM     10  O   UNL     1       1.570   3.670  17.124  0.00  0.00    +0.000 OA
ATOM     11  O   UNL     1       1.115   3.211  19.556  0.00  0.00    +0.000 OA
BRANCH   9  12
ATOM     12  C   UNL     1       2.031   5.568  18.880  0.00  0.00    +0.000 A 
ATOM     13  C   UNL     1       2.255   6.476  17.842  0.00  0.00    +0.000 A 
ATOM     14  C   UNL     1       2.279   7.852  18.108  0.00  0.00    +0.000 A 
ATOM     15  C   UNL     1       2.047   8.305  19.406  0.00  0.00    +0.000 A 
ATOM     16  C   UNL     1       1.795   7.392  20.425  0.00  0.00    +0.000 A 
ATOM     17  F   UNL     1       1.525   7.841  21.657  0.00  0.00    +0.000 F 
ATOM     18  C   UNL     1       1.798   6.018  20.183  0.00  0.00    +0.000 A 
ENDBRANCH   9  12
ENDBRANCH   6   9
BRANCH   1  19
ATOM     19  C   UNL     1       7.396   6.627  17.672  0.00  0.00    +0.000 C 
BRANCH  19  20
ATOM     20  C   UNL     1       7.033   8.105  17.630  0.00  0.00    +0.000 C 
BRANCH  20  21
ATOM     21  C   UNL     1       8.283   8.983  17.565  0.00  0.00    +0.000 C 
BRANCH  21  22
ATOM     22  O   UNL     1       8.691   9.276  18.901  0.00  0.00    +0.000 OA
BRANCH  22  27
ATOM     23  C   UNL     1      11.490  14.093  19.974  0.00  0.00    +0.000 C 
ATOM     24  C   UNL     1      10.740  12.830  19.670  0.00  0.00    +0.000 A 
ATOM     25  C   UNL     1      10.214  12.035  20.693  0.00  0.00    +0.000 A 
ATOM     26  C   UNL     1       9.535  10.855  20.391  0.00  0.00    +0.000 A 
ATOM     27  C   UNL     1       9.355  10.459  19.064  0.00  0.00    +0.000 A 
ATOM     28  C   UNL     1       9.885  11.244  18.039  0.00  0.00    +0.000 A 
ATOM     29  C   UNL     1      10.573  12.423  18.342  0.00  0.00    +0.000 A 
ENDBRANCH  22  27
ENDBRANCH  21  22
ENDBRANCH  20  21
ENDBRANCH  19  20
ENDBRANCH   1  19
TORSDOF 7
ENDMDL
MODEL 9
REMARK VINA RESULT:      -7.7      6.040     10.309
REMARK  Name = 
REMARK  8 active torsions:
REMARK  status: ('A' for Active; 'I' for Inactive)
REMARK    1  A    between atoms: C_1  and  C_2
REMARK    2  A    between atoms: C_5  and  O_6
REMARK    3  A    between atoms: O_6  and  C_7
REMARK    4  A    between atoms: C_7  and  C_8
REMARK    5  A    between atoms: C_8  and  C_9
REMARK    6  A    between atoms: C_9  and  C_10
REMARK    7  A    between atoms: N_15  and  S_16
REMARK    8  A    between atoms: S_16  and  C_19
REMARK                            x       y       z     vdW  Elec       q    Type
REMARK                         _______ _______ _______ _____ _____    ______ ____
ROOT
ATOM      1  C   UNL     1       2.072   8.856  18.195  0.00  0.00    +0.000 C 
ATOM      2  O   UNL     1       2.314   9.587  17.234  0.00  0.00    +0.000 OA
ATOM      3  N   UNL     1       1.218   9.254  19.207  0.00  0.00    +0.000 N 
ATOM      4  C   UNL     1       0.583  10.569  19.066  0.00  0.00    +0.000 C 
ATOM      5  C   UNL     1      -0.831  10.547  19.618  0.00  0.00    +0.000 C 
ATOM      6  N   UNL     1      -0.862  10.103  21.050  0.00  0.00    +0.000 NA
ATOM      7  C   UNL     1      -0.271   8.721  21.137  0.00  0.00    +0.000 C 
ATOM      8  C   UNL     1       1.156   8.670  20.562  0.00  0.00    +0.000 C 
ENDROOT
BRANCH   6   9
ATOM      9  S   UNL     1      -0.289  11.234  22.211  0.00  0.00    +0.000 S 
ATOM     10  O   UNL     1      -0.073  10.515  23.455  0.00  0.00    +0.000 OA
ATOM     11  O   UNL     1       0.778  11.998  21.610  0.00  0.00    +0.000 OA
BRANCH   9  12
ATOM     12  C   UNL     1      -1.686  12.316  22.430  0.00  0.00    +0.000 A 
ATOM     13  C   UNL     1      -2.709  11.962  23.315  0.00  0.00    +0.000 A 
ATOM     14  C   UNL     1      -3.777  12.841  23.538  0.00  0.00    +0.000 A 
ATOM     15  C   UNL     1      -3.795  14.079  22.897  0.00  0.00    +0.000 A 
ATOM     16  C   UNL     1      -2.755  14.432  22.042  0.00  0.00    +0.000 A 
ATOM     17  F   UNL     1      -2.757  15.643  21.471  0.00  0.00    +0.000 F 
ATOM     18  C   UNL     1      -1.700  13.557  21.785  0.00  0.00    +0.000 A 
ENDBRANCH   9  12
ENDBRANCH   6   9
BRANCH   1  19
ATOM     19  C   UNL     1       2.614   7.439  18.242  0.00  0.00    +0.000 C 
BRANCH  19  20
ATOM     20  C   UNL     1       3.834   7.263  17.349  0.00  0.00    +0.000 C 
BRANCH  20  21
ATOM     21  C   UNL     1       4.384   5.839  17.433  0.00  0.00    +0.000 C 
BRANCH  21  22
ATOM     22  O   UNL     1       3.292   4.932  17.302  0.00  0.00    +0.000 OA
BRANCH  22  27
ATOM     23  C   UNL     1       1.265   2.318  21.912  0.00  0.00    +0.000 C 
ATOM     24  C   UNL     1       1.812   3.025  20.708  0.00  0.00    +0.000 A 
ATOM     25  C   UNL     1       1.069   3.128  19.528  0.00  0.00    +0.000 A 
ATOM     26  C   UNL     1       1.602   3.775  18.413  0.00  0.00    +0.000 A 
ATOM     27  C   UNL     1       2.876   4.344  18.464  0.00  0.00    +0.000 A 
ATOM     28  C   UNL     1       3.626   4.236  19.636  0.00  0.00    +0.000 A 
ATOM     29  C   UNL     1       3.095   3.581  20.751  0.00  0.00    +0.000 A 
ENDBRANCH  22  27
ENDBRANCH  21  22
ENDBRANCH  20  21
ENDBRANCH  19  20
ENDBRANCH   1  19
TORSDOF 7
ENDMDL
