MODEL 1
REMARK VINA RESULT:      -8.1      0.000      0.000
REMARK  Name = 
REMARK  4 active torsions:
REMARK  status: ('A' for Active; 'I' for Inactive)
REMARK    1  A    between atoms: C_1  and  N_2
REMARK    2  A    between atoms: C_3  and  C_5
REMARK    3  A    between atoms: C_5  and  C_6
REMARK    4  A    between atoms: C_16  and  C_18
REMARK                            x       y       z     vdW  Elec       q    Type
REMARK                         _______ _______ _______ _____ _____    ______ ____
ROOT
ATOM      1  C   UNL     1       0.232  10.707  19.108  0.00  0.00    +0.000 C 
ATOM      2  C   UNL     1       1.388  10.963  18.140  0.00  0.00    +0.000 C 
ATOM      3  O   UNL     1       1.852   9.755  17.551  0.00  0.00    +0.000 OA
ATOM      4  C   UNL     1       2.004   8.736  18.463  0.00  0.00    +0.000 A 
ATOM      5  C   UNL     1       2.648   7.613  17.936  0.00  0.00    +0.000 A 
ATOM      6  C   UNL     1       2.833   6.487  18.725  0.00  0.00    +0.000 A 
ATOM      7  C   UNL     1       2.385   6.494  20.041  0.00  0.00    +0.000 A 
ATOM      8  C   UNL     1       1.738   7.619  20.572  0.00  0.00    +0.000 A 
ATOM      9  C   UNL     1       1.518   8.759  19.793  0.00  0.00    +0.000 A 
ATOM     10  N   UNL     1       0.736   9.900  20.251  0.00  0.00    +0.000 N 
ATOM     11  C   UNL     1       0.505  10.163  21.621  0.00  0.00    +0.000 C 
ATOM     12  O   UNL     1       0.987   9.491  22.538  0.00  0.00    +0.000 OA
ENDROOT
BRANCH  11  13
ATOM     13  C   UNL     1      -0.277  11.360  22.095  0.00  0.00    +0.000 A 
ATOM     14  C   UNL     1       0.072  12.689  21.844  0.00  0.00    +0.000 A 
ATOM     15  C   UNL     1      -0.641  13.746  22.418  0.00  0.00    +0.000 A 
ATOM     16  C   UNL     1      -1.802  13.494  23.135  0.00  0.00    +0.000 A 
ATOM     17  C   UNL     1      -2.261  12.183  23.256  0.00  0.00    +0.000 A 
ATOM     18  C   UNL     1      -1.490  11.119  22.775  0.00  0.00    +0.000 A 
ATOM     19  N   UNL     1      -3.534  11.945  23.779  0.00  0.00    +0.000 N 
ATOM     20  C   UNL     1      -4.315  12.974  24.238  0.00  0.00    +0.000 C 
ATOM     21  O   UNL     1      -5.497  12.813  24.528  0.00  0.00    +0.000 OA
ATOM     22  C   UNL     1      -3.567  14.289  24.450  0.00  0.00    +0.000 C 
ATOM     23  O   UNL     1      -2.476  14.590  23.594  0.00  0.00    +0.000 OA
ATOM     24  H   UNL     1      -3.971  11.035  23.700  0.00  0.00    +0.000 HD
ENDBRANCH  11  13
BRANCH   1  25
ATOM     25  C   UNL     1      -0.949   9.955  18.448  0.00  0.00    +0.000 C 
BRANCH  25  28
ATOM     26  C   UNL     1      -2.942  10.867  15.371  0.00  0.00    +0.000 C 
ATOM     27  N   UNL     1      -2.144  10.207  16.372  0.00  0.00    +0.000 N 
ATOM     28  C   UNL     1      -1.759  10.836  17.533  0.00  0.00    +0.000 C 
ATOM     29  O   UNL     1      -2.079  11.981  17.836  0.00  0.00    +0.000 OA
ATOM     30  H   UNL     1      -1.910   9.231  16.229  0.00  0.00    +0.000 HD
ENDBRANCH  25  28
ENDBRANCH   1  25
TORSDOF 3
ENDMDL
MODEL 2
REMARK VINA RESULT:      -8.0      3.350      6.373
REMARK  Name = 
REMARK  4 active torsions:
REMARK  status: ('A' for Active; 'I' for Inactive)
REMARK    1  A    between atoms: C_1  and  N_2
REMARK    2  A    between atoms: C_3  and  C_5
REMARK    3  A    between atoms: C_5  and  C_6
REMARK    4  A    between atoms: C_16  and  C_18
REMARK                            x       y       z     vdW  Elec       q    Type
REMARK                         _______ _______ _______ _____ _____    ______ ____
ROOT
ATOM      1  C   UNL     1       2.378   5.528  18.727  0.00  0.00    +0.000 C 
ATOM      2  C   UNL     1       1.929   4.307  17.924  0.00  0.00    +0.000 C 
ATOM      3  O   UNL     1       3.039   3.539  17.477  0.00  0.00    +0.000 OA
ATOM      4  C   UNL     1       4.048   4.310  16.946  0.00  0.00    +0.000 A 
ATOM      5  C   UNL     1       5.049   3.560  16.323  0.00  0.00    +0.000 A 
ATOM      6  C   UNL     1       6.155   4.197  15.779  0.00  0.00    +0.000 A 
ATOM      7  C   UNL     1       6.248   5.583  15.849  0.00  0.00    +0.000 A 
ATOM      8  C   UNL     1       5.245   6.338  16.475  0.00  0.00    +0.000 A 
ATOM      9  C   UNL     1       4.131   5.721  17.051  0.00  0.00    +0.000 A 
ATOM     10  N   UNL     1       3.131   6.442  17.826  0.00  0.00    +0.000 N 
ATOM     11  C   UNL     1       2.939   7.838  17.711  0.00  0.00    +0.000 C 
ATOM     12  O   UNL     1       3.556   8.549  16.910  0.00  0.00    +0.000 OA
ENDROOT
BRANCH  11  13
ATOM     13  C   UNL     1       1.885   8.579  18.490  0.00  0.00    +0.000 A 
ATOM     14  C   UNL     1       0.783   9.224  17.922  0.00  0.00    +0.000 A 
ATOM     15  C   UNL     1      -0.089   9.990  18.702  0.00  0.00    +0.000 A 
ATOM     16  C   UNL     1       0.045  10.005  20.083  0.00  0.00    +0.000 A 
ATOM     17  C   UNL     1       1.038   9.233  20.684  0.00  0.00    +0.000 A 
ATOM     18  C   UNL     1       1.975   8.554  19.897  0.00  0.00    +0.000 A 
ATOM     19  N   UNL     1       1.038   9.069  22.071  0.00  0.00    +0.000 N 
ATOM     20  C   UNL     1       0.117   9.708  22.860  0.00  0.00    +0.000 C 
ATOM     21  O   UNL     1      -0.019   9.438  24.049  0.00  0.00    +0.000 OA
ATOM     22  C   UNL     1      -0.638  10.838  22.161  0.00  0.00    +0.000 C 
ATOM     23  O   UNL     1      -0.897  10.718  20.771  0.00  0.00    +0.000 OA
ATOM     24  H   UNL     1       1.616   8.367  22.515  0.00  0.00    +0.000 HD
ENDBRANCH  11  13
BRANCH   1  25
ATOM     25  C   UNL     1       3.280   5.158  19.929  0.00  0.00    +0.000 C 
BRANCH  25  28
ATOM     26  C   UNL     1       1.190   2.629  21.803  0.00  0.00    +0.000 C 
ATOM     27  N   UNL     1       1.720   3.815  21.180  0.00  0.00    +0.000 N 
ATOM     28  C   UNL     1       2.930   3.820  20.527  0.00  0.00    +0.000 C 
ATOM     29  O   UNL     1       3.642   2.830  20.386  0.00  0.00    +0.000 OA
ATOM     30  H   UNL     1       1.149   4.652  21.183  0.00  0.00    +0.000 HD
ENDBRANCH  25  28
ENDBRANCH   1  25
TORSDOF 3
ENDMDL
MODEL 3
REMARK VINA RESULT:      -7.9      3.615      6.811
REMARK  Name = 
REMARK  4 active torsions:
REMARK  status: ('A' for Active; 'I' for Inactive)
REMARK    1  A    between atoms: C_1  and  N_2
REMARK    2  A    between atoms: C_3  and  C_5
REMARK    3  A    between atoms: C_5  and  C_6
REMARK    4  A    between atoms: C_16  and  C_18
REMARK                            x       y       z     vdW  Elec       q    Type
REMARK                         _______ _______ _______ _____ _____    ______ ____
ROOT
ATOM      1  C   UNL     1       2.754   5.184  18.566  0.00  0.00    +0.000 C 
ATOM      2  C   UNL     1       2.242   4.023  17.713  0.00  0.00    +0.000 C 
ATOM      3  O   UNL     1       3.313   3.260  17.173  0.00  0.00    +0.000 OA
ATOM      4  C   UNL     1       4.316   4.040  16.644  0.00  0.00    +0.000 A 
ATOM      5  C   UNL     1       5.270   3.308  15.933  0.00  0.00    +0.000 A 
ATOM      6  C   UNL     1       6.367   3.953  15.379  0.00  0.00    +0.000 A 
ATOM      7  C   UNL     1       6.495   5.330  15.527  0.00  0.00    +0.000 A 
ATOM      8  C   UNL     1       5.539   6.067  16.240  0.00  0.00    +0.000 A 
ATOM      9  C   UNL     1       4.437   5.440  16.828  0.00  0.00    +0.000 A 
ATOM     10  N   UNL     1       3.489   6.135  17.688  0.00  0.00    +0.000 N 
ATOM     11  C   UNL     1       3.325   7.538  17.664  0.00  0.00    +0.000 C 
ATOM     12  O   UNL     1       3.924   8.283  16.880  0.00  0.00    +0.000 OA
ENDROOT
BRANCH  11  13
ATOM     13  C   UNL     1       2.324   8.253  18.532  0.00  0.00    +0.000 A 
ATOM     14  C   UNL     1       2.024   7.907  19.852  0.00  0.00    +0.000 A 
ATOM     15  C   UNL     1       0.997   8.546  20.554  0.00  0.00    +0.000 A 
ATOM     16  C   UNL     1       0.350   9.640  19.996  0.00  0.00    +0.000 A 
ATOM     17  C   UNL     1       0.749  10.107  18.744  0.00  0.00    +0.000 A 
ATOM     18  C   UNL     1       1.701   9.402  17.999  0.00  0.00    +0.000 A 
ATOM     19  N   UNL     1       0.260  11.330  18.279  0.00  0.00    +0.000 N 
ATOM     20  C   UNL     1      -0.657  12.048  19.001  0.00  0.00    +0.000 C 
ATOM     21  O   UNL     1      -0.959  13.200  18.705  0.00  0.00    +0.000 OA
ATOM     22  C   UNL     1      -1.332  11.261  20.124  0.00  0.00    +0.000 C 
ATOM     23  O   UNL     1      -0.586  10.250  20.782  0.00  0.00    +0.000 OA
ATOM     24  H   UNL     1       0.674  11.787  17.476  0.00  0.00    +0.000 HD
ENDBRANCH  11  13
BRANCH   1  25
ATOM     25  C   UNL     1       3.698   4.723  19.703  0.00  0.00    +0.000 C 
BRANCH  25  28
ATOM     26  C   UNL     1       1.334   2.653  21.799  0.00  0.00    +0.000 C 
ATOM     27  N   UNL     1       1.999   3.703  21.072  0.00  0.00    +0.000 N 
ATOM     28  C   UNL     1       3.191   3.497  20.418  0.00  0.00    +0.000 C 
ATOM     29  O   UNL     1       3.771   2.417  20.363  0.00  0.00    +0.000 OA
ATOM     30  H   UNL     1       1.538   4.603  21.003  0.00  0.00    +0.000 HD
ENDBRANCH  25  28
ENDBRANCH   1  25
TORSDOF 3
ENDMDL
MODEL 4
REMARK VINA RESULT:      -7.8      0.898      1.076
REMARK  Name = 
REMARK  4 active torsions:
REMARK  status: ('A' for Active; 'I' for Inactive)
REMARK    1  A    between atoms: C_1  and  N_2
REMARK    2  A    between atoms: C_3  and  C_5
REMARK    3  A    between atoms: C_5  and  C_6
REMARK    4  A    between atoms: C_16  and  C_18
REMARK                            x       y       z     vdW  Elec       q    Type
REMARK                         _______ _______ _______ _____ _____    ______ ____
ROOT
ATOM      1  C   UNL     1       0.580  10.674  18.946  0.00  0.00    +0.000 C 
ATOM      2  C   UNL     1       1.822  10.924  18.091  0.00  0.00    +0.000 C 
ATOM      3  O   UNL     1       2.265   9.733  17.454  0.00  0.00    +0.000 OA
ATOM      4  C   UNL     1       2.285   8.646  18.298  0.00  0.00    +0.000 A 
ATOM      5  C   UNL     1       2.906   7.525  17.743  0.00  0.00    +0.000 A 
ATOM      6  C   UNL     1       2.964   6.338  18.460  0.00  0.00    +0.000 A 
ATOM      7  C   UNL     1       2.412   6.284  19.735  0.00  0.00    +0.000 A 
ATOM      8  C   UNL     1       1.788   7.407  20.295  0.00  0.00    +0.000 A 
ATOM      9  C   UNL     1       1.695   8.609  19.586  0.00  0.00    +0.000 A 
ATOM     10  N   UNL     1       0.944   9.761  20.064  0.00  0.00    +0.000 N 
ATOM     11  C   UNL     1       0.617   9.946  21.427  0.00  0.00    +0.000 C 
ATOM     12  O   UNL     1       0.986   9.184  22.327  0.00  0.00    +0.000 OA
ENDROOT
BRANCH  11  13
ATOM     13  C   UNL     1      -0.133  11.153  21.925  0.00  0.00    +0.000 A 
ATOM     14  C   UNL     1       0.214  12.477  21.646  0.00  0.00    +0.000 A 
ATOM     15  C   UNL     1      -0.463  13.545  22.242  0.00  0.00    +0.000 A 
ATOM     16  C   UNL     1      -1.592  13.308  23.013  0.00  0.00    +0.000 A 
ATOM     17  C   UNL     1      -2.055  12.003  23.169  0.00  0.00    +0.000 A 
ATOM     18  C   UNL     1      -1.315  10.928  22.662  0.00  0.00    +0.000 A 
ATOM     19  N   UNL     1      -3.305  11.780  23.752  0.00  0.00    +0.000 N 
ATOM     20  C   UNL     1      -4.056  12.819  24.236  0.00  0.00    +0.000 C 
ATOM     21  O   UNL     1      -5.224  12.671  24.582  0.00  0.00    +0.000 OA
ATOM     22  C   UNL     1      -3.288  14.130  24.400  0.00  0.00    +0.000 C 
ATOM     23  O   UNL     1      -2.236  14.414  23.492  0.00  0.00    +0.000 OA
ATOM     24  H   UNL     1      -3.751  10.873  23.701  0.00  0.00    +0.000 HD
ENDBRANCH  11  13
BRANCH   1  25
ATOM     25  C   UNL     1      -0.585  10.042  18.146  0.00  0.00    +0.000 C 
BRANCH  25  28
ATOM     26  C   UNL     1      -3.345  12.309  19.375  0.00  0.00    +0.000 C 
ATOM     27  N   UNL     1      -2.227  11.408  19.257  0.00  0.00    +0.000 N 
ATOM     28  C   UNL     1      -1.778  10.956  18.039  0.00  0.00    +0.000 C 
ATOM     29  O   UNL     1      -2.253  11.294  16.959  0.00  0.00    +0.000 OA
ATOM     30  H   UNL     1      -1.732  11.150  20.102  0.00  0.00    +0.000 HD
ENDBRANCH  25  28
ENDBRANCH   1  25
TORSDOF 3
ENDMDL
MODEL 5
REMARK VINA RESULT:      -7.8      5.813     10.857
REMARK  Name = 
REMARK  4 active torsions:
REMARK  status: ('A' for Active; 'I' for Inactive)
REMARK    1  A    between atoms: C_1  and  N_2
REMARK    2  A    between atoms: C_3  and  C_5
REMARK    3  A    between atoms: C_5  and  C_6
REMARK    4  A    between atoms: C_16  and  C_18
REMARK                            x       y       z     vdW  Elec       q    Type
REMARK                         _______ _______ _______ _____ _____    ______ ____
ROOT
ATOM      1  C   UNL     1       2.961   5.123  17.865  0.00  0.00    +0.000 C 
ATOM      2  C   UNL     1       1.548   4.641  17.534  0.00  0.00    +0.000 C 
ATOM      3  O   UNL     1       0.781   4.425  18.711  0.00  0.00    +0.000 OA
ATOM      4  C   UNL     1       1.471   3.741  19.685  0.00  0.00    +0.000 A 
ATOM      5  C   UNL     1       0.668   3.348  20.759  0.00  0.00    +0.000 A 
ATOM      6  C   UNL     1       1.233   2.687  21.841  0.00  0.00    +0.000 A 
ATOM      7  C   UNL     1       2.596   2.410  21.836  0.00  0.00    +0.000 A 
ATOM      8  C   UNL     1       3.404   2.804  20.759  0.00  0.00    +0.000 A 
ATOM      9  C   UNL     1       2.865   3.492  19.668  0.00  0.00    +0.000 A 
ATOM     10  N   UNL     1       3.678   4.039  18.590  0.00  0.00    +0.000 N 
ATOM     11  C   UNL     1       4.983   3.574  18.308  0.00  0.00    +0.000 C 
ATOM     12  O   UNL     1       5.518   2.635  18.907  0.00  0.00    +0.000 OA
ENDROOT
BRANCH  11  13
ATOM     13  C   UNL     1       5.811   4.119  17.175  0.00  0.00    +0.000 A 
ATOM     14  C   UNL     1       6.810   5.086  17.313  0.00  0.00    +0.000 A 
ATOM     15  C   UNL     1       7.455   5.627  16.196  0.00  0.00    +0.000 A 
ATOM     16  C   UNL     1       7.213   5.104  14.934  0.00  0.00    +0.000 A 
ATOM     17  C   UNL     1       6.342   4.025  14.794  0.00  0.00    +0.000 A 
ATOM     18  C   UNL     1       5.617   3.557  15.896  0.00  0.00    +0.000 A 
ATOM     19  N   UNL     1       6.266   3.356  13.570  0.00  0.00    +0.000 N 
ATOM     20  C   UNL     1       6.983   3.784  12.483  0.00  0.00    +0.000 C 
ATOM     21  O   UNL     1       7.074   3.113  11.460  0.00  0.00    +0.000 OA
ATOM     22  C   UNL     1       7.559   5.193  12.621  0.00  0.00    +0.000 C 
ATOM     23  O   UNL     1       7.943   5.641  13.911  0.00  0.00    +0.000 OA
ATOM     24  H   UNL     1       5.800   2.461  13.491  0.00  0.00    +0.000 HD
ENDBRANCH  11  13
BRANCH   1  25
ATOM     25  C   UNL     1       2.971   6.400  18.741  0.00  0.00    +0.000 C 
BRANCH  25  28
ATOM     26  C   UNL     1       1.624   9.831  17.917  0.00  0.00    +0.000 C 
ATOM     27  N   UNL     1       1.923   8.556  18.516  0.00  0.00    +0.000 N 
ATOM     28  C   UNL     1       2.785   7.658  17.933  0.00  0.00    +0.000 C 
ATOM     29  O   UNL     1       3.395   7.865  16.889  0.00  0.00    +0.000 OA
ATOM     30  H   UNL     1       1.519   8.349  19.423  0.00  0.00    +0.000 HD
ENDBRANCH  25  28
ENDBRANCH   1  25
TORSDOF 3
ENDMDL
MODEL 6
REMARK VINA RESULT:      -7.6      2.637      7.663
REMARK  Name = 
REMARK  4 active torsions:
REMARK  status: ('A' for Active; 'I' for Inactive)
REMARK    1  A    between atoms: C_1  and  N_2
REMARK    2  A    between atoms: C_3  and  C_5
REMARK    3  A    between atoms: C_5  and  C_6
REMARK    4  A    between atoms: C_16  and  C_18
REMARK                            x       y       z     vdW  Elec       q    Type
REMARK                         _______ _______ _______ _____ _____    ______ ____
ROOT
ATOM      1  C   UNL     1       0.478  11.409  19.215  0.00  0.00    +0.000 C 
ATOM      2  C   UNL     1      -0.771  12.025  18.585  0.00  0.00    +0.000 C 
ATOM      3  O   UNL     1      -1.431  12.905  19.485  0.00  0.00    +0.000 OA
ATOM      4  C   UNL     1      -1.552  12.385  20.753  0.00  0.00    +0.000 A 
ATOM      5  C   UNL     1      -2.372  13.149  21.589  0.00  0.00    +0.000 A 
ATOM      6  C   UNL     1      -2.554  12.773  22.912  0.00  0.00    +0.000 A 
ATOM      7  C   UNL     1      -1.927  11.627  23.389  0.00  0.00    +0.000 A 
ATOM      8  C   UNL     1      -1.104  10.859  22.553  0.00  0.00    +0.000 A 
ATOM      9  C   UNL     1      -0.884  11.227  21.223  0.00  0.00    +0.000 A 
ATOM     10  N   UNL     1       0.062  10.543  20.352  0.00  0.00    +0.000 N 
ATOM     11  C   UNL     1       0.508   9.225  20.598  0.00  0.00    +0.000 C 
ATOM     12  O   UNL     1       0.095   8.526  21.530  0.00  0.00    +0.000 OA
ENDROOT
BRANCH  11  13
ATOM     13  C   UNL     1       1.464   8.507  19.681  0.00  0.00    +0.000 A 
ATOM     14  C   UNL     1       1.867   8.976  18.428  0.00  0.00    +0.000 A 
ATOM     15  C   UNL     1       2.665   8.196  17.586  0.00  0.00    +0.000 A 
ATOM     16  C   UNL     1       3.192   6.996  18.042  0.00  0.00    +0.000 A 
ATOM     17  C   UNL     1       2.937   6.589  19.351  0.00  0.00    +0.000 A 
ATOM     18  C   UNL     1       2.052   7.316  20.155  0.00  0.00    +0.000 A 
ATOM     19  N   UNL     1       3.640   5.506  19.884  0.00  0.00    +0.000 N 
ATOM     20  C   UNL     1       4.527   4.792  19.121  0.00  0.00    +0.000 C 
ATOM     21  O   UNL     1       5.285   3.961  19.612  0.00  0.00    +0.000 OA
ATOM     22  C   UNL     1       4.415   5.047  17.619  0.00  0.00    +0.000 C 
ATOM     23  O   UNL     1       4.023   6.337  17.180  0.00  0.00    +0.000 OA
ATOM     24  H   UNL     1       3.624   5.310  20.877  0.00  0.00    +0.000 HD
ENDBRANCH  11  13
BRANCH   1  25
ATOM     25  C   UNL     1       1.475  12.472  19.737  0.00  0.00    +0.000 C 
BRANCH  25  28
ATOM     26  C   UNL     1       3.465  15.068  17.846  0.00  0.00    +0.000 C 
ATOM     27  N   UNL     1       2.619  14.360  18.772  0.00  0.00    +0.000 N 
ATOM     28  C   UNL     1       2.367  13.013  18.649  0.00  0.00    +0.000 C 
ATOM     29  O   UNL     1       2.855  12.296  17.781  0.00  0.00    +0.000 OA
ATOM     30  H   UNL     1       2.246  14.870  19.564  0.00  0.00    +0.000 HD
ENDBRANCH  25  28
ENDBRANCH   1  25
TORSDOF 3
ENDMDL
MODEL 7
REMARK VINA RESULT:      -7.5      1.252      1.348
REMARK  Name = 
REMARK  4 active torsions:
REMARK  status: ('A' for Active; 'I' for Inactive)
REMARK    1  A    between atoms: C_1  and  N_2
REMARK    2  A    between atoms: C_3  and  C_5
REMARK    3  A    between atoms: C_5  and  C_6
REMARK    4  A    between atoms: C_16  and  C_18
REMARK                            x       y       z     vdW  Elec       q    Type
REMARK                         _______ _______ _______ _____ _____    ______ ____
ROOT
ATOM      1  C   UNL     1      -0.360  11.361  19.617  0.00  0.00    +0.000 C 
ATOM      2  C   UNL     1       0.858  11.611  18.727  0.00  0.00    +0.000 C 
ATOM      3  O   UNL     1       1.365  10.399  18.185  0.00  0.00    +0.000 OA
ATOM      4  C   UNL     1       1.458   9.390  19.116  0.00  0.00    +0.000 A 
ATOM      5  C   UNL     1       2.140   8.264  18.647  0.00  0.00    +0.000 A 
ATOM      6  C   UNL     1       2.275   7.147  19.459  0.00  0.00    +0.000 A 
ATOM      7  C   UNL     1       1.738   7.167  20.742  0.00  0.00    +0.000 A 
ATOM      8  C   UNL     1       1.052   8.294  21.215  0.00  0.00    +0.000 A 
ATOM      9  C   UNL     1       0.882   9.425  20.410  0.00  0.00    +0.000 A 
ATOM     10  N   UNL     1       0.068  10.567  20.802  0.00  0.00    +0.000 N 
ATOM     11  C   UNL     1      -0.257  10.845  22.149  0.00  0.00    +0.000 C 
ATOM     12  O   UNL     1       0.164  10.184  23.104  0.00  0.00    +0.000 OA
ENDROOT
BRANCH  11  13
ATOM     13  C   UNL     1      -1.074  12.043  22.556  0.00  0.00    +0.000 A 
ATOM     14  C   UNL     1      -0.586  13.350  22.632  0.00  0.00    +0.000 A 
ATOM     15  C   UNL     1      -1.375  14.391  23.131  0.00  0.00    +0.000 A 
ATOM     16  C   UNL     1      -2.713  14.168  23.426  0.00  0.00    +0.000 A 
ATOM     17  C   UNL     1      -3.265  12.908  23.199  0.00  0.00    +0.000 A 
ATOM     18  C   UNL     1      -2.449  11.843  22.802  0.00  0.00    +0.000 A 
ATOM     19  N   UNL     1      -4.649  12.738  23.280  0.00  0.00    +0.000 N 
ATOM     20  C   UNL     1      -5.469  13.773  23.647  0.00  0.00    +0.000 C 
ATOM     21  O   UNL     1      -6.690  13.700  23.548  0.00  0.00    +0.000 OA
ATOM     22  C   UNL     1      -4.744  14.963  24.274  0.00  0.00    +0.000 C 
ATOM     23  O   UNL     1      -3.428  15.259  23.835  0.00  0.00    +0.000 OA
ATOM     24  H   UNL     1      -5.093  11.898  22.934  0.00  0.00    +0.000 HD
ENDBRANCH  11  13
BRANCH   1  25
ATOM     25  C   UNL     1      -1.491  10.597  18.888  0.00  0.00    +0.000 C 
BRANCH  25  28
ATOM     26  C   UNL     1      -4.696  11.620  17.168  0.00  0.00    +0.000 C 
ATOM     27  N   UNL     1      -3.500  10.946  17.605  0.00  0.00    +0.000 N 
ATOM     28  C   UNL     1      -2.672  11.477  18.567  0.00  0.00    +0.000 C 
ATOM     29  O   UNL     1      -2.885  12.532  19.155  0.00  0.00    +0.000 OA
ATOM     30  H   UNL     1      -3.302  10.029  17.222  0.00  0.00    +0.000 HD
ENDBRANCH  25  28
ENDBRANCH   1  25
TORSDOF 3
ENDMDL
MODEL 8
REMARK VINA RESULT:      -7.4      3.811      7.072
REMARK  Name = 
REMARK  4 active torsions:
REMARK  status: ('A' for Active; 'I' for Inactive)
REMARK    1  A    between atoms: C_1  and  N_2
REMARK    2  A    between atoms: C_3  and  C_5
REMARK    3  A    between atoms: C_5  and  C_6
REMARK    4  A    between atoms: C_16  and  C_18
REMARK                            x       y       z     vdW  Elec       q    Type
REMARK                         _______ _______ _______ _____ _____    ______ ____
ROOT
ATOM      1  C   UNL     1       2.946   5.135  18.602  0.00  0.00    +0.000 C 
ATOM      2  C   UNL     1       2.435   3.918  17.831  0.00  0.00    +0.000 C 
ATOM      3  O   UNL     1       3.502   3.189  17.239  0.00  0.00    +0.000 OA
ATOM      4  C   UNL     1       4.422   3.997  16.610  0.00  0.00    +0.000 A 
ATOM      5  C   UNL     1       5.359   3.286  15.857  0.00  0.00    +0.000 A 
ATOM      6  C   UNL     1       6.377   3.963  15.200  0.00  0.00    +0.000 A 
ATOM      7  C   UNL     1       6.444   5.350  15.289  0.00  0.00    +0.000 A 
ATOM      8  C   UNL     1       5.504   6.065  16.045  0.00  0.00    +0.000 A 
ATOM      9  C   UNL     1       4.482   5.407  16.736  0.00  0.00    +0.000 A 
ATOM     10  N   UNL     1       3.564   6.087  17.639  0.00  0.00    +0.000 N 
ATOM     11  C   UNL     1       3.325   7.478  17.578  0.00  0.00    +0.000 C 
ATOM     12  O   UNL     1       3.825   8.221  16.726  0.00  0.00    +0.000 OA
ENDROOT
BRANCH  11  13
ATOM     13  C   UNL     1       2.353   8.176  18.492  0.00  0.00    +0.000 A 
ATOM     14  C   UNL     1       2.110   7.814  19.819  0.00  0.00    +0.000 A 
ATOM     15  C   UNL     1       1.106   8.437  20.568  0.00  0.00    +0.000 A 
ATOM     16  C   UNL     1       0.427   9.530  20.047  0.00  0.00    +0.000 A 
ATOM     17  C   UNL     1       0.771  10.012  18.785  0.00  0.00    +0.000 A 
ATOM     18  C   UNL     1       1.698   9.323  17.996  0.00  0.00    +0.000 A 
ATOM     19  N   UNL     1       0.253  11.235  18.351  0.00  0.00    +0.000 N 
ATOM     20  C   UNL     1      -0.641  11.937  19.117  0.00  0.00    +0.000 C 
ATOM     21  O   UNL     1      -0.966  13.089  18.844  0.00  0.00    +0.000 OA
ATOM     22  C   UNL     1      -1.263  11.134  20.259  0.00  0.00    +0.000 C 
ATOM     23  O   UNL     1      -0.482  10.124  20.877  0.00  0.00    +0.000 OA
ATOM     24  H   UNL     1       0.630  11.702  17.537  0.00  0.00    +0.000 HD
ENDBRANCH  11  13
BRANCH   1  25
ATOM     25  C   UNL     1       3.993   4.767  19.681  0.00  0.00    +0.000 C 
BRANCH  25  28
ATOM     26  C   UNL     1       4.889   1.152  20.311  0.00  0.00    +0.000 C 
ATOM     27  N   UNL     1       4.855   2.528  19.886  0.00  0.00    +0.000 N 
ATOM     28  C   UNL     1       3.815   3.367  20.209  0.00  0.00    +0.000 C 
ATOM     29  O   UNL     1       2.856   3.043  20.903  0.00  0.00    +0.000 OA
ATOM     30  H   UNL     1       5.653   2.890  19.378  0.00  0.00    +0.000 HD
ENDBRANCH  25  28
ENDBRANCH   1  25
TORSDOF 3
ENDMDL
MODEL 9
REMARK VINA RESULT:      -7.3      1.351      2.198
REMARK  Name = 
REMARK  4 active torsions:
REMARK  status: ('A' for Active; 'I' for Inactive)
REMARK    1  A    between atoms: C_1  and  N_2
REMARK    2  A    between atoms: C_3  and  C_5
REMARK    3  A    between atoms: C_5  and  C_6
REMARK    4  A    between atoms: C_16  and  C_18
REMARK                            x       y       z     vdW  Elec       q    Type
REMARK                         _______ _______ _______ _____ _____    ______ ____
ROOT
ATOM      1  C   UNL     1       0.195  10.694  19.174  0.00  0.00    +0.000 C 
ATOM      2  C   UNL     1       1.367  10.963  18.230  0.00  0.00    +0.000 C 
ATOM      3  O   UNL     1       1.839   9.765  17.629  0.00  0.00    +0.000 OA
ATOM      4  C   UNL     1       1.973   8.730  18.526  0.00  0.00    +0.000 A 
ATOM      5  C   UNL     1       2.623   7.614  17.991  0.00  0.00    +0.000 A 
ATOM      6  C   UNL     1       2.792   6.474  18.764  0.00  0.00    +0.000 A 
ATOM      7  C   UNL     1       2.322   6.461  20.073  0.00  0.00    +0.000 A 
ATOM      8  C   UNL     1       1.669   7.578  20.611  0.00  0.00    +0.000 A 
ATOM      9  C   UNL     1       1.464   8.731  19.848  0.00  0.00    +0.000 A 
ATOM     10  N   UNL     1       0.678   9.866  20.312  0.00  0.00    +0.000 N 
ATOM     11  C   UNL     1       0.424  10.107  21.682  0.00  0.00    +0.000 C 
ATOM     12  O   UNL     1       0.889   9.418  22.595  0.00  0.00    +0.000 OA
ENDROOT
BRANCH  11  13
ATOM     13  C   UNL     1      -0.364  11.298  22.163  0.00  0.00    +0.000 A 
ATOM     14  C   UNL     1      -1.479  11.227  23.001  0.00  0.00    +0.000 A 
ATOM     15  C   UNL     1      -2.227  12.368  23.309  0.00  0.00    +0.000 A 
ATOM     16  C   UNL     1      -1.787  13.619  22.901  0.00  0.00    +0.000 A 
ATOM     17  C   UNL     1      -0.585  13.729  22.204  0.00  0.00    +0.000 A 
ATOM     18  C   UNL     1       0.106  12.579  21.804  0.00  0.00    +0.000 A 
ATOM     19  N   UNL     1      -0.028  14.991  21.987  0.00  0.00    +0.000 N 
ATOM     20  C   UNL     1      -0.676  16.130  22.388  0.00  0.00    +0.000 C 
ATOM     21  O   UNL     1      -0.129  17.228  22.375  0.00  0.00    +0.000 OA
ATOM     22  C   UNL     1      -2.147  15.926  22.748  0.00  0.00    +0.000 C 
ATOM     23  O   UNL     1      -2.538  14.684  23.312  0.00  0.00    +0.000 OA
ATOM     24  H   UNL     1       0.926  15.093  21.664  0.00  0.00    +0.000 HD
ENDBRANCH  11  13
BRANCH   1  25
ATOM     25  C   UNL     1      -0.977   9.957  18.482  0.00  0.00    +0.000 C 
BRANCH  25  28
ATOM     26  C   UNL     1      -2.926  10.829  15.366  0.00  0.00    +0.000 C 
ATOM     27  N   UNL     1      -2.168  10.173  16.400  0.00  0.00    +0.000 N 
ATOM     28  C   UNL     1      -1.731  10.839  17.521  0.00  0.00    +0.000 C 
ATOM     29  O   UNL     1      -1.968  12.019  17.759  0.00  0.00    +0.000 OA
ATOM     30  H   UNL     1      -2.003   9.177  16.312  0.00  0.00    +0.000 HD
ENDBRANCH  25  28
ENDBRANCH   1  25
TORSDOF 3
ENDMDL
