MODEL 1
REMARK VINA RESULT:      -6.8      0.000      0.000
REMARK  Name = 
REMARK  3 active torsions:
REMARK  status: ('A' for Active; 'I' for Inactive)
REMARK    1  A    between atoms: C_2  and  C_3
REMARK    2  A    between atoms: C_11  and  N_12
REMARK    3  A    between atoms: N_15  and  C_16
REMARK                            x       y       z     vdW  Elec       q    Type
REMARK                         _______ _______ _______ _____ _____    ______ ____
ROOT
ATOM      1  O   UNL     1       5.360   3.768  19.398  0.00  0.00    +0.000 OA
ATOM      2  C   UNL     1       4.955   4.489  18.487  0.00  0.00    +0.000 C 
ATOM      3  N   UNL     1       3.902   5.401  18.712  0.00  0.00    +0.000 N 
ATOM      4  C   UNL     1       3.302   5.400  20.043  0.00  0.00    +0.000 C 
ATOM      5  C   UNL     1       1.873   5.938  20.029  0.00  0.00    +0.000 C 
ATOM      6  C   UNL     1       1.727   7.296  19.314  0.00  0.00    +0.000 C 
ATOM      7  C   UNL     1       2.409   7.192  17.934  0.00  0.00    +0.000 C 
ATOM      8  C   UNL     1       3.836   6.682  18.012  0.00  0.00    +0.000 C 
ENDROOT
BRANCH   6   9
ATOM      9  N   UNL     1       1.972   8.494  20.130  0.00  0.00    +0.000 NA
ATOM     10  C   UNL     1       1.883   9.856  19.578  0.00  0.00    +0.000 C 
ATOM     11  C   UNL     1       0.509  10.564  19.717  0.00  0.00    +0.000 C 
ATOM     12  N   UNL     1       0.027  10.453  21.103  0.00  0.00    +0.000 N 
ATOM     13  C   UNL     1       0.032   9.077  21.639  0.00  0.00    +0.000 C 
ATOM     14  C   UNL     1       1.441   8.466  21.504  0.00  0.00    +0.000 C 
BRANCH  12  15
ATOM     15  C   UNL     1      -1.082  11.186  21.524  0.00  0.00    +0.000 A 
ATOM     16  C   UNL     1      -1.504  11.292  22.852  0.00  0.00    +0.000 A 
ATOM     17  C   UNL     1      -2.593  12.105  23.190  0.00  0.00    +0.000 A 
ATOM     18  C   UNL     1      -3.284  12.808  22.202  0.00  0.00    +0.000 A 
ATOM     19  C   UNL     1      -2.895  12.693  20.874  0.00  0.00    +0.000 A 
ATOM     20  C   UNL     1      -1.808  11.888  20.546  0.00  0.00    +0.000 A 
ENDBRANCH  12  15
ENDBRANCH   6   9
BRANCH   2  21
ATOM     21  C   UNL     1       5.509   4.429  17.139  0.00  0.00    +0.000 A 
ATOM     22  C   UNL     1       4.906   4.043  15.955  0.00  0.00    +0.000 A 
ATOM     23  C   UNL     1       5.758   4.212  14.828  0.00  0.00    +0.000 A 
ATOM     24  C   UNL     1       7.015   4.635  15.197  0.00  0.00    +0.000 A 
ATOM     25  S   UNL     1       7.153   4.843  16.889  0.00  0.00    +0.000 S 
ENDBRANCH   2  21
TORSDOF 3
ENDMDL
MODEL 2
REMARK VINA RESULT:      -6.5      3.135      9.630
REMARK  Name = 
REMARK  3 active torsions:
REMARK  status: ('A' for Active; 'I' for Inactive)
REMARK    1  A    between atoms: C_2  and  C_3
REMARK    2  A    between atoms: C_11  and  N_12
REMARK    3  A    between atoms: N_15  and  C_16
REMARK                            x       y       z     vdW  Elec       q    Type
REMARK                         _______ _______ _______ _____ _____    ______ ____
ROOT
ATOM      1  O   UNL     1       1.182  10.544  18.789  0.00  0.00    +0.000 OA
ATOM      2  C   UNL     1       1.133   9.618  19.597  0.00  0.00    +0.000 C 
ATOM      3  N   UNL     1       1.622   8.340  19.251  0.00  0.00    +0.000 N 
ATOM      4  C   UNL     1       2.130   8.174  17.892  0.00  0.00    +0.000 C 
ATOM      5  C   UNL     1       2.077   6.719  17.434  0.00  0.00    +0.000 C 
ATOM      6  C   UNL     1       2.714   5.730  18.430  0.00  0.00    +0.000 C 
ATOM      7  C   UNL     1       2.124   6.005  19.828  0.00  0.00    +0.000 C 
ATOM      8  C   UNL     1       2.232   7.460  20.244  0.00  0.00    +0.000 C 
ENDROOT
BRANCH   6   9
ATOM      9  N   UNL     1       4.164   5.521  18.307  0.00  0.00    +0.000 NA
ATOM     10  C   UNL     1       4.751   4.194  18.062  0.00  0.00    +0.000 C 
ATOM     11  C   UNL     1       5.003   3.819  16.577  0.00  0.00    +0.000 C 
ATOM     12  N   UNL     1       5.710   4.916  15.897  0.00  0.00    +0.000 N 
ATOM     13  C   UNL     1       5.080   6.241  16.065  0.00  0.00    +0.000 C 
ATOM     14  C   UNL     1       4.909   6.553  17.566  0.00  0.00    +0.000 C 
BRANCH  12  15
ATOM     15  C   UNL     1       6.231   4.731  14.616  0.00  0.00    +0.000 A 
ATOM     16  C   UNL     1       7.287   5.469  14.077  0.00  0.00    +0.000 A 
ATOM     17  C   UNL     1       7.788   5.170  12.803  0.00  0.00    +0.000 A 
ATOM     18  C   UNL     1       7.225   4.141  12.047  0.00  0.00    +0.000 A 
ATOM     19  C   UNL     1       6.158   3.415  12.557  0.00  0.00    +0.000 A 
ATOM     20  C   UNL     1       5.669   3.713  13.826  0.00  0.00    +0.000 A 
ENDBRANCH  12  15
ENDBRANCH   6   9
BRANCH   2  21
ATOM     21  C   UNL     1       0.553   9.773  20.926  0.00  0.00    +0.000 A 
ATOM     22  C   UNL     1       0.894   9.151  22.114  0.00  0.00    +0.000 A 
ATOM     23  C   UNL     1       0.147   9.642  23.222  0.00  0.00    +0.000 A 
ATOM     24  C   UNL     1      -0.804  10.557  22.831  0.00  0.00    +0.000 A 
ATOM     25  S   UNL     1      -0.777  10.832  21.143  0.00  0.00    +0.000 S 
ENDBRANCH   2  21
TORSDOF 3
ENDMDL
MODEL 3
REMARK VINA RESULT:      -6.5      2.757      4.499
REMARK  Name = 
REMARK  3 active torsions:
REMARK  status: ('A' for Active; 'I' for Inactive)
REMARK    1  A    between atoms: C_2  and  C_3
REMARK    2  A    between atoms: C_11  and  N_12
REMARK    3  A    between atoms: N_15  and  C_16
REMARK                            x       y       z     vdW  Elec       q    Type
REMARK                         _______ _______ _______ _____ _____    ______ ____
ROOT
ATOM      1  O   UNL     1       7.031   6.281  16.093  0.00  0.00    +0.000 OA
ATOM      2  C   UNL     1       6.429   5.251  15.792  0.00  0.00    +0.000 C 
ATOM      3  N   UNL     1       5.641   4.576  16.750  0.00  0.00    +0.000 N 
ATOM      4  C   UNL     1       5.626   5.132  18.100  0.00  0.00    +0.000 C 
ATOM      5  C   UNL     1       5.272   4.080  19.149  0.00  0.00    +0.000 C 
ATOM      6  C   UNL     1       3.994   3.282  18.822  0.00  0.00    +0.000 C 
ATOM      7  C   UNL     1       4.107   2.761  17.374  0.00  0.00    +0.000 C 
ATOM      8  C   UNL     1       4.429   3.854  16.372  0.00  0.00    +0.000 C 
ENDROOT
BRANCH   6   9
ATOM      9  N   UNL     1       2.722   3.877  19.258  0.00  0.00    +0.000 NA
ATOM     10  C   UNL     1       2.597   4.640  20.510  0.00  0.00    +0.000 C 
ATOM     11  C   UNL     1       2.786   6.177  20.399  0.00  0.00    +0.000 C 
ATOM     12  N   UNL     1       1.963   6.704  19.298  0.00  0.00    +0.000 N 
ATOM     13  C   UNL     1       2.145   5.998  18.013  0.00  0.00    +0.000 C 
ATOM     14  C   UNL     1       1.895   4.488  18.203  0.00  0.00    +0.000 C 
BRANCH  12  15
ATOM     15  C   UNL     1       1.803   8.079  19.134  0.00  0.00    +0.000 A 
ATOM     16  C   UNL     1       2.197   8.792  17.999  0.00  0.00    +0.000 A 
ATOM     17  C   UNL     1       1.937  10.165  17.894  0.00  0.00    +0.000 A 
ATOM     18  C   UNL     1       1.295  10.843  18.932  0.00  0.00    +0.000 A 
ATOM     19  C   UNL     1       0.921  10.154  20.078  0.00  0.00    +0.000 A 
ATOM     20  C   UNL     1       1.176   8.790  20.172  0.00  0.00    +0.000 A 
ENDBRANCH  12  15
ENDBRANCH   6   9
BRANCH   2  21
ATOM     21  C   UNL     1       6.511   4.660  14.461  0.00  0.00    +0.000 A 
ATOM     22  C   UNL     1       5.714   3.692  13.876  0.00  0.00    +0.000 A 
ATOM     23  C   UNL     1       6.061   3.446  12.518  0.00  0.00    +0.000 A 
ATOM     24  C   UNL     1       7.170   4.167  12.136  0.00  0.00    +0.000 A 
ATOM     25  S   UNL     1       7.769   5.146  13.404  0.00  0.00    +0.000 S 
ENDBRANCH   2  21
TORSDOF 3
ENDMDL
MODEL 4
REMARK VINA RESULT:      -6.4      1.043      1.536
REMARK  Name = 
REMARK  3 active torsions:
REMARK  status: ('A' for Active; 'I' for Inactive)
REMARK    1  A    between atoms: C_2  and  C_3
REMARK    2  A    between atoms: C_11  and  N_12
REMARK    3  A    between atoms: N_15  and  C_16
REMARK                            x       y       z     vdW  Elec       q    Type
REMARK                         _______ _______ _______ _____ _____    ______ ____
ROOT
ATOM      1  O   UNL     1       6.325   4.148  18.747  0.00  0.00    +0.000 OA
ATOM      2  C   UNL     1       5.583   4.610  17.882  0.00  0.00    +0.000 C 
ATOM      3  N   UNL     1       4.409   5.305  18.243  0.00  0.00    +0.000 N 
ATOM      4  C   UNL     1       4.109   5.397  19.669  0.00  0.00    +0.000 C 
ATOM      5  C   UNL     1       2.620   5.614  19.930  0.00  0.00    +0.000 C 
ATOM      6  C   UNL     1       2.011   6.775  19.121  0.00  0.00    +0.000 C 
ATOM      7  C   UNL     1       2.403   6.591  17.640  0.00  0.00    +0.000 C 
ATOM      8  C   UNL     1       3.896   6.411  17.438  0.00  0.00    +0.000 C 
ENDROOT
BRANCH   6   9
ATOM      9  N   UNL     1       2.120   8.115  19.715  0.00  0.00    +0.000 NA
ATOM     10  C   UNL     1       2.214   9.335  18.897  0.00  0.00    +0.000 C 
ATOM     11  C   UNL     1       0.874  10.052  18.578  0.00  0.00    +0.000 C 
ATOM     12  N   UNL     1       0.093  10.224  19.814  0.00  0.00    +0.000 N 
ATOM     13  C   UNL     1      -0.080   8.986  20.601  0.00  0.00    +0.000 C 
ATOM     14  C   UNL     1       1.297   8.365  20.911  0.00  0.00    +0.000 C 
BRANCH  12  15
ATOM     15  C   UNL     1      -1.049  11.024  19.819  0.00  0.00    +0.000 A 
ATOM     16  C   UNL     1      -1.993  11.063  18.790  0.00  0.00    +0.000 A 
ATOM     17  C   UNL     1      -3.146  11.850  18.911  0.00  0.00    +0.000 A 
ATOM     18  C   UNL     1      -3.358  12.621  20.055  0.00  0.00    +0.000 A 
ATOM     19  C   UNL     1      -2.417  12.614  21.075  0.00  0.00    +0.000 A 
ATOM     20  C   UNL     1      -1.277  11.826  20.952  0.00  0.00    +0.000 A 
ENDBRANCH  12  15
ENDBRANCH   6   9
BRANCH   2  21
ATOM     21  C   UNL     1       5.850   4.447  16.457  0.00  0.00    +0.000 A 
ATOM     22  C   UNL     1       5.106   3.794  15.490  0.00  0.00    +0.000 A 
ATOM     23  C   UNL     1       5.659   3.937  14.186  0.00  0.00    +0.000 A 
ATOM     24  C   UNL     1       6.856   4.617  14.211  0.00  0.00    +0.000 A 
ATOM     25  S   UNL     1       7.292   5.093  15.795  0.00  0.00    +0.000 S 
ENDBRANCH   2  21
TORSDOF 3
ENDMDL
MODEL 5
REMARK VINA RESULT:      -6.2      4.934      9.576
REMARK  Name = 
REMARK  3 active torsions:
REMARK  status: ('A' for Active; 'I' for Inactive)
REMARK    1  A    between atoms: C_2  and  C_3
REMARK    2  A    between atoms: C_11  and  N_12
REMARK    3  A    between atoms: N_15  and  C_16
REMARK                            x       y       z     vdW  Elec       q    Type
REMARK                         _______ _______ _______ _____ _____    ______ ____
ROOT
ATOM      1  O   UNL     1      -1.935  15.509  20.637  0.00  0.00    +0.000 OA
ATOM      2  C   UNL     1      -0.869  15.307  20.057  0.00  0.00    +0.000 C 
ATOM      3  N   UNL     1      -0.217  14.060  20.173  0.00  0.00    +0.000 N 
ATOM      4  C   UNL     1      -0.843  13.067  21.042  0.00  0.00    +0.000 C 
ATOM      5  C   UNL     1       0.164  12.043  21.560  0.00  0.00    +0.000 C 
ATOM      6  C   UNL     1       1.026  11.404  20.454  0.00  0.00    +0.000 C 
ATOM      7  C   UNL     1       1.618  12.534  19.588  0.00  0.00    +0.000 C 
ATOM      8  C   UNL     1       0.570  13.503  19.075  0.00  0.00    +0.000 C 
ENDROOT
BRANCH   6   9
ATOM      9  N   UNL     1       0.457  10.227  19.780  0.00  0.00    +0.000 NA
ATOM     10  C   UNL     1       0.538  10.038  18.323  0.00  0.00    +0.000 C 
ATOM     11  C   UNL     1       1.750   9.218  17.803  0.00  0.00    +0.000 C 
ATOM     12  N   UNL     1       1.875   7.969  18.572  0.00  0.00    +0.000 N 
ATOM     13  C   UNL     1       1.881   8.156  20.037  0.00  0.00    +0.000 C 
ATOM     14  C   UNL     1       0.624   8.937  20.471  0.00  0.00    +0.000 C 
BRANCH  12  15
ATOM     15  C   UNL     1       2.758   6.973  18.157  0.00  0.00    +0.000 A 
ATOM     16  C   UNL     1       3.954   7.208  17.474  0.00  0.00    +0.000 A 
ATOM     17  C   UNL     1       4.812   6.148  17.153  0.00  0.00    +0.000 A 
ATOM     18  C   UNL     1       4.474   4.838  17.497  0.00  0.00    +0.000 A 
ATOM     19  C   UNL     1       3.277   4.584  18.153  0.00  0.00    +0.000 A 
ATOM     20  C   UNL     1       2.433   5.642  18.474  0.00  0.00    +0.000 A 
ENDBRANCH  12  15
ENDBRANCH   6   9
BRANCH   2  21
ATOM     21  C   UNL     1      -0.212  16.331  19.252  0.00  0.00    +0.000 A 
ATOM     22  C   UNL     1      -0.569  16.844  18.018  0.00  0.00    +0.000 A 
ATOM     23  C   UNL     1       0.284  17.905  17.601  0.00  0.00    +0.000 A 
ATOM     24  C   UNL     1       1.319  18.106  18.486  0.00  0.00    +0.000 A 
ATOM     25  S   UNL     1       1.245  17.034  19.817  0.00  0.00    +0.000 S 
ENDBRANCH   2  21
TORSDOF 3
ENDMDL
MODEL 6
REMARK VINA RESULT:      -6.1      4.317      9.424
REMARK  Name = 
REMARK  3 active torsions:
REMARK  status: ('A' for Active; 'I' for Inactive)
REMARK    1  A    between atoms: C_2  and  C_3
REMARK    2  A    between atoms: C_11  and  N_12
REMARK    3  A    between atoms: N_15  and  C_16
REMARK                            x       y       z     vdW  Elec       q    Type
REMARK                         _______ _______ _______ _____ _____    ______ ____
ROOT
ATOM      1  O   UNL     1      -0.234  14.141  21.341  0.00  0.00    +0.000 OA
ATOM      2  C   UNL     1      -0.896  13.110  21.223  0.00  0.00    +0.000 C 
ATOM      3  N   UNL     1      -0.408  12.031  20.455  0.00  0.00    +0.000 N 
ATOM      4  C   UNL     1       0.874  12.226  19.783  0.00  0.00    +0.000 C 
ATOM      5  C   UNL     1       1.029  11.313  18.569  0.00  0.00    +0.000 C 
ATOM      6  C   UNL     1       0.734   9.830  18.864  0.00  0.00    +0.000 C 
ATOM      7  C   UNL     1      -0.625   9.742  19.588  0.00  0.00    +0.000 C 
ATOM      8  C   UNL     1      -0.712  10.645  20.804  0.00  0.00    +0.000 C 
ENDROOT
BRANCH   6   9
ATOM      9  N   UNL     1       1.856   9.029  19.376  0.00  0.00    +0.000 NA
ATOM     10  C   UNL     1       1.780   8.286  20.643  0.00  0.00    +0.000 C 
ATOM     11  C   UNL     1       1.325   6.804  20.544  0.00  0.00    +0.000 C 
ATOM     12  N   UNL     1       2.095   6.114  19.496  0.00  0.00    +0.000 N 
ATOM     13  C   UNL     1       2.107   6.811  18.194  0.00  0.00    +0.000 C 
ATOM     14  C   UNL     1       2.613   8.256  18.376  0.00  0.00    +0.000 C 
BRANCH  12  15
ATOM     15  C   UNL     1       2.015   4.729  19.361  0.00  0.00    +0.000 A 
ATOM     16  C   UNL     1       2.174   4.041  18.155  0.00  0.00    +0.000 A 
ATOM     17  C   UNL     1       2.142   2.641  18.125  0.00  0.00    +0.000 A 
ATOM     18  C   UNL     1       1.933   1.914  19.297  0.00  0.00    +0.000 A 
ATOM     19  C   UNL     1       1.748   2.582  20.500  0.00  0.00    +0.000 A 
ATOM     20  C   UNL     1       1.787   3.973  20.524  0.00  0.00    +0.000 A 
ENDBRANCH  12  15
ENDBRANCH   6   9
BRANCH   2  21
ATOM     21  C   UNL     1      -2.210  12.953  21.835  0.00  0.00    +0.000 A 
ATOM     22  C   UNL     1      -2.542  12.677  23.150  0.00  0.00    +0.000 A 
ATOM     23  C   UNL     1      -3.948  12.693  23.373  0.00  0.00    +0.000 A 
ATOM     24  C   UNL     1      -4.648  12.889  22.203  0.00  0.00    +0.000 A 
ATOM     25  S   UNL     1      -3.611  13.072  20.856  0.00  0.00    +0.000 S 
ENDBRANCH   2  21
TORSDOF 3
ENDMDL
MODEL 7
REMARK VINA RESULT:      -6.1      3.085      4.074
REMARK  Name = 
REMARK  3 active torsions:
REMARK  status: ('A' for Active; 'I' for Inactive)
REMARK    1  A    between atoms: C_2  and  C_3
REMARK    2  A    between atoms: C_11  and  N_12
REMARK    3  A    between atoms: N_15  and  C_16
REMARK                            x       y       z     vdW  Elec       q    Type
REMARK                         _______ _______ _______ _____ _____    ______ ____
ROOT
ATOM      1  O   UNL     1       2.205   5.705  21.240  0.00  0.00    +0.000 OA
ATOM      2  C   UNL     1       2.231   6.098  20.074  0.00  0.00    +0.000 C 
ATOM      3  N   UNL     1       1.733   7.375  19.739  0.00  0.00    +0.000 N 
ATOM      4  C   UNL     1       1.152   8.162  20.824  0.00  0.00    +0.000 C 
ATOM      5  C   UNL     1       0.156   9.199  20.311  0.00  0.00    +0.000 C 
ATOM      6  C   UNL     1       0.706  10.078  19.170  0.00  0.00    +0.000 C 
ATOM      7  C   UNL     1       1.309   9.151  18.094  0.00  0.00    +0.000 C 
ATOM      8  C   UNL     1       2.315   8.164  18.655  0.00  0.00    +0.000 C 
ENDROOT
BRANCH   6   9
ATOM      9  N   UNL     1       1.460  11.274  19.571  0.00  0.00    +0.000 NA
ATOM     10  C   UNL     1       2.033  12.210  18.591  0.00  0.00    +0.000 C 
ATOM     11  C   UNL     1       1.146  13.423  18.200  0.00  0.00    +0.000 C 
ATOM     12  N   UNL     1       0.630  14.077  19.414  0.00  0.00    +0.000 N 
ATOM     13  C   UNL     1      -0.024  13.158  20.368  0.00  0.00    +0.000 C 
ATOM     14  C   UNL     1       0.940  12.011  20.736  0.00  0.00    +0.000 C 
BRANCH  12  15
ATOM     15  C   UNL     1      -0.018  15.308  19.329  0.00  0.00    +0.000 A 
ATOM     16  C   UNL     1       0.379  16.356  18.495  0.00  0.00    +0.000 A 
ATOM     17  C   UNL     1      -0.373  17.537  18.428  0.00  0.00    +0.000 A 
ATOM     18  C   UNL     1      -1.520  17.689  19.207  0.00  0.00    +0.000 A 
ATOM     19  C   UNL     1      -1.914  16.667  20.061  0.00  0.00    +0.000 A 
ATOM     20  C   UNL     1      -1.166  15.495  20.119  0.00  0.00    +0.000 A 
ENDBRANCH  12  15
ENDBRANCH   6   9
BRANCH   2  21
ATOM     21  C   UNL     1       2.743   5.275  18.984  0.00  0.00    +0.000 A 
ATOM     22  C   UNL     1       2.053   4.535  18.040  0.00  0.00    +0.000 A 
ATOM     23  C   UNL     1       2.915   3.937  17.078  0.00  0.00    +0.000 A 
ATOM     24  C   UNL     1       4.241   4.163  17.371  0.00  0.00    +0.000 A 
ATOM     25  S   UNL     1       4.436   5.107  18.785  0.00  0.00    +0.000 S 
ENDBRANCH   2  21
TORSDOF 3
ENDMDL
MODEL 8
REMARK VINA RESULT:      -6.0      4.863      8.806
REMARK  Name = 
REMARK  3 active torsions:
REMARK  status: ('A' for Active; 'I' for Inactive)
REMARK    1  A    between atoms: C_2  and  C_3
REMARK    2  A    between atoms: C_11  and  N_12
REMARK    3  A    between atoms: N_15  and  C_16
REMARK                            x       y       z     vdW  Elec       q    Type
REMARK                         _______ _______ _______ _____ _____    ______ ____
ROOT
ATOM      1  O   UNL     1      -0.092  15.960  18.399  0.00  0.00    +0.000 OA
ATOM      2  C   UNL     1       0.825  15.352  18.948  0.00  0.00    +0.000 C 
ATOM      3  N   UNL     1       0.568  14.161  19.660  0.00  0.00    +0.000 N 
ATOM      4  C   UNL     1      -0.825  13.733  19.748  0.00  0.00    +0.000 C 
ATOM      5  C   UNL     1      -1.075  12.839  20.961  0.00  0.00    +0.000 C 
ATOM      6  C   UNL     1      -0.085  11.664  21.081  0.00  0.00    +0.000 C 
ATOM      7  C   UNL     1       1.347  12.223  20.955  0.00  0.00    +0.000 C 
ATOM      8  C   UNL     1       1.546  13.076  19.717  0.00  0.00    +0.000 C 
ENDROOT
BRANCH   6   9
ATOM      9  N   UNL     1      -0.430  10.440  20.341  0.00  0.00    +0.000 NA
ATOM     10  C   UNL     1      -0.178  10.295  18.898  0.00  0.00    +0.000 C 
ATOM     11  C   UNL     1       1.174   9.644  18.499  0.00  0.00    +0.000 C 
ATOM     12  N   UNL     1       1.377   8.404  19.265  0.00  0.00    +0.000 N 
ATOM     13  C   UNL     1       1.211   8.558  20.725  0.00  0.00    +0.000 C 
ATOM     14  C   UNL     1      -0.172   9.167  21.034  0.00  0.00    +0.000 C 
BRANCH  12  15
ATOM     15  C   UNL     1       2.416   7.534  18.935  0.00  0.00    +0.000 A 
ATOM     16  C   UNL     1       2.766   6.403  19.675  0.00  0.00    +0.000 A 
ATOM     17  C   UNL     1       3.785   5.548  19.231  0.00  0.00    +0.000 A 
ATOM     18  C   UNL     1       4.475   5.828  18.051  0.00  0.00    +0.000 A 
ATOM     19  C   UNL     1       4.157   6.962  17.318  0.00  0.00    +0.000 A 
ATOM     20  C   UNL     1       3.141   7.803  17.761  0.00  0.00    +0.000 A 
ENDBRANCH  12  15
ENDBRANCH   6   9
BRANCH   2  21
ATOM     21  C   UNL     1       2.204  15.827  18.919  0.00  0.00    +0.000 A 
ATOM     22  C   UNL     1       3.151  15.724  17.915  0.00  0.00    +0.000 A 
ATOM     23  C   UNL     1       4.362  16.401  18.236  0.00  0.00    +0.000 A 
ATOM     24  C   UNL     1       4.335  16.920  19.510  0.00  0.00    +0.000 A 
ATOM     25  S   UNL     1       2.850  16.608  20.301  0.00  0.00    +0.000 S 
ENDBRANCH   2  21
TORSDOF 3
ENDMDL
MODEL 9
REMARK VINA RESULT:      -6.0      4.979      9.591
REMARK  Name = 
REMARK  3 active torsions:
REMARK  status: ('A' for Active; 'I' for Inactive)
REMARK    1  A    between atoms: C_2  and  C_3
REMARK    2  A    between atoms: C_11  and  N_12
REMARK    3  A    between atoms: N_15  and  C_16
REMARK                            x       y       z     vdW  Elec       q    Type
REMARK                         _______ _______ _______ _____ _____    ______ ____
ROOT
ATOM      1  O   UNL     1      -2.437  15.692  20.580  0.00  0.00    +0.000 OA
ATOM      2  C   UNL     1      -1.287  15.465  20.208  0.00  0.00    +0.000 C 
ATOM      3  N   UNL     1      -0.680  14.221  20.482  0.00  0.00    +0.000 N 
ATOM      4  C   UNL     1      -1.461  13.262  21.258  0.00  0.00    +0.000 C 
ATOM      5  C   UNL     1      -0.574  12.253  21.984  0.00  0.00    +0.000 C 
ATOM      6  C   UNL     1       0.465  11.570  21.073  0.00  0.00    +0.000 C 
ATOM      7  C   UNL     1       1.215  12.667  20.289  0.00  0.00    +0.000 C 
ATOM      8  C   UNL     1       0.285  13.621  19.563  0.00  0.00    +0.000 C 
ENDROOT
BRANCH   6   9
ATOM      9  N   UNL     1       0.014  10.373  20.348  0.00  0.00    +0.000 NA
ATOM     10  C   UNL     1       0.221  10.202  18.902  0.00  0.00    +0.000 C 
ATOM     11  C   UNL     1       1.512   9.450  18.477  0.00  0.00    +0.000 C 
ATOM     12  N   UNL     1       1.639   8.202  19.247  0.00  0.00    +0.000 N 
ATOM     13  C   UNL     1       1.517   8.375  20.709  0.00  0.00    +0.000 C 
ATOM     14  C   UNL     1       0.191   9.087  21.044  0.00  0.00    +0.000 C 
BRANCH  12  15
ATOM     15  C   UNL     1       2.603   7.256  18.900  0.00  0.00    +0.000 A 
ATOM     16  C   UNL     1       2.862   6.089  19.622  0.00  0.00    +0.000 A 
ATOM     17  C   UNL     1       3.806   5.161  19.162  0.00  0.00    +0.000 A 
ATOM     18  C   UNL     1       4.513   5.400  17.982  0.00  0.00    +0.000 A 
ATOM     19  C   UNL     1       4.286   6.567  17.267  0.00  0.00    +0.000 A 
ATOM     20  C   UNL     1       3.343   7.481  17.726  0.00  0.00    +0.000 A 
ENDBRANCH  12  15
ENDBRANCH   6   9
BRANCH   2  21
ATOM     21  C   UNL     1      -0.485  16.456  19.499  0.00  0.00    +0.000 A 
ATOM     22  C   UNL     1      -0.517  16.824  18.166  0.00  0.00    +0.000 A 
ATOM     23  C   UNL     1       0.366  17.903  17.877  0.00  0.00    +0.000 A 
ATOM     24  C   UNL     1       1.109  18.264  18.978  0.00  0.00    +0.000 A 
ATOM     25  S   UNL     1       0.727  17.318  20.350  0.00  0.00    +0.000 S 
ENDBRANCH   2  21
TORSDOF 3
ENDMDL
