MODEL 1
REMARK VINA RESULT:      -7.2      0.000      0.000
REMARK  Name = 
REMARK  5 active torsions:
REMARK  status: ('A' for Active; 'I' for Inactive)
REMARK    1  A    between atoms: C_1  and  N_2
REMARK    2  A    between atoms: N_2  and  C_3
REMARK    3  A    between atoms: N_2  and  S_12
REMARK    4  A    between atoms: C_3  and  C_4
REMARK    5  A    between atoms: S_12  and  C_15
REMARK                            x       y       z     vdW  Elec       q    Type
REMARK                         _______ _______ _______ _____ _____    ______ ____
ROOT
ATOM      1  C   UNL     1       6.008   3.837  15.696  0.00  0.00    +0.000 C 
ATOM      2  N   UNL     1       4.906   4.175  16.621  0.00  0.00    +0.000 NA
ENDROOT
BRANCH   2   3
ATOM      3  S   UNL     1       5.479   5.172  17.917  0.00  0.00    +0.000 S 
ATOM      4  O   UNL     1       5.673   4.347  19.071  0.00  0.00    +0.000 OA
ATOM      5  O   UNL     1       6.553   6.000  17.383  0.00  0.00    +0.000 OA
BRANCH   3   6
ATOM      6  C   UNL     1       4.124   6.278  18.284  0.00  0.00    +0.000 A 
ATOM      7  C   UNL     1       3.367   6.061  19.440  0.00  0.00    +0.000 A 
ATOM      8  C   UNL     1       2.337   6.944  19.769  0.00  0.00    +0.000 A 
ATOM      9  C   UNL     1       2.073   8.039  18.947  0.00  0.00    +0.000 A 
ATOM     10 CL   UNL     1       0.792   9.116  19.353  0.00  0.00    +0.000 Cl
ATOM     11  C   UNL     1       2.839   8.270  17.803  0.00  0.00    +0.000 A 
ATOM     12  C   UNL     1       3.875   7.391  17.469  0.00  0.00    +0.000 A 
ENDBRANCH   3   6
ENDBRANCH   2   3
BRANCH   2  13
ATOM     13  C   UNL     1       4.181   2.940  17.112  0.00  0.00    +0.000 C 
BRANCH  13  14
ATOM     14  C   UNL     1       2.709   3.117  17.538  0.00  0.00    +0.000 C 
ATOM     15  O   UNL     1       1.925   3.820  16.899  0.00  0.00    +0.000 OA
ATOM     16  N   UNL     1       2.292   2.395  18.656  0.00  0.00    +0.000 N 
ATOM     17  C   UNL     1       0.877   2.392  19.018  0.00  0.00    +0.000 C 
ATOM     18  C   UNL     1       0.614   3.240  20.259  0.00  0.00    +0.000 C 
ATOM     19  C   UNL     1       1.539   2.833  21.405  0.00  0.00    +0.000 C 
ATOM     20  C   UNL     1       3.000   2.852  20.956  0.00  0.00    +0.000 C 
ATOM     21  C   UNL     1       3.213   1.994  19.712  0.00  0.00    +0.000 C 
ENDBRANCH  13  14
ENDBRANCH   2  13
TORSDOF 4
ENDMDL
MODEL 2
REMARK VINA RESULT:      -7.0      0.383      1.126
REMARK  Name = 
REMARK  5 active torsions:
REMARK  status: ('A' for Active; 'I' for Inactive)
REMARK    1  A    between atoms: C_1  and  N_2
REMARK    2  A    between atoms: N_2  and  C_3
REMARK    3  A    between atoms: N_2  and  S_12
REMARK    4  A    between atoms: C_3  and  C_4
REMARK    5  A    between atoms: S_12  and  C_15
REMARK                            x       y       z     vdW  Elec       q    Type
REMARK                         _______ _______ _______ _____ _____    ______ ____
ROOT
ATOM      1  C   UNL     1       5.445   4.258  15.343  0.00  0.00    +0.000 C 
ATOM      2  N   UNL     1       4.479   4.508  16.434  0.00  0.00    +0.000 NA
ENDROOT
BRANCH   2   3
ATOM      3  S   UNL     1       5.215   5.430  17.703  0.00  0.00    +0.000 S 
ATOM      4  O   UNL     1       5.518   4.546  18.788  0.00  0.00    +0.000 OA
ATOM      5  O   UNL     1       6.241   6.266  17.091  0.00  0.00    +0.000 OA
BRANCH   3   6
ATOM      6  C   UNL     1       3.934   6.539  18.271  0.00  0.00    +0.000 A 
ATOM      7  C   UNL     1       3.587   7.637  17.476  0.00  0.00    +0.000 A 
ATOM      8  C   UNL     1       2.554   8.485  17.880  0.00  0.00    +0.000 A 
ATOM      9  C   UNL     1       1.872   8.230  19.070  0.00  0.00    +0.000 A 
ATOM     10 CL   UNL     1       0.609   9.288  19.567  0.00  0.00    +0.000 Cl
ATOM     11  C   UNL     1       2.203   7.124  19.856  0.00  0.00    +0.000 A 
ATOM     12  C   UNL     1       3.234   6.268  19.455  0.00  0.00    +0.000 A 
ENDBRANCH   3   6
ENDBRANCH   2   3
BRANCH   2  13
ATOM     13  C   UNL     1       3.849   3.226  16.935  0.00  0.00    +0.000 C 
BRANCH  13  14
ATOM     14  C   UNL     1       2.441   3.336  17.555  0.00  0.00    +0.000 C 
ATOM     15  O   UNL     1       1.571   4.065  17.075  0.00  0.00    +0.000 OA
ATOM     16  N   UNL     1       2.181   2.525  18.659  0.00  0.00    +0.000 N 
ATOM     17  C   UNL     1       0.824   2.462  19.196  0.00  0.00    +0.000 C 
ATOM     18  C   UNL     1       0.709   3.211  20.521  0.00  0.00    +0.000 C 
ATOM     19  C   UNL     1       1.778   2.744  21.507  0.00  0.00    +0.000 C 
ATOM     20  C   UNL     1       3.170   2.831  20.880  0.00  0.00    +0.000 C 
ATOM     21  C   UNL     1       3.235   2.070  19.558  0.00  0.00    +0.000 C 
ENDBRANCH  13  14
ENDBRANCH   2  13
TORSDOF 4
ENDMDL
MODEL 3
REMARK VINA RESULT:      -7.0      3.265      4.839
REMARK  Name = 
REMARK  5 active torsions:
REMARK  status: ('A' for Active; 'I' for Inactive)
REMARK    1  A    between atoms: C_1  and  N_2
REMARK    2  A    between atoms: N_2  and  C_3
REMARK    3  A    between atoms: N_2  and  S_12
REMARK    4  A    between atoms: C_3  and  C_4
REMARK    5  A    between atoms: S_12  and  C_15
REMARK                            x       y       z     vdW  Elec       q    Type
REMARK                         _______ _______ _______ _____ _____    ______ ____
ROOT
ATOM      1  C   UNL     1       7.735   5.535  19.104  0.00  0.00    +0.000 C 
ATOM      2  N   UNL     1       6.522   5.305  18.290  0.00  0.00    +0.000 NA
ENDROOT
BRANCH   2   3
ATOM      3  S   UNL     1       6.461   6.412  16.958  0.00  0.00    +0.000 S 
ATOM      4  O   UNL     1       5.266   7.194  17.074  0.00  0.00    +0.000 OA
ATOM      5  O   UNL     1       7.773   7.038  16.855  0.00  0.00    +0.000 OA
BRANCH   3   6
ATOM      6  C   UNL     1       6.277   5.383  15.509  0.00  0.00    +0.000 A 
ATOM      7  C   UNL     1       7.290   5.385  14.544  0.00  0.00    +0.000 A 
ATOM      8  C   UNL     1       7.187   4.550  13.430  0.00  0.00    +0.000 A 
ATOM      9  C   UNL     1       6.078   3.715  13.289  0.00  0.00    +0.000 A 
ATOM     10 CL   UNL     1       5.952   2.698  11.906  0.00  0.00    +0.000 Cl
ATOM     11  C   UNL     1       5.075   3.696  14.260  0.00  0.00    +0.000 A 
ATOM     12  C   UNL     1       5.174   4.528  15.381  0.00  0.00    +0.000 A 
ENDBRANCH   3   6
ENDBRANCH   2   3
BRANCH   2  13
ATOM     13  C   UNL     1       5.264   5.334  19.130  0.00  0.00    +0.000 C 
BRANCH  13  14
ATOM     14  C   UNL     1       4.648   3.972  19.512  0.00  0.00    +0.000 C 
ATOM     15  O   UNL     1       5.338   2.962  19.660  0.00  0.00    +0.000 OA
ATOM     16  N   UNL     1       3.272   3.951  19.738  0.00  0.00    +0.000 N 
ATOM     17  C   UNL     1       2.651   2.735  20.255  0.00  0.00    +0.000 C 
ATOM     18  C   UNL     1       1.842   2.016  19.179  0.00  0.00    +0.000 C 
ATOM     19  C   UNL     1       0.853   2.970  18.511  0.00  0.00    +0.000 C 
ATOM     20  C   UNL     1       1.568   4.221  17.998  0.00  0.00    +0.000 C 
ATOM     21  C   UNL     1       2.364   4.903  19.108  0.00  0.00    +0.000 C 
ENDBRANCH  13  14
ENDBRANCH   2  13
TORSDOF 4
ENDMDL
MODEL 4
REMARK VINA RESULT:      -6.7      3.324      4.952
REMARK  Name = 
REMARK  5 active torsions:
REMARK  status: ('A' for Active; 'I' for Inactive)
REMARK    1  A    between atoms: C_1  and  N_2
REMARK    2  A    between atoms: N_2  and  C_3
REMARK    3  A    between atoms: N_2  and  S_12
REMARK    4  A    between atoms: C_3  and  C_4
REMARK    5  A    between atoms: S_12  and  C_15
REMARK                            x       y       z     vdW  Elec       q    Type
REMARK                         _______ _______ _______ _____ _____    ______ ____
ROOT
ATOM      1  C   UNL     1       7.646   5.136  18.430  0.00  0.00    +0.000 C 
ATOM      2  N   UNL     1       6.253   5.040  17.944  0.00  0.00    +0.000 NA
ENDROOT
BRANCH   2   3
ATOM      3  S   UNL     1       5.980   6.155  16.647  0.00  0.00    +0.000 S 
ATOM      4  O   UNL     1       4.602   6.544  16.666  0.00  0.00    +0.000 OA
ATOM      5  O   UNL     1       7.051   7.143  16.693  0.00  0.00    +0.000 OA
BRANCH   3   6
ATOM      6  C   UNL     1       6.236   5.203  15.157  0.00  0.00    +0.000 A 
ATOM      7  C   UNL     1       5.257   4.283  14.764  0.00  0.00    +0.000 A 
ATOM      8  C   UNL     1       5.417   3.567  13.577  0.00  0.00    +0.000 A 
ATOM      9  C   UNL     1       6.548   3.776  12.787  0.00  0.00    +0.000 A 
ATOM     10 CL   UNL     1       6.742   2.879  11.331  0.00  0.00    +0.000 Cl
ATOM     11  C   UNL     1       7.516   4.707  13.165  0.00  0.00    +0.000 A 
ATOM     12  C   UNL     1       7.361   5.431  14.353  0.00  0.00    +0.000 A 
ENDBRANCH   3   6
ENDBRANCH   2   3
BRANCH   2  13
ATOM     13  C   UNL     1       5.251   5.197  19.068  0.00  0.00    +0.000 C 
BRANCH  13  14
ATOM     14  C   UNL     1       4.568   3.911  19.579  0.00  0.00    +0.000 C 
ATOM     15  O   UNL     1       5.212   2.899  19.864  0.00  0.00    +0.000 OA
ATOM     16  N   UNL     1       3.187   3.967  19.757  0.00  0.00    +0.000 N 
ATOM     17  C   UNL     1       2.501   2.841  20.387  0.00  0.00    +0.000 C 
ATOM     18  C   UNL     1       1.697   2.034  19.371  0.00  0.00    +0.000 C 
ATOM     19  C   UNL     1       0.769   2.942  18.564  0.00  0.00    +0.000 C 
ATOM     20  C   UNL     1       1.550   4.099  17.939  0.00  0.00    +0.000 C 
ATOM     21  C   UNL     1       2.339   4.873  18.992  0.00  0.00    +0.000 C 
ENDBRANCH  13  14
ENDBRANCH   2  13
TORSDOF 4
ENDMDL
MODEL 5
REMARK VINA RESULT:      -6.5      3.354      4.801
REMARK  Name = 
REMARK  5 active torsions:
REMARK  status: ('A' for Active; 'I' for Inactive)
REMARK    1  A    between atoms: C_1  and  N_2
REMARK    2  A    between atoms: N_2  and  C_3
REMARK    3  A    between atoms: N_2  and  S_12
REMARK    4  A    between atoms: C_3  and  C_4
REMARK    5  A    between atoms: S_12  and  C_15
REMARK                            x       y       z     vdW  Elec       q    Type
REMARK                         _______ _______ _______ _____ _____    ______ ____
ROOT
ATOM      1  C   UNL     1       7.643   5.474  18.641  0.00  0.00    +0.000 C 
ATOM      2  N   UNL     1       6.400   5.043  17.964  0.00  0.00    +0.000 NA
ENDROOT
BRANCH   2   3
ATOM      3  S   UNL     1       5.958   6.169  16.724  0.00  0.00    +0.000 S 
ATOM      4  O   UNL     1       4.559   6.451  16.847  0.00  0.00    +0.000 OA
ATOM      5  O   UNL     1       6.954   7.233  16.731  0.00  0.00    +0.000 OA
BRANCH   3   6
ATOM      6  C   UNL     1       6.181   5.279  15.190  0.00  0.00    +0.000 A 
ATOM      7  C   UNL     1       7.376   5.441  14.481  0.00  0.00    +0.000 A 
ATOM      8  C   UNL     1       7.588   4.715  13.308  0.00  0.00    +0.000 A 
ATOM      9  C   UNL     1       6.610   3.830  12.853  0.00  0.00    +0.000 A 
ATOM     10 CL   UNL     1       6.874   2.949  11.398  0.00  0.00    +0.000 Cl
ATOM     11  C   UNL     1       5.425   3.651  13.569  0.00  0.00    +0.000 A 
ATOM     12  C   UNL     1       5.208   4.373  14.748  0.00  0.00    +0.000 A 
ENDBRANCH   3   6
ENDBRANCH   2   3
BRANCH   2  13
ATOM     13  C   UNL     1       5.280   4.791  18.950  0.00  0.00    +0.000 C 
BRANCH  13  14
ATOM     14  C   UNL     1       4.295   3.652  18.611  0.00  0.00    +0.000 C 
ATOM     15  O   UNL     1       4.344   3.044  17.540  0.00  0.00    +0.000 OA
ATOM     16  N   UNL     1       3.380   3.304  19.603  0.00  0.00    +0.000 N 
ATOM     17  C   UNL     1       2.528   2.133  19.410  0.00  0.00    +0.000 C 
ATOM     18  C   UNL     1       1.085   2.531  19.110  0.00  0.00    +0.000 C 
ATOM     19  C   UNL     1       0.558   3.505  20.164  0.00  0.00    +0.000 C 
ATOM     20  C   UNL     1       1.498   4.701  20.318  0.00  0.00    +0.000 C 
ATOM     21  C   UNL     1       2.927   4.252  20.614  0.00  0.00    +0.000 C 
ENDBRANCH  13  14
ENDBRANCH   2  13
TORSDOF 4
ENDMDL
MODEL 6
REMARK VINA RESULT:      -6.4      3.323      5.039
REMARK  Name = 
REMARK  5 active torsions:
REMARK  status: ('A' for Active; 'I' for Inactive)
REMARK    1  A    between atoms: C_1  and  N_2
REMARK    2  A    between atoms: N_2  and  C_3
REMARK    3  A    between atoms: N_2  and  S_12
REMARK    4  A    between atoms: C_3  and  C_4
REMARK    5  A    between atoms: S_12  and  C_15
REMARK                            x       y       z     vdW  Elec       q    Type
REMARK                         _______ _______ _______ _____ _____    ______ ____
ROOT
ATOM      1  C   UNL     1       6.419   5.252  18.467  0.00  0.00    +0.000 C 
ATOM      2  N   UNL     1       5.606   5.092  17.242  0.00  0.00    +0.000 NA
ENDROOT
BRANCH   2   3
ATOM      3  S   UNL     1       6.188   6.129  15.982  0.00  0.00    +0.000 S 
ATOM      4  O   UNL     1       5.180   7.106  15.698  0.00  0.00    +0.000 OA
ATOM      5  O   UNL     1       7.548   6.518  16.336  0.00  0.00    +0.000 OA
BRANCH   3   6
ATOM      6  C   UNL     1       6.322   5.078  14.543  0.00  0.00    +0.000 A 
ATOM      7  C   UNL     1       7.428   5.224  13.699  0.00  0.00    +0.000 A 
ATOM      8  C   UNL     1       7.574   4.377  12.598  0.00  0.00    +0.000 A 
ATOM      9  C   UNL     1       6.621   3.390  12.350  0.00  0.00    +0.000 A 
ATOM     10 CL   UNL     1       6.802   2.360  10.983  0.00  0.00    +0.000 Cl
ATOM     11  C   UNL     1       5.526   3.229  13.202  0.00  0.00    +0.000 A 
ATOM     12  C   UNL     1       5.375   4.072  14.309  0.00  0.00    +0.000 A 
ENDBRANCH   3   6
ENDBRANCH   2   3
BRANCH   2  13
ATOM     13  C   UNL     1       4.130   5.280  17.517  0.00  0.00    +0.000 C 
BRANCH  13  14
ATOM     14  C   UNL     1       3.284   4.002  17.696  0.00  0.00    +0.000 C 
ATOM     15  O   UNL     1       2.779   3.414  16.738  0.00  0.00    +0.000 OA
ATOM     16  N   UNL     1       3.166   3.510  18.995  0.00  0.00    +0.000 N 
ATOM     17  C   UNL     1       2.515   2.221  19.215  0.00  0.00    +0.000 C 
ATOM     18  C   UNL     1       1.130   2.389  19.833  0.00  0.00    +0.000 C 
ATOM     19  C   UNL     1       1.193   3.263  21.085  0.00  0.00    +0.000 C 
ATOM     20  C   UNL     1       1.889   4.591  20.786  0.00  0.00    +0.000 C 
ATOM     21  C   UNL     1       3.268   4.372  20.167  0.00  0.00    +0.000 C 
ENDBRANCH  13  14
ENDBRANCH   2  13
TORSDOF 4
ENDMDL
MODEL 7
REMARK VINA RESULT:      -6.3      3.058      4.614
REMARK  Name = 
REMARK  5 active torsions:
REMARK  status: ('A' for Active; 'I' for Inactive)
REMARK    1  A    between atoms: C_1  and  N_2
REMARK    2  A    between atoms: N_2  and  C_3
REMARK    3  A    between atoms: N_2  and  S_12
REMARK    4  A    between atoms: C_3  and  C_4
REMARK    5  A    between atoms: S_12  and  C_15
REMARK                            x       y       z     vdW  Elec       q    Type
REMARK                         _______ _______ _______ _____ _____    ______ ____
ROOT
ATOM      1  C   UNL     1       4.727   6.605  16.829  0.00  0.00    +0.000 C 
ATOM      2  N   UNL     1       5.677   6.325  17.926  0.00  0.00    +0.000 NA
ENDROOT
BRANCH   2   3
ATOM      3  S   UNL     1       7.219   5.849  17.295  0.00  0.00    +0.000 S 
ATOM      4  O   UNL     1       7.952   7.030  16.951  0.00  0.00    +0.000 OA
ATOM      5  O   UNL     1       7.767   4.848  18.201  0.00  0.00    +0.000 OA
BRANCH   3   6
ATOM      6  C   UNL     1       6.850   4.997  15.767  0.00  0.00    +0.000 A 
ATOM      7  C   UNL     1       5.975   3.906  15.795  0.00  0.00    +0.000 A 
ATOM      8  C   UNL     1       5.636   3.261  14.604  0.00  0.00    +0.000 A 
ATOM      9  C   UNL     1       6.167   3.711  13.395  0.00  0.00    +0.000 A 
ATOM     10 CL   UNL     1       5.754   2.901  11.933  0.00  0.00    +0.000 Cl
ATOM     11  C   UNL     1       7.025   4.812  13.362  0.00  0.00    +0.000 A 
ATOM     12  C   UNL     1       7.366   5.466  14.551  0.00  0.00    +0.000 A 
ENDBRANCH   3   6
ENDBRANCH   2   3
BRANCH   2  13
ATOM     13  C   UNL     1       5.118   5.325  18.916  0.00  0.00    +0.000 C 
BRANCH  13  14
ATOM     14  C   UNL     1       3.584   5.287  19.079  0.00  0.00    +0.000 C 
ATOM     15  O   UNL     1       2.974   6.149  19.713  0.00  0.00    +0.000 OA
ATOM     16  N   UNL     1       2.913   4.255  18.424  0.00  0.00    +0.000 N 
ATOM     17  C   UNL     1       1.453   4.251  18.405  0.00  0.00    +0.000 C 
ATOM     18  C   UNL     1       0.883   3.178  19.328  0.00  0.00    +0.000 C 
ATOM     19  C   UNL     1       1.502   1.813  19.027  0.00  0.00    +0.000 C 
ATOM     20  C   UNL     1       3.028   1.891  19.058  0.00  0.00    +0.000 C 
ATOM     21  C   UNL     1       3.551   2.979  18.123  0.00  0.00    +0.000 C 
ENDBRANCH  13  14
ENDBRANCH   2  13
TORSDOF 4
ENDMDL
MODEL 8
REMARK VINA RESULT:      -6.3      3.031      3.401
REMARK  Name = 
REMARK  5 active torsions:
REMARK  status: ('A' for Active; 'I' for Inactive)
REMARK    1  A    between atoms: C_1  and  N_2
REMARK    2  A    between atoms: N_2  and  C_3
REMARK    3  A    between atoms: N_2  and  S_12
REMARK    4  A    between atoms: C_3  and  C_4
REMARK    5  A    between atoms: S_12  and  C_15
REMARK                            x       y       z     vdW  Elec       q    Type
REMARK                         _______ _______ _______ _____ _____    ______ ____
ROOT
ATOM      1  C   UNL     1       6.499   4.040  15.425  0.00  0.00    +0.000 C 
ATOM      2  N   UNL     1       5.828   4.596  16.619  0.00  0.00    +0.000 NA
ENDROOT
BRANCH   2   3
ATOM      3  S   UNL     1       6.941   4.729  17.940  0.00  0.00    +0.000 S 
ATOM      4  O   UNL     1       6.246   4.412  19.151  0.00  0.00    +0.000 OA
ATOM      5  O   UNL     1       8.158   4.026  17.552  0.00  0.00    +0.000 OA
BRANCH   3   6
ATOM      6  C   UNL     1       7.363   6.464  18.016  0.00  0.00    +0.000 A 
ATOM      7  C   UNL     1       8.376   6.877  18.889  0.00  0.00    +0.000 A 
ATOM      8  C   UNL     1       8.753   8.220  18.925  0.00  0.00    +0.000 A 
ATOM      9  C   UNL     1       8.122   9.141  18.089  0.00  0.00    +0.000 A 
ATOM     10 CL   UNL     1       8.585  10.798  18.150  0.00  0.00    +0.000 Cl
ATOM     11  C   UNL     1       7.126   8.729  17.202  0.00  0.00    +0.000 A 
ATOM     12  C   UNL     1       6.745   7.383  17.158  0.00  0.00    +0.000 A 
ENDBRANCH   3   6
ENDBRANCH   2   3
BRANCH   2  13
ATOM     13  C   UNL     1       4.583   3.816  16.982  0.00  0.00    +0.000 C 
BRANCH  13  14
ATOM     14  C   UNL     1       3.497   4.565  17.781  0.00  0.00    +0.000 C 
ATOM     15  O   UNL     1       3.358   5.788  17.705  0.00  0.00    +0.000 OA
ATOM     16  N   UNL     1       2.639   3.783  18.554  0.00  0.00    +0.000 N 
ATOM     17  C   UNL     1       1.494   4.411  19.207  0.00  0.00    +0.000 C 
ATOM     18  C   UNL     1       1.706   4.536  20.713  0.00  0.00    +0.000 C 
ATOM     19  C   UNL     1       2.096   3.190  21.323  0.00  0.00    +0.000 C 
ATOM     20  C   UNL     1       3.295   2.589  20.590  0.00  0.00    +0.000 C 
ATOM     21  C   UNL     1       3.037   2.487  19.088  0.00  0.00    +0.000 C 
ENDBRANCH  13  14
ENDBRANCH   2  13
TORSDOF 4
ENDMDL
MODEL 9
REMARK VINA RESULT:      -6.3      2.287      4.440
REMARK  Name = 
REMARK  5 active torsions:
REMARK  status: ('A' for Active; 'I' for Inactive)
REMARK    1  A    between atoms: C_1  and  N_2
REMARK    2  A    between atoms: N_2  and  C_3
REMARK    3  A    between atoms: N_2  and  S_12
REMARK    4  A    between atoms: C_3  and  C_4
REMARK    5  A    between atoms: S_12  and  C_15
REMARK                            x       y       z     vdW  Elec       q    Type
REMARK                         _______ _______ _______ _____ _____    ______ ____
ROOT
ATOM      1  C   UNL     1       4.394   2.324  19.819  0.00  0.00    +0.000 C 
ATOM      2  N   UNL     1       4.119   3.477  18.935  0.00  0.00    +0.000 NA
ENDROOT
BRANCH   2   3
ATOM      3  S   UNL     1       2.413   3.687  18.717  0.00  0.00    +0.000 S 
ATOM      4  O   UNL     1       2.119   3.578  17.319  0.00  0.00    +0.000 OA
ATOM      5  O   UNL     1       1.744   2.848  19.704  0.00  0.00    +0.000 OA
BRANCH   3   6
ATOM      6  C   UNL     1       2.090   5.379  19.191  0.00  0.00    +0.000 A 
ATOM      7  C   UNL     1       1.628   5.643  20.485  0.00  0.00    +0.000 A 
ATOM      8  C   UNL     1       1.419   6.963  20.889  0.00  0.00    +0.000 A 
ATOM      9  C   UNL     1       1.677   8.010  20.002  0.00  0.00    +0.000 A 
ATOM     10 CL   UNL     1       1.404   9.633  20.505  0.00  0.00    +0.000 Cl
ATOM     11  C   UNL     1       2.157   7.750  18.718  0.00  0.00    +0.000 A 
ATOM     12  C   UNL     1       2.372   6.430  18.307  0.00  0.00    +0.000 A 
ENDBRANCH   3   6
ENDBRANCH   2   3
BRANCH   2  13
ATOM     13  C   UNL     1       4.867   3.374  17.624  0.00  0.00    +0.000 C 
BRANCH  13  14
ATOM     14  C   UNL     1       5.303   4.698  16.963  0.00  0.00    +0.000 C 
ATOM     15  O   UNL     1       5.235   4.873  15.744  0.00  0.00    +0.000 OA
ATOM     16  N   UNL     1       5.729   5.712  17.819  0.00  0.00    +0.000 N 
ATOM     17  C   UNL     1       6.004   7.039  17.275  0.00  0.00    +0.000 C 
ATOM     18  C   UNL     1       7.502   7.325  17.224  0.00  0.00    +0.000 C 
ATOM     19  C   UNL     1       8.152   7.076  18.585  0.00  0.00    +0.000 C 
ATOM     20  C   UNL     1       7.819   5.674  19.097  0.00  0.00    +0.000 C 
ATOM     21  C   UNL     1       6.312   5.434  19.126  0.00  0.00    +0.000 C 
ENDBRANCH  13  14
ENDBRANCH   2  13
TORSDOF 4
ENDMDL
