MODEL 1
REMARK VINA RESULT:      -8.0      0.000      0.000
REMARK  Name = 
REMARK  1 active torsions:
REMARK  status: ('A' for Active; 'I' for Inactive)
REMARK    1  A    between atoms: C_4  and  C_5
REMARK                            x       y       z     vdW  Elec       q    Type
REMARK                         _______ _______ _______ _____ _____    ______ ____
ROOT
ATOM      1  O   UNL     1       7.863   4.841  18.463  0.00  0.00    +0.000 OA
ATOM      2  C   UNL     1       6.763   4.483  18.048  0.00  0.00    +0.000 A 
ATOM      3  N   UNL     1       5.787   4.009  18.885  0.00  0.00    +0.000 N 
ATOM      4  C   UNL     1       4.545   3.594  18.456  0.00  0.00    +0.000 A 
ATOM      5  N   UNL     1       4.184   3.660  17.217  0.00  0.00    +0.000 NA
ATOM      6  C   UNL     1       5.122   4.112  16.274  0.00  0.00    +0.000 A 
ATOM      7  C   UNL     1       4.768   4.106  14.923  0.00  0.00    +0.000 A 
ATOM      8  C   UNL     1       5.691   4.486  13.943  0.00  0.00    +0.000 A 
ATOM      9  C   UNL     1       6.979   4.878  14.314  0.00  0.00    +0.000 A 
ATOM     10 CL   UNL     1       8.113   5.325  13.102  0.00  0.00    +0.000 Cl
ATOM     11  C   UNL     1       7.349   4.899  15.656  0.00  0.00    +0.000 A 
ATOM     12  C   UNL     1       6.414   4.513  16.621  0.00  0.00    +0.000 A 
ATOM     13  H   UNL     1       6.044   3.955  19.862  0.00  0.00    +0.000 HD
ENDROOT
BRANCH   4  14
ATOM     14  C   UNL     1       3.649   2.986  19.540  0.00  0.00    +0.000 C 
ATOM     15  C   UNL     1       3.028   4.049  20.462  0.00  0.00    +0.000 C 
ATOM     16  C   UNL     1       1.624   4.481  20.062  0.00  0.00    +0.000 C 
ATOM     17  C   UNL     1       0.712   3.272  19.940  0.00  0.00    +0.000 C 
ATOM     18  C   UNL     1       1.210   2.365  18.827  0.00  0.00    +0.000 C 
ATOM     19  C   UNL     1       2.658   1.919  19.032  0.00  0.00    +0.000 C 
ENDBRANCH   4  14
TORSDOF 1
ENDMDL
MODEL 2
REMARK VINA RESULT:      -7.7      2.574      3.488
REMARK  Name = 
REMARK  1 active torsions:
REMARK  status: ('A' for Active; 'I' for Inactive)
REMARK    1  A    between atoms: C_4  and  C_5
REMARK                            x       y       z     vdW  Elec       q    Type
REMARK                         _______ _______ _______ _____ _____    ______ ____
ROOT
ATOM      1  O   UNL     1       5.001   6.701  15.334  0.00  0.00    +0.000 OA
ATOM      2  C   UNL     1       5.279   5.991  16.299  0.00  0.00    +0.000 A 
ATOM      3  N   UNL     1       4.613   4.821  16.558  0.00  0.00    +0.000 N 
ATOM      4  C   UNL     1       4.891   4.003  17.631  0.00  0.00    +0.000 A 
ATOM      5  N   UNL     1       5.846   4.258  18.465  0.00  0.00    +0.000 NA
ATOM      6  C   UNL     1       6.575   5.447  18.299  0.00  0.00    +0.000 A 
ATOM      7  C   UNL     1       7.550   5.771  19.245  0.00  0.00    +0.000 A 
ATOM      8  C   UNL     1       8.256   6.975  19.156  0.00  0.00    +0.000 A 
ATOM      9  C   UNL     1       7.989   7.864  18.113  0.00  0.00    +0.000 A 
ATOM     10 CL   UNL     1       8.847   9.350  18.022  0.00  0.00    +0.000 Cl
ATOM     11  C   UNL     1       7.026   7.556  17.155  0.00  0.00    +0.000 A 
ATOM     12  C   UNL     1       6.329   6.349  17.262  0.00  0.00    +0.000 A 
ATOM     13  H   UNL     1       3.866   4.597  15.914  0.00  0.00    +0.000 HD
ENDROOT
BRANCH   4  14
ATOM     14  C   UNL     1       3.949   2.808  17.804  0.00  0.00    +0.000 C 
ATOM     15  C   UNL     1       4.027   2.187  19.209  0.00  0.00    +0.000 C 
ATOM     16  C   UNL     1       2.967   2.692  20.176  0.00  0.00    +0.000 C 
ATOM     17  C   UNL     1       1.579   2.514  19.584  0.00  0.00    +0.000 C 
ATOM     18  C   UNL     1       1.446   3.361  18.329  0.00  0.00    +0.000 C 
ATOM     19  C   UNL     1       2.515   3.040  17.284  0.00  0.00    +0.000 C 
ENDBRANCH   4  14
TORSDOF 1
ENDMDL
MODEL 3
REMARK VINA RESULT:      -7.6      5.546      7.389
REMARK  Name = 
REMARK  1 active torsions:
REMARK  status: ('A' for Active; 'I' for Inactive)
REMARK    1  A    between atoms: C_4  and  C_5
REMARK                            x       y       z     vdW  Elec       q    Type
REMARK                         _______ _______ _______ _____ _____    ______ ____
ROOT
ATOM      1  O   UNL     1       1.938   9.626  17.469  0.00  0.00    +0.000 OA
ATOM      2  C   UNL     1       1.799   8.973  18.501  0.00  0.00    +0.000 A 
ATOM      3  N   UNL     1       2.307   7.707  18.636  0.00  0.00    +0.000 N 
ATOM      4  C   UNL     1       2.166   6.943  19.775  0.00  0.00    +0.000 A 
ATOM      5  N   UNL     1       1.572   7.385  20.834  0.00  0.00    +0.000 NA
ATOM      6  C   UNL     1       0.996   8.666  20.789  0.00  0.00    +0.000 A 
ATOM      7  C   UNL     1       0.279   9.116  21.901  0.00  0.00    +0.000 A 
ATOM      8  C   UNL     1      -0.364  10.357  21.877  0.00  0.00    +0.000 A 
ATOM      9  C   UNL     1      -0.292  11.159  20.736  0.00  0.00    +0.000 A 
ATOM     10 CL   UNL     1      -1.102  12.674  20.709  0.00  0.00    +0.000 Cl
ATOM     11  C   UNL     1       0.425  10.732  19.621  0.00  0.00    +0.000 A 
ATOM     12  C   UNL     1       1.060   9.487  19.662  0.00  0.00    +0.000 A 
ATOM     13  H   UNL     1       2.783   7.343  17.822  0.00  0.00    +0.000 HD
ENDROOT
BRANCH   4  14
ATOM     14  C   UNL     1       2.703   5.513  19.672  0.00  0.00    +0.000 C 
ATOM     15  C   UNL     1       2.145   4.588  20.767  0.00  0.00    +0.000 C 
ATOM     16  C   UNL     1       0.934   3.770  20.339  0.00  0.00    +0.000 C 
ATOM     17  C   UNL     1       1.243   2.986  19.075  0.00  0.00    +0.000 C 
ATOM     18  C   UNL     1       1.531   3.946  17.933  0.00  0.00    +0.000 C 
ATOM     19  C   UNL     1       2.672   4.915  18.250  0.00  0.00    +0.000 C 
ENDBRANCH   4  14
TORSDOF 1
ENDMDL
MODEL 4
REMARK VINA RESULT:      -7.1      4.430      6.763
REMARK  Name = 
REMARK  1 active torsions:
REMARK  status: ('A' for Active; 'I' for Inactive)
REMARK    1  A    between atoms: C_4  and  C_5
REMARK                            x       y       z     vdW  Elec       q    Type
REMARK                         _______ _______ _______ _____ _____    ______ ____
ROOT
ATOM      1  O   UNL     1       2.933   5.027  20.531  0.00  0.00    +0.000 OA
ATOM      2  C   UNL     1       3.004   5.907  19.676  0.00  0.00    +0.000 A 
ATOM      3  N   UNL     1       3.855   5.816  18.605  0.00  0.00    +0.000 N 
ATOM      4  C   UNL     1       3.967   6.784  17.631  0.00  0.00    +0.000 A 
ATOM      5  N   UNL     1       3.235   7.849  17.629  0.00  0.00    +0.000 NA
ATOM      6  C   UNL     1       2.346   8.049  18.697  0.00  0.00    +0.000 A 
ATOM      7  C   UNL     1       1.615   9.238  18.745  0.00  0.00    +0.000 A 
ATOM      8  C   UNL     1       0.765   9.507  19.823  0.00  0.00    +0.000 A 
ATOM      9  C   UNL     1       0.641   8.582  20.862  0.00  0.00    +0.000 A 
ATOM     10 CL   UNL     1      -0.390   8.930  22.192  0.00  0.00    +0.000 Cl
ATOM     11  C   UNL     1       1.356   7.387  20.828  0.00  0.00    +0.000 A 
ATOM     12  C   UNL     1       2.202   7.136  19.744  0.00  0.00    +0.000 A 
ATOM     13  H   UNL     1       4.433   4.986  18.582  0.00  0.00    +0.000 HD
ENDROOT
BRANCH   4  14
ATOM     14  C   UNL     1       5.064   6.539  16.590  0.00  0.00    +0.000 C 
ATOM     15  C   UNL     1       6.466   6.904  17.107  0.00  0.00    +0.000 C 
ATOM     16  C   UNL     1       7.251   5.728  17.670  0.00  0.00    +0.000 C 
ATOM     17  C   UNL     1       7.327   4.604  16.652  0.00  0.00    +0.000 C 
ATOM     18  C   UNL     1       5.930   4.081  16.361  0.00  0.00    +0.000 C 
ATOM     19  C   UNL     1       4.979   5.174  15.875  0.00  0.00    +0.000 C 
ENDBRANCH   4  14
TORSDOF 1
ENDMDL
MODEL 5
REMARK VINA RESULT:      -7.1      4.021      6.297
REMARK  Name = 
REMARK  1 active torsions:
REMARK  status: ('A' for Active; 'I' for Inactive)
REMARK    1  A    between atoms: C_4  and  C_5
REMARK                            x       y       z     vdW  Elec       q    Type
REMARK                         _______ _______ _______ _____ _____    ______ ____
ROOT
ATOM      1  O   UNL     1       2.321   4.900  21.262  0.00  0.00    +0.000 OA
ATOM      2  C   UNL     1       2.720   5.342  20.187  0.00  0.00    +0.000 A 
ATOM      3  N   UNL     1       3.580   4.638  19.384  0.00  0.00    +0.000 N 
ATOM      4  C   UNL     1       4.054   5.103  18.176  0.00  0.00    +0.000 A 
ATOM      5  N   UNL     1       3.684   6.238  17.679  0.00  0.00    +0.000 NA
ATOM      6  C   UNL     1       2.821   7.046  18.437  0.00  0.00    +0.000 A 
ATOM      7  C   UNL     1       2.485   8.310  17.944  0.00  0.00    +0.000 A 
ATOM      8  C   UNL     1       1.680   9.174  18.694  0.00  0.00    +0.000 A 
ATOM      9  C   UNL     1       1.203   8.775  19.944  0.00  0.00    +0.000 A 
ATOM     10 CL   UNL     1       0.231   9.851  20.866  0.00  0.00    +0.000 Cl
ATOM     11  C   UNL     1       1.520   7.516  20.448  0.00  0.00    +0.000 A 
ATOM     12  C   UNL     1       2.328   6.666  19.686  0.00  0.00    +0.000 A 
ATOM     13  H   UNL     1       3.877   3.743  19.749  0.00  0.00    +0.000 HD
ENDROOT
BRANCH   4  14
ATOM     14  C   UNL     1       5.098   4.211  17.498  0.00  0.00    +0.000 C 
ATOM     15  C   UNL     1       4.790   3.960  16.012  0.00  0.00    +0.000 C 
ATOM     16  C   UNL     1       5.511   4.900  15.056  0.00  0.00    +0.000 C 
ATOM     17  C   UNL     1       7.008   4.870  15.310  0.00  0.00    +0.000 C 
ATOM     18  C   UNL     1       7.301   5.384  16.710  0.00  0.00    +0.000 C 
ATOM     19  C   UNL     1       6.563   4.597  17.794  0.00  0.00    +0.000 C 
ENDBRANCH   4  14
TORSDOF 1
ENDMDL
MODEL 6
REMARK VINA RESULT:      -7.1      2.775      3.324
REMARK  Name = 
REMARK  1 active torsions:
REMARK  status: ('A' for Active; 'I' for Inactive)
REMARK    1  A    between atoms: C_4  and  C_5
REMARK                            x       y       z     vdW  Elec       q    Type
REMARK                         _______ _______ _______ _____ _____    ______ ____
ROOT
ATOM      1  O   UNL     1       3.085   7.515  17.415  0.00  0.00    +0.000 OA
ATOM      2  C   UNL     1       3.706   6.503  17.731  0.00  0.00    +0.000 A 
ATOM      3  N   UNL     1       3.074   5.328  18.046  0.00  0.00    +0.000 N 
ATOM      4  C   UNL     1       3.736   4.175  18.410  0.00  0.00    +0.000 A 
ATOM      5  N   UNL     1       5.027   4.101  18.442  0.00  0.00    +0.000 NA
ATOM      6  C   UNL     1       5.767   5.259  18.157  0.00  0.00    +0.000 A 
ATOM      7  C   UNL     1       7.159   5.208  18.272  0.00  0.00    +0.000 A 
ATOM      8  C   UNL     1       7.933   6.354  18.061  0.00  0.00    +0.000 A 
ATOM      9  C   UNL     1       7.315   7.562  17.729  0.00  0.00    +0.000 A 
ATOM     10 CL   UNL     1       8.272   8.969  17.490  0.00  0.00    +0.000 Cl
ATOM     11  C   UNL     1       5.930   7.631  17.601  0.00  0.00    +0.000 A 
ATOM     12  C   UNL     1       5.173   6.476  17.819  0.00  0.00    +0.000 A 
ATOM     13  H   UNL     1       2.064   5.360  18.020  0.00  0.00    +0.000 HD
ENDROOT
BRANCH   4  14
ATOM     14  C   UNL     1       2.837   3.013  18.838  0.00  0.00    +0.000 C 
ATOM     15  C   UNL     1       3.355   2.290  20.093  0.00  0.00    +0.000 C 
ATOM     16  C   UNL     1       2.729   2.770  21.395  0.00  0.00    +0.000 C 
ATOM     17  C   UNL     1       1.214   2.693  21.315  0.00  0.00    +0.000 C 
ATOM     18  C   UNL     1       0.710   3.632  20.231  0.00  0.00    +0.000 C 
ATOM     19  C   UNL     1       1.329   3.341  18.864  0.00  0.00    +0.000 C 
ENDBRANCH   4  14
TORSDOF 1
ENDMDL
MODEL 7
REMARK VINA RESULT:      -7.1      5.504      7.444
REMARK  Name = 
REMARK  1 active torsions:
REMARK  status: ('A' for Active; 'I' for Inactive)
REMARK    1  A    between atoms: C_4  and  C_5
REMARK                            x       y       z     vdW  Elec       q    Type
REMARK                         _______ _______ _______ _____ _____    ______ ____
ROOT
ATOM      1  O   UNL     1       1.959   9.551  17.422  0.00  0.00    +0.000 OA
ATOM      2  C   UNL     1       1.842   8.898  18.457  0.00  0.00    +0.000 A 
ATOM      3  N   UNL     1       2.395   7.652  18.599  0.00  0.00    +0.000 N 
ATOM      4  C   UNL     1       2.279   6.888  19.740  0.00  0.00    +0.000 A 
ATOM      5  N   UNL     1       1.668   7.313  20.797  0.00  0.00    +0.000 NA
ATOM      6  C   UNL     1       1.046   8.571  20.746  0.00  0.00    +0.000 A 
ATOM      7  C   UNL     1       0.311   9.000  21.854  0.00  0.00    +0.000 A 
ATOM      8  C   UNL     1      -0.377  10.217  21.824  0.00  0.00    +0.000 A 
ATOM      9  C   UNL     1      -0.331  11.016  20.679  0.00  0.00    +0.000 A 
ATOM     10 CL   UNL     1      -1.195  12.501  20.644  0.00  0.00    +0.000 Cl
ATOM     11  C   UNL     1       0.403  10.610  19.567  0.00  0.00    +0.000 A 
ATOM     12  C   UNL     1       1.082   9.390  19.615  0.00  0.00    +0.000 A 
ATOM     13  H   UNL     1       2.885   7.301  17.787  0.00  0.00    +0.000 HD
ENDROOT
BRANCH   4  14
ATOM     14  C   UNL     1       2.868   5.478  19.645  0.00  0.00    +0.000 C 
ATOM     15  C   UNL     1       1.800   4.404  19.374  0.00  0.00    +0.000 C 
ATOM     16  C   UNL     1       1.639   4.038  17.906  0.00  0.00    +0.000 C 
ATOM     17  C   UNL     1       2.976   3.631  17.310  0.00  0.00    +0.000 C 
ATOM     18  C   UNL     1       3.934   4.810  17.350  0.00  0.00    +0.000 C 
ATOM     19  C   UNL     1       4.129   5.366  18.762  0.00  0.00    +0.000 C 
ENDBRANCH   4  14
TORSDOF 1
ENDMDL
MODEL 8
REMARK VINA RESULT:      -7.0      2.220      3.121
REMARK  Name = 
REMARK  1 active torsions:
REMARK  status: ('A' for Active; 'I' for Inactive)
REMARK    1  A    between atoms: C_4  and  C_5
REMARK                            x       y       z     vdW  Elec       q    Type
REMARK                         _______ _______ _______ _____ _____    ______ ____
ROOT
ATOM      1  O   UNL     1       4.493   5.335  15.604  0.00  0.00    +0.000 OA
ATOM      2  C   UNL     1       4.812   4.927  16.719  0.00  0.00    +0.000 A 
ATOM      3  N   UNL     1       4.158   3.888  17.329  0.00  0.00    +0.000 N 
ATOM      4  C   UNL     1       4.482   3.407  18.579  0.00  0.00    +0.000 A 
ATOM      5  N   UNL     1       5.471   3.878  19.265  0.00  0.00    +0.000 NA
ATOM      6  C   UNL     1       6.192   4.961  18.736  0.00  0.00    +0.000 A 
ATOM      7  C   UNL     1       7.207   5.529  19.510  0.00  0.00    +0.000 A 
ATOM      8  C   UNL     1       7.908   6.649  19.051  0.00  0.00    +0.000 A 
ATOM      9  C   UNL     1       7.597   7.207  17.809  0.00  0.00    +0.000 A 
ATOM     10 CL   UNL     1       8.450   8.594  17.262  0.00  0.00    +0.000 Cl
ATOM     11  C   UNL     1       6.593   6.650  17.020  0.00  0.00    +0.000 A 
ATOM     12  C   UNL     1       5.902   5.532  17.496  0.00  0.00    +0.000 A 
ATOM     13  H   UNL     1       3.384   3.498  16.807  0.00  0.00    +0.000 HD
ENDROOT
BRANCH   4  14
ATOM     14  C   UNL     1       3.547   2.323  19.124  0.00  0.00    +0.000 C 
ATOM     15  C   UNL     1       3.620   2.190  20.655  0.00  0.00    +0.000 C 
ATOM     16  C   UNL     1       2.548   2.971  21.402  0.00  0.00    +0.000 C 
ATOM     17  C   UNL     1       1.167   2.597  20.893  0.00  0.00    +0.000 C 
ATOM     18  C   UNL     1       1.036   2.991  19.431  0.00  0.00    +0.000 C 
ATOM     19  C   UNL     1       2.116   2.360  18.550  0.00  0.00    +0.000 C 
ENDBRANCH   4  14
TORSDOF 1
ENDMDL
MODEL 9
REMARK VINA RESULT:      -6.9      3.570      6.368
REMARK  Name = 
REMARK  1 active torsions:
REMARK  status: ('A' for Active; 'I' for Inactive)
REMARK    1  A    between atoms: C_4  and  C_5
REMARK                            x       y       z     vdW  Elec       q    Type
REMARK                         _______ _______ _______ _____ _____    ______ ____
ROOT
ATOM      1  O   UNL     1       2.033   7.098  19.839  0.00  0.00    +0.000 OA
ATOM      2  C   UNL     1       2.897   6.313  19.454  0.00  0.00    +0.000 A 
ATOM      3  N   UNL     1       3.829   6.660  18.511  0.00  0.00    +0.000 N 
ATOM      4  C   UNL     1       4.807   5.806  18.051  0.00  0.00    +0.000 A 
ATOM      5  N   UNL     1       4.950   4.607  18.511  0.00  0.00    +0.000 NA
ATOM      6  C   UNL     1       4.030   4.147  19.466  0.00  0.00    +0.000 A 
ATOM      7  C   UNL     1       4.127   2.824  19.906  0.00  0.00    +0.000 A 
ATOM      8  C   UNL     1       3.193   2.303  20.808  0.00  0.00    +0.000 A 
ATOM      9  C   UNL     1       2.154   3.109  21.278  0.00  0.00    +0.000 A 
ATOM     10 CL   UNL     1       1.000   2.455  22.372  0.00  0.00    +0.000 Cl
ATOM     11  C   UNL     1       2.045   4.433  20.859  0.00  0.00    +0.000 A 
ATOM     12  C   UNL     1       2.986   4.935  19.955  0.00  0.00    +0.000 A 
ATOM     13  H   UNL     1       3.741   7.597  18.141  0.00  0.00    +0.000 HD
ENDROOT
BRANCH   4  14
ATOM     14  C   UNL     1       5.669   6.355  16.910  0.00  0.00    +0.000 C 
ATOM     15  C   UNL     1       7.144   5.931  17.021  0.00  0.00    +0.000 C 
ATOM     16  C   UNL     1       7.502   4.696  16.205  0.00  0.00    +0.000 C 
ATOM     17  C   UNL     1       7.103   4.886  14.752  0.00  0.00    +0.000 C 
ATOM     18  C   UNL     1       5.594   5.037  14.650  0.00  0.00    +0.000 C 
ATOM     19  C   UNL     1       5.057   6.187  15.503  0.00  0.00    +0.000 C 
ENDBRANCH   4  14
TORSDOF 1
ENDMDL
