MODEL 1
REMARK VINA RESULT:      -8.9      0.000      0.000
REMARK  Name = 
REMARK  6 active torsions:
REMARK  status: ('A' for Active; 'I' for Inactive)
REMARK    1  A    between atoms: C_1  and  C_2
REMARK    2  A    between atoms: C_5  and  S_6
REMARK    3  A    between atoms: S_6  and  N_9
REMARK    4  A    between atoms: N_9  and  C_10
REMARK    5  A    between atoms: N_18  and  C_19
REMARK    6  A    between atoms: C_19  and  C_20
REMARK                            x       y       z     vdW  Elec       q    Type
REMARK                         _______ _______ _______ _____ _____    ______ ____
ROOT
ATOM      1  C   UNL     1       2.660   5.569  19.235  0.00  0.00    +0.000 A 
ATOM      2  C   UNL     1       2.137   5.536  20.546  0.00  0.00    +0.000 A 
ATOM      3  C   UNL     1       1.519   6.668  21.105  0.00  0.00    +0.000 A 
ATOM      4  C   UNL     1       1.421   7.795  20.306  0.00  0.00    +0.000 A 
ATOM      5  C   UNL     1       1.902   7.793  19.011  0.00  0.00    +0.000 A 
ATOM      6  C   UNL     1       2.532   6.706  18.443  0.00  0.00    +0.000 A 
ATOM      7  C   UNL     1       1.689   9.118  18.450  0.00  0.00    +0.000 C 
ATOM      8  O   UNL     1       2.016   9.433  17.322  0.00  0.00    +0.000 OA
ATOM      9  N   UNL     1       1.118   9.872  19.433  0.00  0.00    +0.000 N 
ATOM     10  C   UNL     1       0.920   9.151  20.580  0.00  0.00    +0.000 C 
ATOM     11  O   UNL     1       0.472   9.516  21.651  0.00  0.00    +0.000 OA
ENDROOT
BRANCH   1  12
ATOM     12  N   UNL     1       3.343   4.440  18.711  0.00  0.00    +0.000 N 
ATOM     13  H   UNL     1       2.883   3.534  18.800  0.00  0.00    +0.000 HD
BRANCH  12  14
ATOM     14  S   UNL     1       5.013   4.301  18.926  0.00  0.00    +0.000 S 
ATOM     15  O   UNL     1       5.315   2.963  19.391  0.00  0.00    +0.000 OA
ATOM     16  O   UNL     1       5.414   5.473  19.675  0.00  0.00    +0.000 OA
BRANCH  14  21
ATOM     17  C   UNL     1       7.271   4.739  13.296  0.00  0.00    +0.000 C 
ATOM     18  C   UNL     1       6.718   4.661  14.690  0.00  0.00    +0.000 A 
ATOM     19  C   UNL     1       7.542   4.868  15.804  0.00  0.00    +0.000 A 
ATOM     20  C   UNL     1       7.022   4.773  17.097  0.00  0.00    +0.000 A 
ATOM     21  C   UNL     1       5.666   4.476  17.277  0.00  0.00    +0.000 A 
ATOM     22  C   UNL     1       4.838   4.249  16.175  0.00  0.00    +0.000 A 
ATOM     23  C   UNL     1       5.364   4.350  14.885  0.00  0.00    +0.000 A 
ENDBRANCH  14  21
ENDBRANCH  12  14
ENDBRANCH   1  12
BRANCH   9  24
ATOM     24  C   UNL     1       0.873  11.288  19.287  0.00  0.00    +0.000 C 
BRANCH  24  25
ATOM     25  C   UNL     1      -0.601  11.620  19.271  0.00  0.00    +0.000 A 
ATOM     26  C   UNL     1      -1.170  12.350  20.322  0.00  0.00    +0.000 A 
ATOM     27  C   UNL     1      -2.536  12.646  20.319  0.00  0.00    +0.000 A 
ATOM     28  C   UNL     1      -3.352  12.203  19.274  0.00  0.00    +0.000 A 
ATOM     29 CL   UNL     1      -5.036  12.585  19.353  0.00  0.00    +0.000 Cl
ATOM     30  C   UNL     1      -2.796  11.473  18.219  0.00  0.00    +0.000 A 
ATOM     31 CL   UNL     1      -3.741  10.890  16.895  0.00  0.00    +0.000 Cl
ATOM     32  C   UNL     1      -1.425  11.186  18.219  0.00  0.00    +0.000 A 
ENDBRANCH  24  25
ENDBRANCH   9  24
TORSDOF 5
ENDMDL
MODEL 2
REMARK VINA RESULT:      -8.7      0.578      1.325
REMARK  Name = 
REMARK  6 active torsions:
REMARK  status: ('A' for Active; 'I' for Inactive)
REMARK    1  A    between atoms: C_1  and  C_2
REMARK    2  A    between atoms: C_5  and  S_6
REMARK    3  A    between atoms: S_6  and  N_9
REMARK    4  A    between atoms: N_9  and  C_10
REMARK    5  A    between atoms: N_18  and  C_19
REMARK    6  A    between atoms: C_19  and  C_20
REMARK                            x       y       z     vdW  Elec       q    Type
REMARK                         _______ _______ _______ _____ _____    ______ ____
ROOT
ATOM      1  C   UNL     1       2.672   5.559  19.246  0.00  0.00    +0.000 A 
ATOM      2  C   UNL     1       2.146   5.509  20.554  0.00  0.00    +0.000 A 
ATOM      3  C   UNL     1       1.518   6.630  21.123  0.00  0.00    +0.000 A 
ATOM      4  C   UNL     1       1.413   7.765  20.336  0.00  0.00    +0.000 A 
ATOM      5  C   UNL     1       1.898   7.780  19.042  0.00  0.00    +0.000 A 
ATOM      6  C   UNL     1       2.538   6.704  18.465  0.00  0.00    +0.000 A 
ATOM      7  C   UNL     1       1.677   9.110  18.494  0.00  0.00    +0.000 C 
ATOM      8  O   UNL     1       2.005   9.438  17.371  0.00  0.00    +0.000 OA
ATOM      9  N   UNL     1       1.098   9.849  19.483  0.00  0.00    +0.000 N 
ATOM     10  C   UNL     1       0.902   9.115  20.623  0.00  0.00    +0.000 C 
ATOM     11  O   UNL     1       0.448   9.465  21.696  0.00  0.00    +0.000 OA
ENDROOT
BRANCH   1  12
ATOM     12  N   UNL     1       3.364   4.441  18.711  0.00  0.00    +0.000 N 
ATOM     13  H   UNL     1       2.914   3.530  18.796  0.00  0.00    +0.000 HD
BRANCH  12  14
ATOM     14  S   UNL     1       5.037   4.317  18.922  0.00  0.00    +0.000 S 
ATOM     15  O   UNL     1       5.351   2.986  19.397  0.00  0.00    +0.000 OA
ATOM     16  O   UNL     1       5.431   5.499  19.659  0.00  0.00    +0.000 OA
BRANCH  14  21
ATOM     17  C   UNL     1       7.266   4.725  13.278  0.00  0.00    +0.000 C 
ATOM     18  C   UNL     1       6.720   4.654  14.675  0.00  0.00    +0.000 A 
ATOM     19  C   UNL     1       7.556   4.841  15.784  0.00  0.00    +0.000 A 
ATOM     20  C   UNL     1       7.043   4.753  17.081  0.00  0.00    +0.000 A 
ATOM     21  C   UNL     1       5.683   4.484  17.269  0.00  0.00    +0.000 A 
ATOM     22  C   UNL     1       4.843   4.276  16.172  0.00  0.00    +0.000 A 
ATOM     23  C   UNL     1       5.362   4.371  14.878  0.00  0.00    +0.000 A 
ENDBRANCH  14  21
ENDBRANCH  12  14
ENDBRANCH   1  12
BRANCH   9  24
ATOM     24  C   UNL     1       0.843  11.264  19.351  0.00  0.00    +0.000 C 
BRANCH  24  25
ATOM     25  C   UNL     1      -0.633  11.589  19.361  0.00  0.00    +0.000 A 
ATOM     26  C   UNL     1      -1.453  11.179  18.303  0.00  0.00    +0.000 A 
ATOM     27  C   UNL     1      -2.815  11.491  18.301  0.00  0.00    +0.000 A 
ATOM     28  C   UNL     1      -3.372  12.229  19.350  0.00  0.00    +0.000 A 
ATOM     29 CL   UNL     1      -5.057  12.600  19.265  0.00  0.00    +0.000 Cl
ATOM     30  C   UNL     1      -2.563  12.645  20.413  0.00  0.00    +0.000 A 
ATOM     31 CL   UNL     1      -3.178  13.563  21.741  0.00  0.00    +0.000 Cl
ATOM     32  C   UNL     1      -1.200  12.323  20.417  0.00  0.00    +0.000 A 
ENDBRANCH  24  25
ENDBRANCH   9  24
TORSDOF 5
ENDMDL
MODEL 3
REMARK VINA RESULT:      -8.7      1.045      1.810
REMARK  Name = 
REMARK  6 active torsions:
REMARK  status: ('A' for Active; 'I' for Inactive)
REMARK    1  A    between atoms: C_1  and  C_2
REMARK    2  A    between atoms: C_5  and  S_6
REMARK    3  A    between atoms: S_6  and  N_9
REMARK    4  A    between atoms: N_9  and  C_10
REMARK    5  A    between atoms: N_18  and  C_19
REMARK    6  A    between atoms: C_19  and  C_20
REMARK                            x       y       z     vdW  Elec       q    Type
REMARK                         _______ _______ _______ _____ _____    ______ ____
ROOT
ATOM      1  C   UNL     1       3.463   5.591  18.936  0.00  0.00    +0.000 A 
ATOM      2  C   UNL     1       2.870   5.349  20.194  0.00  0.00    +0.000 A 
ATOM      3  C   UNL     1       2.013   6.297  20.781  0.00  0.00    +0.000 A 
ATOM      4  C   UNL     1       1.757   7.451  20.061  0.00  0.00    +0.000 A 
ATOM      5  C   UNL     1       2.314   7.650  18.813  0.00  0.00    +0.000 A 
ATOM      6  C   UNL     1       3.174   6.749  18.221  0.00  0.00    +0.000 A 
ATOM      7  C   UNL     1       1.892   8.957  18.333  0.00  0.00    +0.000 C 
ATOM      8  O   UNL     1       2.228   9.422  17.262  0.00  0.00    +0.000 OA
ATOM      9  N   UNL     1       1.125   9.505  19.319  0.00  0.00    +0.000 N 
ATOM     10  C   UNL     1       0.992   8.665  20.392  0.00  0.00    +0.000 C 
ATOM     11  O   UNL     1       0.413   8.847  21.446  0.00  0.00    +0.000 OA
ENDROOT
BRANCH   1  12
ATOM     12  N   UNL     1       4.379   4.655  18.388  0.00  0.00    +0.000 N 
ATOM     13  H   UNL     1       4.371   3.712  18.776  0.00  0.00    +0.000 HD
BRANCH  12  14
ATOM     14  S   UNL     1       5.952   5.149  18.016  0.00  0.00    +0.000 S 
ATOM     15  O   UNL     1       6.885   4.362  18.795  0.00  0.00    +0.000 OA
ATOM     16  O   UNL     1       5.939   6.595  18.082  0.00  0.00    +0.000 OA
BRANCH  14  21
ATOM     17  C   UNL     1       6.531   3.757  12.124  0.00  0.00    +0.000 C 
ATOM     18  C   UNL     1       6.390   4.071  13.586  0.00  0.00    +0.000 A 
ATOM     19  C   UNL     1       5.244   3.691  14.296  0.00  0.00    +0.000 A 
ATOM     20  C   UNL     1       5.113   4.006  15.651  0.00  0.00    +0.000 A 
ATOM     21  C   UNL     1       6.140   4.699  16.302  0.00  0.00    +0.000 A 
ATOM     22  C   UNL     1       7.280   5.100  15.600  0.00  0.00    +0.000 A 
ATOM     23  C   UNL     1       7.406   4.777  14.247  0.00  0.00    +0.000 A 
ENDBRANCH  14  21
ENDBRANCH  12  14
ENDBRANCH   1  12
BRANCH   9  24
ATOM     24  C   UNL     1       0.627  10.860  19.256  0.00  0.00    +0.000 C 
BRANCH  24  25
ATOM     25  C   UNL     1      -0.824  10.923  18.841  0.00  0.00    +0.000 A 
ATOM     26  C   UNL     1      -1.285  10.151  17.768  0.00  0.00    +0.000 A 
ATOM     27  C   UNL     1      -2.623  10.219  17.370  0.00  0.00    +0.000 A 
ATOM     28  C   UNL     1      -3.514  11.070  18.032  0.00  0.00    +0.000 A 
ATOM     29 CL   UNL     1      -5.146  11.121  17.466  0.00  0.00    +0.000 Cl
ATOM     30  C   UNL     1      -3.065  11.847  19.104  0.00  0.00    +0.000 A 
ATOM     31 CL   UNL     1      -4.105  12.924  19.967  0.00  0.00    +0.000 Cl
ATOM     32  C   UNL     1      -1.726  11.770  19.507  0.00  0.00    +0.000 A 
ENDBRANCH  24  25
ENDBRANCH   9  24
TORSDOF 5
ENDMDL
MODEL 4
REMARK VINA RESULT:      -8.6      1.188      1.649
REMARK  Name = 
REMARK  6 active torsions:
REMARK  status: ('A' for Active; 'I' for Inactive)
REMARK    1  A    between atoms: C_1  and  C_2
REMARK    2  A    between atoms: C_5  and  S_6
REMARK    3  A    between atoms: S_6  and  N_9
REMARK    4  A    between atoms: N_9  and  C_10
REMARK    5  A    between atoms: N_18  and  C_19
REMARK    6  A    between atoms: C_19  and  C_20
REMARK                            x       y       z     vdW  Elec       q    Type
REMARK                         _______ _______ _______ _____ _____    ______ ____
ROOT
ATOM      1  C   UNL     1       3.264   5.528  19.331  0.00  0.00    +0.000 A 
ATOM      2  C   UNL     1       2.532   5.357  20.527  0.00  0.00    +0.000 A 
ATOM      3  C   UNL     1       1.659   6.358  20.987  0.00  0.00    +0.000 A 
ATOM      4  C   UNL     1       1.529   7.494  20.205  0.00  0.00    +0.000 A 
ATOM      5  C   UNL     1       2.222   7.623  19.017  0.00  0.00    +0.000 A 
ATOM      6  C   UNL     1       3.101   6.668  18.551  0.00  0.00    +0.000 A 
ATOM      7  C   UNL     1       1.908   8.926  18.452  0.00  0.00    +0.000 C 
ATOM      8  O   UNL     1       2.374   9.337  17.407  0.00  0.00    +0.000 OA
ATOM      9  N   UNL     1       1.066   9.541  19.331  0.00  0.00    +0.000 N 
ATOM     10  C   UNL     1       0.785   8.747  20.411  0.00  0.00    +0.000 C 
ATOM     11  O   UNL     1       0.107   8.991  21.391  0.00  0.00    +0.000 OA
ENDROOT
BRANCH   1  12
ATOM     12  N   UNL     1       4.192   4.538  18.916  0.00  0.00    +0.000 N 
ATOM     13  H   UNL     1       5.180   4.792  18.922  0.00  0.00    +0.000 HD
BRANCH  12  14
ATOM     14  S   UNL     1       3.824   3.551  17.594  0.00  0.00    +0.000 S 
ATOM     15  O   UNL     1       2.514   3.910  17.093  0.00  0.00    +0.000 OA
ATOM     16  O   UNL     1       4.134   2.200  18.010  0.00  0.00    +0.000 OA
BRANCH  14  21
ATOM     17  C   UNL     1       7.877   5.290  13.405  0.00  0.00    +0.000 C 
ATOM     18  C   UNL     1       6.884   4.832  14.435  0.00  0.00    +0.000 A 
ATOM     19  C   UNL     1       5.739   4.117  14.061  0.00  0.00    +0.000 A 
ATOM     20  C   UNL     1       4.811   3.712  15.024  0.00  0.00    +0.000 A 
ATOM     21  C   UNL     1       5.034   4.018  16.371  0.00  0.00    +0.000 A 
ATOM     22  C   UNL     1       6.162   4.748  16.754  0.00  0.00    +0.000 A 
ATOM     23  C   UNL     1       7.088   5.145  15.787  0.00  0.00    +0.000 A 
ENDBRANCH  14  21
ENDBRANCH  12  14
ENDBRANCH   1  12
BRANCH   9  24
ATOM     24  C   UNL     1       0.634  10.910  19.170  0.00  0.00    +0.000 C 
BRANCH  24  25
ATOM     25  C   UNL     1      -0.790  11.012  18.677  0.00  0.00    +0.000 A 
ATOM     26  C   UNL     1      -1.734  11.754  19.397  0.00  0.00    +0.000 A 
ATOM     27  C   UNL     1      -3.056  11.838  18.953  0.00  0.00    +0.000 A 
ATOM     28  C   UNL     1      -3.455  11.170  17.791  0.00  0.00    +0.000 A 
ATOM     29 CL   UNL     1      -5.112  11.299  17.319  0.00  0.00    +0.000 Cl
ATOM     30  C   UNL     1      -2.521  10.426  17.063  0.00  0.00    +0.000 A 
ATOM     31 CL   UNL     1      -2.940   9.572  15.620  0.00  0.00    +0.000 Cl
ATOM     32  C   UNL     1      -1.195  10.351  17.504  0.00  0.00    +0.000 A 
ENDBRANCH  24  25
ENDBRANCH   9  24
TORSDOF 5
ENDMDL
MODEL 5
REMARK VINA RESULT:      -8.6      0.920      2.013
REMARK  Name = 
REMARK  6 active torsions:
REMARK  status: ('A' for Active; 'I' for Inactive)
REMARK    1  A    between atoms: C_1  and  C_2
REMARK    2  A    between atoms: C_5  and  S_6
REMARK    3  A    between atoms: S_6  and  N_9
REMARK    4  A    between atoms: N_9  and  C_10
REMARK    5  A    between atoms: N_18  and  C_19
REMARK    6  A    between atoms: C_19  and  C_20
REMARK                            x       y       z     vdW  Elec       q    Type
REMARK                         _______ _______ _______ _____ _____    ______ ____
ROOT
ATOM      1  C   UNL     1       2.962   6.176  18.792  0.00  0.00    +0.000 A 
ATOM      2  C   UNL     1       3.382   6.979  17.710  0.00  0.00    +0.000 A 
ATOM      3  C   UNL     1       2.997   8.327  17.620  0.00  0.00    +0.000 A 
ATOM      4  C   UNL     1       2.219   8.834  18.648  0.00  0.00    +0.000 A 
ATOM      5  C   UNL     1       1.852   8.042  19.719  0.00  0.00    +0.000 A 
ATOM      6  C   UNL     1       2.197   6.711  19.824  0.00  0.00    +0.000 A 
ATOM      7  C   UNL     1       1.016   8.839  20.603  0.00  0.00    +0.000 C 
ATOM      8  O   UNL     1       0.529   8.415  21.633  0.00  0.00    +0.000 OA
ATOM      9  N   UNL     1       0.886  10.064  20.019  0.00  0.00    +0.000 N 
ATOM     10  C   UNL     1       1.580  10.146  18.841  0.00  0.00    +0.000 C 
ATOM     11  O   UNL     1       1.653  11.069  18.052  0.00  0.00    +0.000 OA
ENDROOT
BRANCH   1  12
ATOM     12  N   UNL     1       3.303   4.798  18.833  0.00  0.00    +0.000 N 
ATOM     13  H   UNL     1       2.677   4.178  19.346  0.00  0.00    +0.000 HD
BRANCH  12  14
ATOM     14  S   UNL     1       4.918   4.345  19.040  0.00  0.00    +0.000 S 
ATOM     15  O   UNL     1       4.962   2.980  19.521  0.00  0.00    +0.000 OA
ATOM     16  O   UNL     1       5.542   5.427  19.771  0.00  0.00    +0.000 OA
BRANCH  14  21
ATOM     17  C   UNL     1       7.131   4.597  13.381  0.00  0.00    +0.000 C 
ATOM     18  C   UNL     1       6.584   4.505  14.777  0.00  0.00    +0.000 A 
ATOM     19  C   UNL     1       5.267   4.084  15.006  0.00  0.00    +0.000 A 
ATOM     20  C   UNL     1       4.760   4.020  16.307  0.00  0.00    +0.000 A 
ATOM     21  C   UNL     1       5.579   4.373  17.386  0.00  0.00    +0.000 A 
ATOM     22  C   UNL     1       6.887   4.812  17.168  0.00  0.00    +0.000 A 
ATOM     23  C   UNL     1       7.389   4.868  15.866  0.00  0.00    +0.000 A 
ENDBRANCH  14  21
ENDBRANCH  12  14
ENDBRANCH   1  12
BRANCH   9  24
ATOM     24  C   UNL     1       0.017  11.091  20.545  0.00  0.00    +0.000 C 
BRANCH  24  25
ATOM     25  C   UNL     1      -1.253  11.241  19.741  0.00  0.00    +0.000 A 
ATOM     26  C   UNL     1      -2.228  12.168  20.128  0.00  0.00    +0.000 A 
ATOM     27  C   UNL     1      -3.411  12.298  19.396  0.00  0.00    +0.000 A 
ATOM     28  C   UNL     1      -3.641  11.493  18.276  0.00  0.00    +0.000 A 
ATOM     29 CL   UNL     1      -5.139  11.693  17.438  0.00  0.00    +0.000 Cl
ATOM     30  C   UNL     1      -2.675  10.563  17.880  0.00  0.00    +0.000 A 
ATOM     31 CL   UNL     1      -2.890   9.532  16.510  0.00  0.00    +0.000 Cl
ATOM     32  C   UNL     1      -1.486  10.441  18.609  0.00  0.00    +0.000 A 
ENDBRANCH  24  25
ENDBRANCH   9  24
TORSDOF 5
ENDMDL
MODEL 6
REMARK VINA RESULT:      -8.5      1.190      1.959
REMARK  Name = 
REMARK  6 active torsions:
REMARK  status: ('A' for Active; 'I' for Inactive)
REMARK    1  A    between atoms: C_1  and  C_2
REMARK    2  A    between atoms: C_5  and  S_6
REMARK    3  A    between atoms: S_6  and  N_9
REMARK    4  A    between atoms: N_9  and  C_10
REMARK    5  A    between atoms: N_18  and  C_19
REMARK    6  A    between atoms: C_19  and  C_20
REMARK                            x       y       z     vdW  Elec       q    Type
REMARK                         _______ _______ _______ _____ _____    ______ ____
ROOT
ATOM      1  C   UNL     1       3.327   5.324  19.320  0.00  0.00    +0.000 A 
ATOM      2  C   UNL     1       2.625   5.188  20.537  0.00  0.00    +0.000 A 
ATOM      3  C   UNL     1       1.775   6.208  20.997  0.00  0.00    +0.000 A 
ATOM      4  C   UNL     1       1.636   7.328  20.194  0.00  0.00    +0.000 A 
ATOM      5  C   UNL     1       2.299   7.423  18.986  0.00  0.00    +0.000 A 
ATOM      6  C   UNL     1       3.156   6.449  18.519  0.00  0.00    +0.000 A 
ATOM      7  C   UNL     1       1.984   8.716  18.399  0.00  0.00    +0.000 C 
ATOM      8  O   UNL     1       2.427   9.099  17.334  0.00  0.00    +0.000 OA
ATOM      9  N   UNL     1       1.171   9.360  19.285  0.00  0.00    +0.000 N 
ATOM     10  C   UNL     1       0.910   8.593  20.390  0.00  0.00    +0.000 C 
ATOM     11  O   UNL     1       0.260   8.867  21.382  0.00  0.00    +0.000 OA
ENDROOT
BRANCH   1  12
ATOM     12  N   UNL     1       4.235   4.315  18.904  0.00  0.00    +0.000 N 
ATOM     13  H   UNL     1       5.229   4.537  18.942  0.00  0.00    +0.000 HD
BRANCH  12  14
ATOM     14  S   UNL     1       3.872   3.375  17.547  0.00  0.00    +0.000 S 
ATOM     15  O   UNL     1       2.556   3.739  17.065  0.00  0.00    +0.000 OA
ATOM     16  O   UNL     1       4.196   2.012  17.911  0.00  0.00    +0.000 OA
BRANCH  14  21
ATOM     17  C   UNL     1       7.897   5.314  13.420  0.00  0.00    +0.000 C 
ATOM     18  C   UNL     1       6.910   4.807  14.432  0.00  0.00    +0.000 A 
ATOM     19  C   UNL     1       5.734   4.160  14.028  0.00  0.00    +0.000 A 
ATOM     20  C   UNL     1       4.812   3.709  14.976  0.00  0.00    +0.000 A 
ATOM     21  C   UNL     1       5.071   3.900  16.338  0.00  0.00    +0.000 A 
ATOM     22  C   UNL     1       6.231   4.560  16.752  0.00  0.00    +0.000 A 
ATOM     23  C   UNL     1       7.151   5.004  15.799  0.00  0.00    +0.000 A 
ENDBRANCH  14  21
ENDBRANCH  12  14
ENDBRANCH   1  12
BRANCH   9  24
ATOM     24  C   UNL     1       0.750  10.729  19.105  0.00  0.00    +0.000 C 
BRANCH  24  25
ATOM     25  C   UNL     1      -0.709  10.840  18.729  0.00  0.00    +0.000 A 
ATOM     26  C   UNL     1      -1.213  10.123  17.638  0.00  0.00    +0.000 A 
ATOM     27  C   UNL     1      -2.559  10.235  17.278  0.00  0.00    +0.000 A 
ATOM     28  C   UNL     1      -3.414  11.078  17.995  0.00  0.00    +0.000 A 
ATOM     29 CL   UNL     1      -5.058  11.185  17.474  0.00  0.00    +0.000 Cl
ATOM     30  C   UNL     1      -2.922  11.800  19.087  0.00  0.00    +0.000 A 
ATOM     31 CL   UNL     1      -3.917  12.862  20.019  0.00  0.00    +0.000 Cl
ATOM     32  C   UNL     1      -1.576  11.678  19.452  0.00  0.00    +0.000 A 
ENDBRANCH  24  25
ENDBRANCH   9  24
TORSDOF 5
ENDMDL
MODEL 7
REMARK VINA RESULT:      -8.5      2.117      2.967
REMARK  Name = 
REMARK  6 active torsions:
REMARK  status: ('A' for Active; 'I' for Inactive)
REMARK    1  A    between atoms: C_1  and  C_2
REMARK    2  A    between atoms: C_5  and  S_6
REMARK    3  A    between atoms: S_6  and  N_9
REMARK    4  A    between atoms: N_9  and  C_10
REMARK    5  A    between atoms: N_18  and  C_19
REMARK    6  A    between atoms: C_19  and  C_20
REMARK                            x       y       z     vdW  Elec       q    Type
REMARK                         _______ _______ _______ _____ _____    ______ ____
ROOT
ATOM      1  C   UNL     1       3.809   5.888  17.732  0.00  0.00    +0.000 A 
ATOM      2  C   UNL     1       3.390   5.275  18.932  0.00  0.00    +0.000 A 
ATOM      3  C   UNL     1       2.589   5.970  19.855  0.00  0.00    +0.000 A 
ATOM      4  C   UNL     1       2.209   7.259  19.521  0.00  0.00    +0.000 A 
ATOM      5  C   UNL     1       2.596   7.825  18.321  0.00  0.00    +0.000 A 
ATOM      6  C   UNL     1       3.398   7.177  17.406  0.00  0.00    +0.000 A 
ATOM      7  C   UNL     1       2.078   9.184  18.278  0.00  0.00    +0.000 C 
ATOM      8  O   UNL     1       2.260   9.945  17.347  0.00  0.00    +0.000 OA
ATOM      9  N   UNL     1       1.429   9.393  19.459  0.00  0.00    +0.000 N 
ATOM     10  C   UNL     1       1.459   8.285  20.262  0.00  0.00    +0.000 C 
ATOM     11  O   UNL     1       1.015   8.135  21.386  0.00  0.00    +0.000 OA
ENDROOT
BRANCH   1  12
ATOM     12  N   UNL     1       4.674   5.197  16.842  0.00  0.00    +0.000 N 
ATOM     13  H   UNL     1       4.249   4.519  16.211  0.00  0.00    +0.000 HD
BRANCH  12  14
ATOM     14  S   UNL     1       6.178   4.658  17.393  0.00  0.00    +0.000 S 
ATOM     15  O   UNL     1       6.867   4.001  16.302  0.00  0.00    +0.000 OA
ATOM     16  O   UNL     1       5.921   3.981  18.647  0.00  0.00    +0.000 OA
BRANCH  14  21
ATOM     17  C   UNL     1       9.036   9.841  18.794  0.00  0.00    +0.000 C 
ATOM     18  C   UNL     1       8.347   8.559  18.423  0.00  0.00    +0.000 A 
ATOM     19  C   UNL     1       7.508   8.491  17.304  0.00  0.00    +0.000 A 
ATOM     20  C   UNL     1       6.856   7.298  16.978  0.00  0.00    +0.000 A 
ATOM     21  C   UNL     1       7.051   6.164  17.774  0.00  0.00    +0.000 A 
ATOM     22  C   UNL     1       7.870   6.224  18.904  0.00  0.00    +0.000 A 
ATOM     23  C   UNL     1       8.523   7.418  19.220  0.00  0.00    +0.000 A 
ENDBRANCH  14  21
ENDBRANCH  12  14
ENDBRANCH   1  12
BRANCH   9  24
ATOM     24  C   UNL     1       0.889  10.679  19.834  0.00  0.00    +0.000 C 
BRANCH  24  25
ATOM     25  C   UNL     1      -0.516  10.889  19.318  0.00  0.00    +0.000 A 
ATOM     26  C   UNL     1      -0.962  10.196  18.186  0.00  0.00    +0.000 A 
ATOM     27  C   UNL     1      -2.254  10.399  17.696  0.00  0.00    +0.000 A 
ATOM     28  C   UNL     1      -3.112  11.309  18.322  0.00  0.00    +0.000 A 
ATOM     29 CL   UNL     1      -4.686  11.527  17.642  0.00  0.00    +0.000 Cl
ATOM     30  C   UNL     1      -2.678  12.008  19.452  0.00  0.00    +0.000 A 
ATOM     31 CL   UNL     1      -3.679  13.150  20.276  0.00  0.00    +0.000 Cl
ATOM     32  C   UNL     1      -1.386  11.795  19.948  0.00  0.00    +0.000 A 
ENDBRANCH  24  25
ENDBRANCH   9  24
TORSDOF 5
ENDMDL
MODEL 8
REMARK VINA RESULT:      -8.4      2.203      3.126
REMARK  Name = 
REMARK  6 active torsions:
REMARK  status: ('A' for Active; 'I' for Inactive)
REMARK    1  A    between atoms: C_1  and  C_2
REMARK    2  A    between atoms: C_5  and  S_6
REMARK    3  A    between atoms: S_6  and  N_9
REMARK    4  A    between atoms: N_9  and  C_10
REMARK    5  A    between atoms: N_18  and  C_19
REMARK    6  A    between atoms: C_19  and  C_20
REMARK                            x       y       z     vdW  Elec       q    Type
REMARK                         _______ _______ _______ _____ _____    ______ ____
ROOT
ATOM      1  C   UNL     1       1.915   8.159  19.261  0.00  0.00    +0.000 A 
ATOM      2  C   UNL     1       1.806   7.667  20.579  0.00  0.00    +0.000 A 
ATOM      3  C   UNL     1       1.130   8.400  21.570  0.00  0.00    +0.000 A 
ATOM      4  C   UNL     1       0.556   9.601  21.188  0.00  0.00    +0.000 A 
ATOM      5  C   UNL     1       0.639  10.046  19.882  0.00  0.00    +0.000 A 
ATOM      6  C   UNL     1       1.313   9.359  18.895  0.00  0.00    +0.000 A 
ATOM      7  C   UNL     1      -0.020  11.340  19.804  0.00  0.00    +0.000 C 
ATOM      8  O   UNL     1      -0.105  11.993  18.782  0.00  0.00    +0.000 OA
ATOM      9  N   UNL     1      -0.445  11.639  21.065  0.00  0.00    +0.000 N 
ATOM     10  C   UNL     1      -0.142  10.645  21.957  0.00  0.00    +0.000 C 
ATOM     11  O   UNL     1      -0.339  10.599  23.156  0.00  0.00    +0.000 OA
ENDROOT
BRANCH   1  12
ATOM     12  N   UNL     1       2.659   7.439  18.290  0.00  0.00    +0.000 N 
ATOM     13  H   UNL     1       2.436   7.610  17.310  0.00  0.00    +0.000 HD
BRANCH  12  14
ATOM     14  S   UNL     1       3.024   5.810  18.558  0.00  0.00    +0.000 S 
ATOM     15  O   UNL     1       1.817   5.028  18.392  0.00  0.00    +0.000 OA
ATOM     16  O   UNL     1       3.789   5.773  19.787  0.00  0.00    +0.000 OA
BRANCH  14  21
ATOM     17  C   UNL     1       6.700   4.431  13.913  0.00  0.00    +0.000 C 
ATOM     18  C   UNL     1       5.813   4.761  15.080  0.00  0.00    +0.000 A 
ATOM     19  C   UNL     1       5.217   3.745  15.839  0.00  0.00    +0.000 A 
ATOM     20  C   UNL     1       4.377   4.062  16.910  0.00  0.00    +0.000 A 
ATOM     21  C   UNL     1       4.138   5.404  17.228  0.00  0.00    +0.000 A 
ATOM     22  C   UNL     1       4.710   6.425  16.466  0.00  0.00    +0.000 A 
ATOM     23  C   UNL     1       5.553   6.101  15.400  0.00  0.00    +0.000 A 
ENDBRANCH  14  21
ENDBRANCH  12  14
ENDBRANCH   1  12
BRANCH   9  24
ATOM     24  C   UNL     1      -1.037  12.911  21.407  0.00  0.00    +0.000 C 
BRANCH  24  25
ATOM     25  C   UNL     1      -2.545  12.846  21.480  0.00  0.00    +0.000 A 
ATOM     26  C   UNL     1      -3.309  12.868  20.307  0.00  0.00    +0.000 A 
ATOM     27  C   UNL     1      -4.704  12.824  20.370  0.00  0.00    +0.000 A 
ATOM     28  C   UNL     1      -5.354  12.773  21.607  0.00  0.00    +0.000 A 
ATOM     29 CL   UNL     1      -7.081  12.749  21.607  0.00  0.00    +0.000 Cl
ATOM     30  C   UNL     1      -4.602  12.751  22.786  0.00  0.00    +0.000 A 
ATOM     31 CL   UNL     1      -5.333  12.692  24.350  0.00  0.00    +0.000 Cl
ATOM     32  C   UNL     1      -3.204  12.785  22.720  0.00  0.00    +0.000 A 
ENDBRANCH  24  25
ENDBRANCH   9  24
TORSDOF 5
ENDMDL
MODEL 9
REMARK VINA RESULT:      -8.3      2.023      2.743
REMARK  Name = 
REMARK  6 active torsions:
REMARK  status: ('A' for Active; 'I' for Inactive)
REMARK    1  A    between atoms: C_1  and  C_2
REMARK    2  A    between atoms: C_5  and  S_6
REMARK    3  A    between atoms: S_6  and  N_9
REMARK    4  A    between atoms: N_9  and  C_10
REMARK    5  A    between atoms: N_18  and  C_19
REMARK    6  A    between atoms: C_19  and  C_20
REMARK                            x       y       z     vdW  Elec       q    Type
REMARK                         _______ _______ _______ _____ _____    ______ ____
ROOT
ATOM      1  C   UNL     1       1.911   8.169  19.280  0.00  0.00    +0.000 A 
ATOM      2  C   UNL     1       1.800   7.680  20.599  0.00  0.00    +0.000 A 
ATOM      3  C   UNL     1       1.128   8.419  21.589  0.00  0.00    +0.000 A 
ATOM      4  C   UNL     1       0.559   9.622  21.204  0.00  0.00    +0.000 A 
ATOM      5  C   UNL     1       0.644  10.063  19.898  0.00  0.00    +0.000 A 
ATOM      6  C   UNL     1       1.314   9.371  18.911  0.00  0.00    +0.000 A 
ATOM      7  C   UNL     1      -0.009  11.360  19.817  0.00  0.00    +0.000 C 
ATOM      8  O   UNL     1      -0.092  12.011  18.794  0.00  0.00    +0.000 OA
ATOM      9  N   UNL     1      -0.433  11.663  21.078  0.00  0.00    +0.000 N 
ATOM     10  C   UNL     1      -0.133  10.670  21.971  0.00  0.00    +0.000 C 
ATOM     11  O   UNL     1      -0.331  10.627  23.171  0.00  0.00    +0.000 OA
ENDROOT
BRANCH   1  12
ATOM     12  N   UNL     1       2.652   7.444  18.310  0.00  0.00    +0.000 N 
ATOM     13  H   UNL     1       2.425   7.610  17.330  0.00  0.00    +0.000 HD
BRANCH  12  14
ATOM     14  S   UNL     1       3.016   5.816  18.585  0.00  0.00    +0.000 S 
ATOM     15  O   UNL     1       1.808   5.034  18.428  0.00  0.00    +0.000 OA
ATOM     16  O   UNL     1       3.787   5.785  19.811  0.00  0.00    +0.000 OA
BRANCH  14  21
ATOM     17  C   UNL     1       6.673   4.410  13.933  0.00  0.00    +0.000 C 
ATOM     18  C   UNL     1       5.790   4.746  15.101  0.00  0.00    +0.000 A 
ATOM     19  C   UNL     1       5.203   3.736  15.873  0.00  0.00    +0.000 A 
ATOM     20  C   UNL     1       4.367   4.059  16.946  0.00  0.00    +0.000 A 
ATOM     21  C   UNL     1       4.124   5.402  17.253  0.00  0.00    +0.000 A 
ATOM     22  C   UNL     1       4.689   6.419  16.479  0.00  0.00    +0.000 A 
ATOM     23  C   UNL     1       5.528   6.089  15.411  0.00  0.00    +0.000 A 
ENDBRANCH  14  21
ENDBRANCH  12  14
ENDBRANCH   1  12
BRANCH   9  24
ATOM     24  C   UNL     1      -1.019  12.939  21.418  0.00  0.00    +0.000 C 
BRANCH  24  25
ATOM     25  C   UNL     1      -2.528  12.881  21.488  0.00  0.00    +0.000 A 
ATOM     26  C   UNL     1      -3.178  12.915  22.727  0.00  0.00    +0.000 A 
ATOM     27  C   UNL     1      -4.572  12.846  22.796  0.00  0.00    +0.000 A 
ATOM     28  C   UNL     1      -5.332  12.728  21.629  0.00  0.00    +0.000 A 
ATOM     29 CL   UNL     1      -7.049  12.621  21.796  0.00  0.00    +0.000 Cl
ATOM     30  C   UNL     1      -4.694  12.693  20.385  0.00  0.00    +0.000 A 
ATOM     31 CL   UNL     1      -5.566  12.546  18.901  0.00  0.00    +0.000 Cl
ATOM     32  C   UNL     1      -3.298  12.772  20.317  0.00  0.00    +0.000 A 
ENDBRANCH  24  25
ENDBRANCH   9  24
TORSDOF 5
ENDMDL
