MODEL 1
REMARK VINA RESULT:      -7.6      0.000      0.000
REMARK  Name = 
REMARK  16 active torsions:
REMARK  status: ('A' for Active; 'I' for Inactive)
REMARK    1  A    between atoms: C_1  and  C_2
REMARK    2  A    between atoms: C_2  and  N_3
REMARK    3  A    between atoms: N_3  and  C_4
REMARK    4  A    between atoms: C_4  and  C_5
REMARK    5  A    between atoms: N_7  and  C_8
REMARK    6  A    between atoms: C_8  and  C_9
REMARK    7  A    between atoms: C_8  and  C_13
REMARK    8  A    between atoms: C_9  and  C_10
REMARK    9  A    between atoms: C_10  and  O_12
REMARK   10  A    between atoms: N_15  and  C_16
REMARK   11  A    between atoms: C_16  and  C_17
REMARK   12  A    between atoms: C_17  and  C_18
REMARK   13  A    between atoms: C_24  and  C_26
REMARK   14  A    between atoms: C_26  and  C_27
REMARK   15  A    between atoms: C_27  and  C_28
REMARK   16  A    between atoms: C_28  and  C_29
REMARK                            x       y       z     vdW  Elec       q    Type
REMARK                         _______ _______ _______ _____ _____    ______ ____
ROOT
ATOM      1  C   UNL     1       4.713   4.503  18.518  0.00  0.00    +0.000 C 
ATOM      2  O   UNL     1       5.255   3.866  19.416  0.00  0.00    +0.000 OA
ATOM      3  N   UNL     1       5.376   5.477  17.808  0.00  0.00    +0.000 N 
ATOM      4  H   UNL     1       4.821   6.221  17.385  0.00  0.00    +0.000 HD
ENDROOT
BRANCH   1   5
ATOM      5  C   UNL     1       3.238   4.332  18.134  0.00  0.00    +0.000 C 
BRANCH   5   6
ATOM      6  N   UNL     1       2.372   4.094  19.289  0.00  0.00    +0.000 N 
ATOM      7  C   UNL     1       1.738   5.088  20.023  0.00  0.00    +0.000 C 
ATOM      8  O   UNL     1       0.851   4.812  20.831  0.00  0.00    +0.000 OA
BRANCH   6  10
ATOM      9  C   UNL     1       1.060   2.020  18.785  0.00  0.00    +0.000 C 
ATOM     10  C   UNL     1       2.091   2.708  19.667  0.00  0.00    +0.000 C 
ENDBRANCH   6  10
BRANCH   7  11
ATOM     11  C   UNL     1       2.202   6.527  19.833  0.00  0.00    +0.000 C 
BRANCH  11  12
ATOM     12  C   UNL     1       1.471   7.501  20.769  0.00  0.00    +0.000 C 
BRANCH  12  13
ATOM     13  C   UNL     1       1.501   8.954  20.266  0.00  0.00    +0.000 C 
BRANCH  13  14
ATOM     14  C   UNL     1       0.850   9.165  18.879  0.00  0.00    +0.000 C 
ATOM     15  C   UNL     1       1.885   9.718  17.879  0.00  0.00    +0.000 C 
ATOM     16  C   UNL     1       2.200  11.199  18.116  0.00  0.00    +0.000 C 
ATOM     17  N   UNL     1       0.994  12.027  18.108  0.00  0.00    +0.000 NA
ATOM     18  C   UNL     1       0.035  11.567  19.120  0.00  0.00    +0.000 C 
ATOM     19  C   UNL     1      -0.364  10.110  18.884  0.00  0.00    +0.000 C 
ATOM     20  H   UNL     1       0.554  11.963  17.192  0.00  0.00    +0.000 HD
ENDBRANCH  13  14
ENDBRANCH  12  13
ENDBRANCH  11  12
ENDBRANCH   7  11
ENDBRANCH   5   6
ENDBRANCH   1   5
BRANCH   3  21
ATOM     21  C   UNL     1       6.806   5.763  17.954  0.00  0.00    +0.000 C 
BRANCH  21  22
ATOM     22  C   UNL     1       7.198   7.212  17.584  0.00  0.00    +0.000 C 
ATOM     23  O   UNL     1       6.766   7.765  16.573  0.00  0.00    +0.000 OA
ATOM     24  N   UNL     1       8.167   7.778  18.382  0.00  0.00    +0.000 N 
ATOM     25  H   UNL     1       8.511   7.249  19.184  0.00  0.00    +0.000 HD
BRANCH  24  26
ATOM     26  C   UNL     1       8.636   9.126  18.143  0.00  0.00    +0.000 C 
BRANCH  26  27
ATOM     27  C   UNL     1       9.090   9.856  19.406  0.00  0.00    +0.000 C 
BRANCH  27  28
ATOM     28  C   UNL     1      10.209  10.903  19.202  0.00  0.00    +0.000 C 
ATOM     29  C   UNL     1      10.062  11.747  17.924  0.00  0.00    +0.000 C 
ATOM     30  C   UNL     1       8.977  12.820  18.008  0.00  0.00    +0.000 C 
ATOM     31  C   UNL     1       9.128  13.695  19.247  0.00  0.00    +0.000 C 
ATOM     32  C   UNL     1       9.201  12.856  20.518  0.00  0.00    +0.000 C 
ATOM     33  C   UNL     1      10.321  11.819  20.436  0.00  0.00    +0.000 C 
ENDBRANCH  27  28
ENDBRANCH  26  27
ENDBRANCH  24  26
ENDBRANCH  21  22
BRANCH  21  34
ATOM     34  C   UNL     1       7.661   4.770  17.153  0.00  0.00    +0.000 C 
BRANCH  34  35
ATOM     35  C   UNL     1       7.104   4.552  15.766  0.00  0.00    +0.000 C 
ATOM     36  O   UNL     1       6.253   3.712  15.501  0.00  0.00    +0.000 OA
BRANCH  35  37
ATOM     37  O   UNL     1       7.706   5.296  14.814  0.00  0.00    +0.000 OA
ATOM     38  H   UNL     1       7.852   4.833  13.967  0.00  0.00    +0.000 HD
ENDBRANCH  35  37
ENDBRANCH  34  35
ENDBRANCH  21  34
ENDBRANCH   3  21
TORSDOF 15
ENDMDL
MODEL 2
REMARK VINA RESULT:      -7.4      3.943      8.730
REMARK  Name = 
REMARK  16 active torsions:
REMARK  status: ('A' for Active; 'I' for Inactive)
REMARK    1  A    between atoms: C_1  and  C_2
REMARK    2  A    between atoms: C_2  and  N_3
REMARK    3  A    between atoms: N_3  and  C_4
REMARK    4  A    between atoms: C_4  and  C_5
REMARK    5  A    between atoms: N_7  and  C_8
REMARK    6  A    between atoms: C_8  and  C_9
REMARK    7  A    between atoms: C_8  and  C_13
REMARK    8  A    between atoms: C_9  and  C_10
REMARK    9  A    between atoms: C_10  and  O_12
REMARK   10  A    between atoms: N_15  and  C_16
REMARK   11  A    between atoms: C_16  and  C_17
REMARK   12  A    between atoms: C_17  and  C_18
REMARK   13  A    between atoms: C_24  and  C_26
REMARK   14  A    between atoms: C_26  and  C_27
REMARK   15  A    between atoms: C_27  and  C_28
REMARK   16  A    between atoms: C_28  and  C_29
REMARK                            x       y       z     vdW  Elec       q    Type
REMARK                         _______ _______ _______ _____ _____    ______ ____
ROOT
ATOM      1  C   UNL     1       1.838   5.888  20.461  0.00  0.00    +0.000 C 
ATOM      2  O   UNL     1       0.715   5.392  20.471  0.00  0.00    +0.000 OA
ATOM      3  N   UNL     1       2.045   7.236  20.632  0.00  0.00    +0.000 N 
ATOM      4  H   UNL     1       2.890   7.645  20.232  0.00  0.00    +0.000 HD
ENDROOT
BRANCH   1   5
ATOM      5  C   UNL     1       3.114   5.078  20.196  0.00  0.00    +0.000 C 
BRANCH   5   6
ATOM      6  N   UNL     1       2.864   3.642  20.080  0.00  0.00    +0.000 N 
ATOM      7  C   UNL     1       2.671   2.964  18.883  0.00  0.00    +0.000 C 
ATOM      8  O   UNL     1       2.693   1.734  18.840  0.00  0.00    +0.000 OA
BRANCH   6  10
ATOM      9  C   UNL     1       1.505   2.458  21.822  0.00  0.00    +0.000 C 
ATOM     10  C   UNL     1       2.885   2.837  21.303  0.00  0.00    +0.000 C 
ENDBRANCH   6  10
BRANCH   7  11
ATOM     11  C   UNL     1       2.384   3.785  17.632  0.00  0.00    +0.000 C 
BRANCH  11  12
ATOM     12  C   UNL     1       3.474   3.615  16.563  0.00  0.00    +0.000 C 
BRANCH  12  13
ATOM     13  C   UNL     1       4.897   3.731  17.134  0.00  0.00    +0.000 C 
BRANCH  13  14
ATOM     14  C   UNL     1       5.945   4.277  16.136  0.00  0.00    +0.000 C 
ATOM     15  C   UNL     1       7.254   4.631  16.869  0.00  0.00    +0.000 C 
ATOM     16  C   UNL     1       7.141   5.926  17.682  0.00  0.00    +0.000 C 
ATOM     17  N   UNL     1       6.698   7.053  16.862  0.00  0.00    +0.000 NA
ATOM     18  C   UNL     1       5.406   6.766  16.227  0.00  0.00    +0.000 C 
ATOM     19  C   UNL     1       5.486   5.517  15.348  0.00  0.00    +0.000 C 
ATOM     20  H   UNL     1       7.387   7.223  16.131  0.00  0.00    +0.000 HD
ENDBRANCH  13  14
ENDBRANCH  12  13
ENDBRANCH  11  12
ENDBRANCH   7  11
ENDBRANCH   5   6
ENDBRANCH   1   5
BRANCH   3  21
ATOM     21  C   UNL     1       0.983   8.190  20.969  0.00  0.00    +0.000 C 
BRANCH  21  22
ATOM     22  C   UNL     1       0.700   9.230  19.862  0.00  0.00    +0.000 C 
ATOM     23  O   UNL     1       1.515   9.475  18.973  0.00  0.00    +0.000 OA
ATOM     24  N   UNL     1      -0.458   9.957  20.027  0.00  0.00    +0.000 N 
ATOM     25  H   UNL     1      -1.072   9.730  20.808  0.00  0.00    +0.000 HD
BRANCH  24  26
ATOM     26  C   UNL     1      -0.842  10.973  19.070  0.00  0.00    +0.000 C 
BRANCH  26  27
ATOM     27  C   UNL     1      -1.067  10.438  17.656  0.00  0.00    +0.000 C 
BRANCH  27  28
ATOM     28  C   UNL     1      -2.401   9.687  17.434  0.00  0.00    +0.000 C 
ATOM     29  C   UNL     1      -3.587  10.254  18.234  0.00  0.00    +0.000 C 
ATOM     30  C   UNL     1      -4.148  11.560  17.671  0.00  0.00    +0.000 C 
ATOM     31  C   UNL     1      -4.467  11.456  16.184  0.00  0.00    +0.000 C 
ATOM     32  C   UNL     1      -3.264  10.962  15.388  0.00  0.00    +0.000 C 
ATOM     33  C   UNL     1      -2.745   9.633  15.934  0.00  0.00    +0.000 C 
ENDBRANCH  27  28
ENDBRANCH  26  27
ENDBRANCH  24  26
ENDBRANCH  21  22
BRANCH  21  34
ATOM     34  C   UNL     1       1.274   8.904  22.297  0.00  0.00    +0.000 C 
BRANCH  34  35
ATOM     35  C   UNL     1       0.019   9.497  22.894  0.00  0.00    +0.000 C 
ATOM     36  O   UNL     1      -0.055  10.645  23.315  0.00  0.00    +0.000 OA
BRANCH  35  37
ATOM     37  O   UNL     1      -0.994   8.614  23.021  0.00  0.00    +0.000 OA
ATOM     38  H   UNL     1      -1.634   8.827  23.727  0.00  0.00    +0.000 HD
ENDBRANCH  35  37
ENDBRANCH  34  35
ENDBRANCH  21  34
ENDBRANCH   3  21
TORSDOF 15
ENDMDL
MODEL 3
REMARK VINA RESULT:      -7.4      1.127      1.693
REMARK  Name = 
REMARK  16 active torsions:
REMARK  status: ('A' for Active; 'I' for Inactive)
REMARK    1  A    between atoms: C_1  and  C_2
REMARK    2  A    between atoms: C_2  and  N_3
REMARK    3  A    between atoms: N_3  and  C_4
REMARK    4  A    between atoms: C_4  and  C_5
REMARK    5  A    between atoms: N_7  and  C_8
REMARK    6  A    between atoms: C_8  and  C_9
REMARK    7  A    between atoms: C_8  and  C_13
REMARK    8  A    between atoms: C_9  and  C_10
REMARK    9  A    between atoms: C_10  and  O_12
REMARK   10  A    between atoms: N_15  and  C_16
REMARK   11  A    between atoms: C_16  and  C_17
REMARK   12  A    between atoms: C_17  and  C_18
REMARK   13  A    between atoms: C_24  and  C_26
REMARK   14  A    between atoms: C_26  and  C_27
REMARK   15  A    between atoms: C_27  and  C_28
REMARK   16  A    between atoms: C_28  and  C_29
REMARK                            x       y       z     vdW  Elec       q    Type
REMARK                         _______ _______ _______ _____ _____    ______ ____
ROOT
ATOM      1  C   UNL     1       4.694   4.743  18.895  0.00  0.00    +0.000 C 
ATOM      2  O   UNL     1       5.323   3.922  19.556  0.00  0.00    +0.000 OA
ATOM      3  N   UNL     1       5.310   5.784  18.241  0.00  0.00    +0.000 N 
ATOM      4  H   UNL     1       4.763   6.626  18.060  0.00  0.00    +0.000 HD
ENDROOT
BRANCH   1   5
ATOM      5  C   UNL     1       3.165   4.737  18.778  0.00  0.00    +0.000 C 
BRANCH   5   6
ATOM      6  N   UNL     1       2.507   5.456  19.870  0.00  0.00    +0.000 N 
ATOM      7  C   UNL     1       2.000   6.746  19.779  0.00  0.00    +0.000 C 
ATOM      8  O   UNL     1       1.263   7.202  20.654  0.00  0.00    +0.000 OA
BRANCH   6  10
ATOM      9  C   UNL     1       1.561   3.428  20.996  0.00  0.00    +0.000 C 
ATOM     10  C   UNL     1       2.301   4.750  21.135  0.00  0.00    +0.000 C 
ENDBRANCH   6  10
BRANCH   7  11
ATOM     11  C   UNL     1       2.418   7.599  18.587  0.00  0.00    +0.000 C 
BRANCH  11  12
ATOM     12  C   UNL     1       2.028   9.074  18.764  0.00  0.00    +0.000 C 
BRANCH  12  13
ATOM     13  C   UNL     1       0.694   9.428  18.085  0.00  0.00    +0.000 C 
BRANCH  13  14
ATOM     14  C   UNL     1      -0.339  10.105  19.016  0.00  0.00    +0.000 C 
ATOM     15  C   UNL     1      -1.705  10.220  18.311  0.00  0.00    +0.000 C 
ATOM     16  C   UNL     1      -1.726  11.323  17.247  0.00  0.00    +0.000 C 
ATOM     17  N   UNL     1      -1.325  12.620  17.790  0.00  0.00    +0.000 NA
ATOM     18  C   UNL     1       0.015  12.549  18.386  0.00  0.00    +0.000 C 
ATOM     19  C   UNL     1       0.069  11.506  19.504  0.00  0.00    +0.000 C 
ATOM     20  H   UNL     1      -1.987  12.896  18.514  0.00  0.00    +0.000 HD
ENDBRANCH  13  14
ENDBRANCH  12  13
ENDBRANCH  11  12
ENDBRANCH   7  11
ENDBRANCH   5   6
ENDBRANCH   1   5
BRANCH   3  21
ATOM     21  C   UNL     1       6.765   5.949  18.155  0.00  0.00    +0.000 C 
BRANCH  21  22
ATOM     22  C   UNL     1       7.212   7.356  17.701  0.00  0.00    +0.000 C 
ATOM     23  O   UNL     1       6.737   7.901  16.704  0.00  0.00    +0.000 OA
ATOM     24  N   UNL     1       8.271   7.887  18.402  0.00  0.00    +0.000 N 
ATOM     25  H   UNL     1       8.644   7.366  19.195  0.00  0.00    +0.000 HD
BRANCH  24  26
ATOM     26  C   UNL     1       8.800   9.195  18.076  0.00  0.00    +0.000 C 
BRANCH  26  27
ATOM     27  C   UNL     1       9.171  10.034  19.298  0.00  0.00    +0.000 C 
BRANCH  27  28
ATOM     28  C   UNL     1      10.218  11.145  19.048  0.00  0.00    +0.000 C 
ATOM     29  C   UNL     1       9.704  12.319  18.196  0.00  0.00    +0.000 C 
ATOM     30  C   UNL     1       8.771  13.269  18.946  0.00  0.00    +0.000 C 
ATOM     31  C   UNL     1       9.373  13.747  20.262  0.00  0.00    +0.000 C 
ATOM     32  C   UNL     1       9.815  12.577  21.133  0.00  0.00    +0.000 C 
ATOM     33  C   UNL     1      10.783  11.662  20.384  0.00  0.00    +0.000 C 
ENDBRANCH  27  28
ENDBRANCH  26  27
ENDBRANCH  24  26
ENDBRANCH  21  22
BRANCH  21  34
ATOM     34  C   UNL     1       7.396   4.882  17.249  0.00  0.00    +0.000 C 
BRANCH  34  35
ATOM     35  C   UNL     1       6.935   5.026  15.817  0.00  0.00    +0.000 C 
ATOM     36  O   UNL     1       7.666   5.381  14.901  0.00  0.00    +0.000 OA
BRANCH  35  37
ATOM     37  O   UNL     1       5.610   4.831  15.649  0.00  0.00    +0.000 OA
ATOM     38  H   UNL     1       5.182   4.310  16.355  0.00  0.00    +0.000 HD
ENDBRANCH  35  37
ENDBRANCH  34  35
ENDBRANCH  21  34
ENDBRANCH   3  21
TORSDOF 15
ENDMDL
MODEL 4
REMARK VINA RESULT:      -7.3      1.092      1.335
REMARK  Name = 
REMARK  16 active torsions:
REMARK  status: ('A' for Active; 'I' for Inactive)
REMARK    1  A    between atoms: C_1  and  C_2
REMARK    2  A    between atoms: C_2  and  N_3
REMARK    3  A    between atoms: N_3  and  C_4
REMARK    4  A    between atoms: C_4  and  C_5
REMARK    5  A    between atoms: N_7  and  C_8
REMARK    6  A    between atoms: C_8  and  C_9
REMARK    7  A    between atoms: C_8  and  C_13
REMARK    8  A    between atoms: C_9  and  C_10
REMARK    9  A    between atoms: C_10  and  O_12
REMARK   10  A    between atoms: N_15  and  C_16
REMARK   11  A    between atoms: C_16  and  C_17
REMARK   12  A    between atoms: C_17  and  C_18
REMARK   13  A    between atoms: C_24  and  C_26
REMARK   14  A    between atoms: C_26  and  C_27
REMARK   15  A    between atoms: C_27  and  C_28
REMARK   16  A    between atoms: C_28  and  C_29
REMARK                            x       y       z     vdW  Elec       q    Type
REMARK                         _______ _______ _______ _____ _____    ______ ____
ROOT
ATOM      1  C   UNL     1       4.910   4.417  18.879  0.00  0.00    +0.000 C 
ATOM      2  O   UNL     1       5.645   3.864  19.691  0.00  0.00    +0.000 OA
ATOM      3  N   UNL     1       5.375   5.355  17.988  0.00  0.00    +0.000 N 
ATOM      4  H   UNL     1       4.716   6.050  17.636  0.00  0.00    +0.000 HD
ENDROOT
BRANCH   1   5
ATOM      5  C   UNL     1       3.396   4.174  18.810  0.00  0.00    +0.000 C 
BRANCH   5   6
ATOM      6  N   UNL     1       2.659   4.876  19.861  0.00  0.00    +0.000 N 
ATOM      7  C   UNL     1       2.165   6.169  19.756  0.00  0.00    +0.000 C 
ATOM      8  O   UNL     1       1.364   6.612  20.580  0.00  0.00    +0.000 OA
BRANCH   6  10
ATOM      9  C   UNL     1       1.249   3.110  20.944  0.00  0.00    +0.000 C 
ATOM     10  C   UNL     1       2.353   4.146  21.093  0.00  0.00    +0.000 C 
ENDBRANCH   6  10
BRANCH   7  11
ATOM     11  C   UNL     1       2.677   7.043  18.617  0.00  0.00    +0.000 C 
BRANCH  11  12
ATOM     12  C   UNL     1       1.627   8.061  18.148  0.00  0.00    +0.000 C 
BRANCH  12  13
ATOM     13  C   UNL     1       1.941   9.498  18.597  0.00  0.00    +0.000 C 
BRANCH  13  14
ATOM     14  C   UNL     1       0.805  10.514  18.332  0.00  0.00    +0.000 C 
ATOM     15  C   UNL     1       1.247  11.933  18.742  0.00  0.00    +0.000 C 
ATOM     16  C   UNL     1       1.262  12.128  20.262  0.00  0.00    +0.000 C 
ATOM     17  N   UNL     1      -0.026  11.802  20.872  0.00  0.00    +0.000 NA
ATOM     18  C   UNL     1      -0.418  10.421  20.565  0.00  0.00    +0.000 C 
ATOM     19  C   UNL     1      -0.515  10.195  19.055  0.00  0.00    +0.000 C 
ATOM     20  H   UNL     1      -0.737  12.430  20.501  0.00  0.00    +0.000 HD
ENDBRANCH  13  14
ENDBRANCH  12  13
ENDBRANCH  11  12
ENDBRANCH   7  11
ENDBRANCH   5   6
ENDBRANCH   1   5
BRANCH   3  21
ATOM     21  C   UNL     1       6.793   5.694  17.825  0.00  0.00    +0.000 C 
BRANCH  21  22
ATOM     22  C   UNL     1       7.052   7.190  17.539  0.00  0.00    +0.000 C 
ATOM     23  O   UNL     1       6.435   7.804  16.670  0.00  0.00    +0.000 OA
ATOM     24  N   UNL     1       8.114   7.740  18.223  0.00  0.00    +0.000 N 
ATOM     25  H   UNL     1       8.609   7.164  18.903  0.00  0.00    +0.000 HD
BRANCH  24  26
ATOM     26  C   UNL     1       8.476   9.130  18.043  0.00  0.00    +0.000 C 
BRANCH  26  27
ATOM     27  C   UNL     1       8.996   9.802  19.313  0.00  0.00    +0.000 C 
BRANCH  27  28
ATOM     28  C   UNL     1      10.159  10.800  19.108  0.00  0.00    +0.000 C 
ATOM     29  C   UNL     1      10.018  11.689  17.860  0.00  0.00    +0.000 C 
ATOM     30  C   UNL     1       8.989  12.810  18.008  0.00  0.00    +0.000 C 
ATOM     31  C   UNL     1       9.218  13.637  19.269  0.00  0.00    +0.000 C 
ATOM     32  C   UNL     1       9.286  12.757  20.511  0.00  0.00    +0.000 C 
ATOM     33  C   UNL     1      10.351  11.670  20.364  0.00  0.00    +0.000 C 
ENDBRANCH  27  28
ENDBRANCH  26  27
ENDBRANCH  24  26
ENDBRANCH  21  22
BRANCH  21  34
ATOM     34  C   UNL     1       7.453   4.832  16.738  0.00  0.00    +0.000 C 
BRANCH  34  35
ATOM     35  C   UNL     1       6.472   4.467  15.648  0.00  0.00    +0.000 C 
ATOM     36  O   UNL     1       6.198   3.313  15.341  0.00  0.00    +0.000 OA
BRANCH  35  37
ATOM     37  O   UNL     1       5.998   5.529  14.964  0.00  0.00    +0.000 OA
ATOM     38  H   UNL     1       5.024   5.578  14.912  0.00  0.00    +0.000 HD
ENDBRANCH  35  37
ENDBRANCH  34  35
ENDBRANCH  21  34
ENDBRANCH   3  21
TORSDOF 15
ENDMDL
MODEL 5
REMARK VINA RESULT:      -7.0      1.341      1.975
REMARK  Name = 
REMARK  16 active torsions:
REMARK  status: ('A' for Active; 'I' for Inactive)
REMARK    1  A    between atoms: C_1  and  C_2
REMARK    2  A    between atoms: C_2  and  N_3
REMARK    3  A    between atoms: N_3  and  C_4
REMARK    4  A    between atoms: C_4  and  C_5
REMARK    5  A    between atoms: N_7  and  C_8
REMARK    6  A    between atoms: C_8  and  C_9
REMARK    7  A    between atoms: C_8  and  C_13
REMARK    8  A    between atoms: C_9  and  C_10
REMARK    9  A    between atoms: C_10  and  O_12
REMARK   10  A    between atoms: N_15  and  C_16
REMARK   11  A    between atoms: C_16  and  C_17
REMARK   12  A    between atoms: C_17  and  C_18
REMARK   13  A    between atoms: C_24  and  C_26
REMARK   14  A    between atoms: C_26  and  C_27
REMARK   15  A    between atoms: C_27  and  C_28
REMARK   16  A    between atoms: C_28  and  C_29
REMARK                            x       y       z     vdW  Elec       q    Type
REMARK                         _______ _______ _______ _____ _____    ______ ____
ROOT
ATOM      1  C   UNL     1       4.487   4.946  18.710  0.00  0.00    +0.000 C 
ATOM      2  O   UNL     1       4.767   4.061  19.513  0.00  0.00    +0.000 OA
ATOM      3  N   UNL     1       5.452   5.676  18.058  0.00  0.00    +0.000 N 
ATOM      4  H   UNL     1       5.209   6.614  17.738  0.00  0.00    +0.000 HD
ENDROOT
BRANCH   1   5
ATOM      5  C   UNL     1       3.048   5.375  18.395  0.00  0.00    +0.000 C 
BRANCH   5   6
ATOM      6  N   UNL     1       2.401   6.062  19.513  0.00  0.00    +0.000 N 
ATOM      7  C   UNL     1       2.018   7.397  19.509  0.00  0.00    +0.000 C 
ATOM      8  O   UNL     1       1.281   7.849  20.385  0.00  0.00    +0.000 OA
BRANCH   6  10
ATOM      9  C   UNL     1       1.172   4.079  20.425  0.00  0.00    +0.000 C 
ATOM     10  C   UNL     1       2.065   5.279  20.703  0.00  0.00    +0.000 C 
ENDBRANCH   6  10
BRANCH   7  11
ATOM     11  C   UNL     1       2.575   8.300  18.415  0.00  0.00    +0.000 C 
BRANCH  11  12
ATOM     12  C   UNL     1       1.500   9.221  17.819  0.00  0.00    +0.000 C 
BRANCH  12  13
ATOM     13  C   UNL     1       1.521  10.636  18.421  0.00  0.00    +0.000 C 
BRANCH  13  14
ATOM     14  C   UNL     1       0.313  10.964  19.329  0.00  0.00    +0.000 C 
ATOM     15  C   UNL     1      -0.943  10.213  18.845  0.00  0.00    +0.000 C 
ATOM     16  C   UNL     1      -1.545  10.829  17.578  0.00  0.00    +0.000 C 
ATOM     17  N   UNL     1      -1.838  12.252  17.743  0.00  0.00    +0.000 NA
ATOM     18  C   UNL     1      -0.629  12.997  18.116  0.00  0.00    +0.000 C 
ATOM     19  C   UNL     1      -0.028  12.462  19.416  0.00  0.00    +0.000 C 
ATOM     20  H   UNL     1      -2.529  12.366  18.482  0.00  0.00    +0.000 HD
ENDBRANCH  13  14
ENDBRANCH  12  13
ENDBRANCH  11  12
ENDBRANCH   7  11
ENDBRANCH   5   6
ENDBRANCH   1   5
BRANCH   3  21
ATOM     21  C   UNL     1       6.889   5.397  18.149  0.00  0.00    +0.000 C 
BRANCH  21  22
ATOM     22  C   UNL     1       7.770   6.662  18.266  0.00  0.00    +0.000 C 
ATOM     23  O   UNL     1       8.592   6.802  19.170  0.00  0.00    +0.000 OA
ATOM     24  N   UNL     1       7.466   7.668  17.377  0.00  0.00    +0.000 N 
ATOM     25  H   UNL     1       6.745   7.502  16.675  0.00  0.00    +0.000 HD
BRANCH  24  26
ATOM     26  C   UNL     1       8.205   8.913  17.381  0.00  0.00    +0.000 C 
BRANCH  26  27
ATOM     27  C   UNL     1       8.415   9.503  18.774  0.00  0.00    +0.000 C 
BRANCH  27  28
ATOM     28  C   UNL     1       9.729  10.295  18.970  0.00  0.00    +0.000 C 
ATOM     29  C   UNL     1      10.017  11.328  17.866  0.00  0.00    +0.000 C 
ATOM     30  C   UNL     1       9.160  12.591  17.959  0.00  0.00    +0.000 C 
ATOM     31  C   UNL     1       9.210  13.218  19.348  0.00  0.00    +0.000 C 
ATOM     32  C   UNL     1       8.854  12.207  20.431  0.00  0.00    +0.000 C 
ATOM     33  C   UNL     1       9.750  10.971  20.353  0.00  0.00    +0.000 C 
ENDBRANCH  27  28
ENDBRANCH  26  27
ENDBRANCH  24  26
ENDBRANCH  21  22
BRANCH  21  34
ATOM     34  C   UNL     1       7.367   4.534  16.972  0.00  0.00    +0.000 C 
BRANCH  34  35
ATOM     35  C   UNL     1       6.581   4.826  15.715  0.00  0.00    +0.000 C 
ATOM     36  O   UNL     1       6.233   5.951  15.378  0.00  0.00    +0.000 OA
BRANCH  35  37
ATOM     37  O   UNL     1       6.201   3.720  15.042  0.00  0.00    +0.000 OA
ATOM     38  H   UNL     1       5.295   3.756  14.676  0.00  0.00    +0.000 HD
ENDBRANCH  35  37
ENDBRANCH  34  35
ENDBRANCH  21  34
ENDBRANCH   3  21
TORSDOF 15
ENDMDL
MODEL 6
REMARK VINA RESULT:      -6.8      1.528      2.016
REMARK  Name = 
REMARK  16 active torsions:
REMARK  status: ('A' for Active; 'I' for Inactive)
REMARK    1  A    between atoms: C_1  and  C_2
REMARK    2  A    between atoms: C_2  and  N_3
REMARK    3  A    between atoms: N_3  and  C_4
REMARK    4  A    between atoms: C_4  and  C_5
REMARK    5  A    between atoms: N_7  and  C_8
REMARK    6  A    between atoms: C_8  and  C_9
REMARK    7  A    between atoms: C_8  and  C_13
REMARK    8  A    between atoms: C_9  and  C_10
REMARK    9  A    between atoms: C_10  and  O_12
REMARK   10  A    between atoms: N_15  and  C_16
REMARK   11  A    between atoms: C_16  and  C_17
REMARK   12  A    between atoms: C_17  and  C_18
REMARK   13  A    between atoms: C_24  and  C_26
REMARK   14  A    between atoms: C_26  and  C_27
REMARK   15  A    between atoms: C_27  and  C_28
REMARK   16  A    between atoms: C_28  and  C_29
REMARK                            x       y       z     vdW  Elec       q    Type
REMARK                         _______ _______ _______ _____ _____    ______ ____
ROOT
ATOM      1  C   UNL     1       3.659   5.062  17.556  0.00  0.00    +0.000 C 
ATOM      2  O   UNL     1       3.833   3.948  17.072  0.00  0.00    +0.000 OA
ATOM      3  N   UNL     1       4.690   5.954  17.731  0.00  0.00    +0.000 N 
ATOM      4  H   UNL     1       4.596   6.658  18.464  0.00  0.00    +0.000 HD
ENDROOT
BRANCH   1   5
ATOM      5  C   UNL     1       2.301   5.554  18.073  0.00  0.00    +0.000 C 
BRANCH   5   6
ATOM      6  N   UNL     1       2.232   5.608  19.533  0.00  0.00    +0.000 N 
ATOM      7  C   UNL     1       1.866   6.726  20.270  0.00  0.00    +0.000 C 
ATOM      8  O   UNL     1       1.609   6.639  21.471  0.00  0.00    +0.000 OA
BRANCH   6  10
ATOM      9  C   UNL     1       1.349   3.382  20.273  0.00  0.00    +0.000 C 
ATOM     10  C   UNL     1       2.499   4.378  20.281  0.00  0.00    +0.000 C 
ENDBRANCH   6  10
BRANCH   7  11
ATOM     11  C   UNL     1       1.836   8.075  19.561  0.00  0.00    +0.000 C 
BRANCH  11  12
ATOM     12  C   UNL     1       1.170   9.165  20.414  0.00  0.00    +0.000 C 
BRANCH  12  13
ATOM     13  C   UNL     1      -0.207   9.589  19.878  0.00  0.00    +0.000 C 
BRANCH  13  14
ATOM     14  C   UNL     1      -0.171  10.283  18.496  0.00  0.00    +0.000 C 
ATOM     15  C   UNL     1       0.360  11.724  18.631  0.00  0.00    +0.000 C 
ATOM     16  C   UNL     1      -0.672  12.677  19.244  0.00  0.00    +0.000 C 
ATOM     17  N   UNL     1      -1.934  12.669  18.505  0.00  0.00    +0.000 NA
ATOM     18  C   UNL     1      -2.500  11.316  18.446  0.00  0.00    +0.000 C 
ATOM     19  C   UNL     1      -1.531  10.339  17.778  0.00  0.00    +0.000 C 
ATOM     20  H   UNL     1      -1.764  12.991  17.554  0.00  0.00    +0.000 HD
ENDBRANCH  13  14
ENDBRANCH  12  13
ENDBRANCH  11  12
ENDBRANCH   7  11
ENDBRANCH   5   6
ENDBRANCH   1   5
BRANCH   3  21
ATOM     21  C   UNL     1       6.056   5.728  17.248  0.00  0.00    +0.000 C 
BRANCH  21  22
ATOM     22  C   UNL     1       7.144   6.442  18.083  0.00  0.00    +0.000 C 
ATOM     23  O   UNL     1       7.582   5.963  19.128  0.00  0.00    +0.000 OA
ATOM     24  N   UNL     1       7.477   7.706  17.650  0.00  0.00    +0.000 N 
ATOM     25  H   UNL     1       7.047   8.060  16.795  0.00  0.00    +0.000 HD
BRANCH  24  26
ATOM     26  C   UNL     1       8.474   8.493  18.345  0.00  0.00    +0.000 C 
BRANCH  26  27
ATOM     27  C   UNL     1       8.575   9.936  17.853  0.00  0.00    +0.000 C 
BRANCH  27  28
ATOM     28  C   UNL     1       9.014  10.971  18.915  0.00  0.00    +0.000 C 
ATOM     29  C   UNL     1      10.505  10.902  19.288  0.00  0.00    +0.000 C 
ATOM     30  C   UNL     1      11.439  11.488  18.230  0.00  0.00    +0.000 C 
ATOM     31  C   UNL     1      11.025  12.895  17.814  0.00  0.00    +0.000 C 
ATOM     32  C   UNL     1       9.566  12.943  17.377  0.00  0.00    +0.000 C 
ATOM     33  C   UNL     1       8.642  12.396  18.465  0.00  0.00    +0.000 C 
ENDBRANCH  27  28
ENDBRANCH  26  27
ENDBRANCH  24  26
ENDBRANCH  21  22
BRANCH  21  34
ATOM     34  C   UNL     1       6.198   6.112  15.768  0.00  0.00    +0.000 C 
BRANCH  34  35
ATOM     35  C   UNL     1       6.865   5.015  14.972  0.00  0.00    +0.000 C 
ATOM     36  O   UNL     1       6.461   3.860  14.938  0.00  0.00    +0.000 OA
BRANCH  35  37
ATOM     37  O   UNL     1       8.016   5.396  14.378  0.00  0.00    +0.000 OA
ATOM     38  H   UNL     1       8.047   5.244  13.414  0.00  0.00    +0.000 HD
ENDBRANCH  35  37
ENDBRANCH  34  35
ENDBRANCH  21  34
ENDBRANCH   3  21
TORSDOF 15
ENDMDL
MODEL 7
REMARK VINA RESULT:      -6.8      1.710      2.239
REMARK  Name = 
REMARK  16 active torsions:
REMARK  status: ('A' for Active; 'I' for Inactive)
REMARK    1  A    between atoms: C_1  and  C_2
REMARK    2  A    between atoms: C_2  and  N_3
REMARK    3  A    between atoms: N_3  and  C_4
REMARK    4  A    between atoms: C_4  and  C_5
REMARK    5  A    between atoms: N_7  and  C_8
REMARK    6  A    between atoms: C_8  and  C_9
REMARK    7  A    between atoms: C_8  and  C_13
REMARK    8  A    between atoms: C_9  and  C_10
REMARK    9  A    between atoms: C_10  and  O_12
REMARK   10  A    between atoms: N_15  and  C_16
REMARK   11  A    between atoms: C_16  and  C_17
REMARK   12  A    between atoms: C_17  and  C_18
REMARK   13  A    between atoms: C_24  and  C_26
REMARK   14  A    between atoms: C_26  and  C_27
REMARK   15  A    between atoms: C_27  and  C_28
REMARK   16  A    between atoms: C_28  and  C_29
REMARK                            x       y       z     vdW  Elec       q    Type
REMARK                         _______ _______ _______ _____ _____    ______ ____
ROOT
ATOM      1  C   UNL     1       4.076   4.751  17.256  0.00  0.00    +0.000 C 
ATOM      2  O   UNL     1       4.453   3.610  17.008  0.00  0.00    +0.000 OA
ATOM      3  N   UNL     1       4.952   5.805  17.363  0.00  0.00    +0.000 N 
ATOM      4  H   UNL     1       4.676   6.601  17.939  0.00  0.00    +0.000 HD
ENDROOT
BRANCH   1   5
ATOM      5  C   UNL     1       2.612   5.113  17.533  0.00  0.00    +0.000 C 
BRANCH   5   6
ATOM      6  N   UNL     1       2.076   4.451  18.723  0.00  0.00    +0.000 N 
ATOM      7  C   UNL     1       2.021   5.019  19.990  0.00  0.00    +0.000 C 
ATOM      8  O   UNL     1       1.357   4.501  20.888  0.00  0.00    +0.000 OA
BRANCH   6  10
ATOM      9  C   UNL     1       2.312   2.000  19.187  0.00  0.00    +0.000 C 
ATOM     10  C   UNL     1       1.489   3.120  18.566  0.00  0.00    +0.000 C 
ENDBRANCH   6  10
BRANCH   7  11
ATOM     11  C   UNL     1       2.844   6.275  20.249  0.00  0.00    +0.000 C 
BRANCH  11  12
ATOM     12  C   UNL     1       2.028   7.558  20.033  0.00  0.00    +0.000 C 
BRANCH  12  13
ATOM     13  C   UNL     1       1.360   8.069  21.321  0.00  0.00    +0.000 C 
BRANCH  13  14
ATOM     14  C   UNL     1      -0.058   8.653  21.119  0.00  0.00    +0.000 C 
ATOM     15  C   UNL     1       0.012   9.973  20.325  0.00  0.00    +0.000 C 
ATOM     16  C   UNL     1       0.530  11.142  21.170  0.00  0.00    +0.000 C 
ATOM     17  N   UNL     1      -0.253  11.326  22.392  0.00  0.00    +0.000 NA
ATOM     18  C   UNL     1      -0.253  10.103  23.205  0.00  0.00    +0.000 C 
ATOM     19  C   UNL     1      -0.827   8.920  22.424  0.00  0.00    +0.000 C 
ATOM     20  H   UNL     1      -1.214  11.548  22.140  0.00  0.00    +0.000 HD
ENDBRANCH  13  14
ENDBRANCH  12  13
ENDBRANCH  11  12
ENDBRANCH   7  11
ENDBRANCH   5   6
ENDBRANCH   1   5
BRANCH   3  21
ATOM     21  C   UNL     1       6.386   5.709  17.071  0.00  0.00    +0.000 C 
BRANCH  21  22
ATOM     22  C   UNL     1       7.284   6.473  18.071  0.00  0.00    +0.000 C 
ATOM     23  O   UNL     1       7.591   5.999  19.164  0.00  0.00    +0.000 OA
ATOM     24  N   UNL     1       7.592   7.766  17.710  0.00  0.00    +0.000 N 
ATOM     25  H   UNL     1       7.273   8.110  16.804  0.00  0.00    +0.000 HD
BRANCH  24  26
ATOM     26  C   UNL     1       8.417   8.599  18.558  0.00  0.00    +0.000 C 
BRANCH  26  27
ATOM     27  C   UNL     1       8.771   9.951  17.939  0.00  0.00    +0.000 C 
BRANCH  27  28
ATOM     28  C   UNL     1       9.142  11.066  18.945  0.00  0.00    +0.000 C 
ATOM     29  C   UNL     1      10.597  11.012  19.442  0.00  0.00    +0.000 C 
ATOM     30  C   UNL     1      11.622  11.500  18.418  0.00  0.00    +0.000 C 
ATOM     31  C   UNL     1      11.266  12.872  17.857  0.00  0.00    +0.000 C 
ATOM     32  C   UNL     1       9.847  12.898  17.300  0.00  0.00    +0.000 C 
ATOM     33  C   UNL     1       8.831  12.452  18.351  0.00  0.00    +0.000 C 
ENDBRANCH  27  28
ENDBRANCH  26  27
ENDBRANCH  24  26
ENDBRANCH  21  22
BRANCH  21  34
ATOM     34  C   UNL     1       6.696   6.163  15.637  0.00  0.00    +0.000 C 
BRANCH  34  35
ATOM     35  C   UNL     1       6.988   4.988  14.734  0.00  0.00    +0.000 C 
ATOM     36  O   UNL     1       7.393   5.100  13.583  0.00  0.00    +0.000 OA
BRANCH  35  37
ATOM     37  O   UNL     1       6.660   3.794  15.271  0.00  0.00    +0.000 OA
ATOM     38  H   UNL     1       5.821   3.416  14.944  0.00  0.00    +0.000 HD
ENDBRANCH  35  37
ENDBRANCH  34  35
ENDBRANCH  21  34
ENDBRANCH   3  21
TORSDOF 15
ENDMDL
MODEL 8
REMARK VINA RESULT:      -6.8      1.889      4.456
REMARK  Name = 
REMARK  16 active torsions:
REMARK  status: ('A' for Active; 'I' for Inactive)
REMARK    1  A    between atoms: C_1  and  C_2
REMARK    2  A    between atoms: C_2  and  N_3
REMARK    3  A    between atoms: N_3  and  C_4
REMARK    4  A    between atoms: C_4  and  C_5
REMARK    5  A    between atoms: N_7  and  C_8
REMARK    6  A    between atoms: C_8  and  C_9
REMARK    7  A    between atoms: C_8  and  C_13
REMARK    8  A    between atoms: C_9  and  C_10
REMARK    9  A    between atoms: C_10  and  O_12
REMARK   10  A    between atoms: N_15  and  C_16
REMARK   11  A    between atoms: C_16  and  C_17
REMARK   12  A    between atoms: C_17  and  C_18
REMARK   13  A    between atoms: C_24  and  C_26
REMARK   14  A    between atoms: C_26  and  C_27
REMARK   15  A    between atoms: C_27  and  C_28
REMARK   16  A    between atoms: C_28  and  C_29
REMARK                            x       y       z     vdW  Elec       q    Type
REMARK                         _______ _______ _______ _____ _____    ______ ____
ROOT
ATOM      1  C   UNL     1       4.577   6.094  17.587  0.00  0.00    +0.000 C 
ATOM      2  O   UNL     1       5.059   7.200  17.362  0.00  0.00    +0.000 OA
ATOM      3  N   UNL     1       5.351   4.961  17.671  0.00  0.00    +0.000 N 
ATOM      4  H   UNL     1       4.912   4.064  17.458  0.00  0.00    +0.000 HD
ENDROOT
BRANCH   1   5
ATOM      5  C   UNL     1       3.070   5.845  17.732  0.00  0.00    +0.000 C 
BRANCH   5   6
ATOM      6  N   UNL     1       2.379   6.929  18.431  0.00  0.00    +0.000 N 
ATOM      7  C   UNL     1       2.286   7.052  19.811  0.00  0.00    +0.000 C 
ATOM      8  O   UNL     1       1.893   8.096  20.331  0.00  0.00    +0.000 OA
BRANCH   6  10
ATOM      9  C   UNL     1       2.429   9.370  17.867  0.00  0.00    +0.000 C 
ATOM     10  C   UNL     1       1.798   8.006  17.628  0.00  0.00    +0.000 C 
ENDBRANCH   6  10
BRANCH   7  11
ATOM     11  C   UNL     1       2.641   5.840  20.664  0.00  0.00    +0.000 C 
BRANCH  11  12
ATOM     12  C   UNL     1       1.423   4.942  20.932  0.00  0.00    +0.000 C 
BRANCH  12  13
ATOM     13  C   UNL     1       1.114   3.986  19.767  0.00  0.00    +0.000 C 
BRANCH  13  14
ATOM     14  C   UNL     1       1.543   2.521  20.010  0.00  0.00    +0.000 C 
ATOM     15  C   UNL     1       2.918   2.470  20.706  0.00  0.00    +0.000 C 
ATOM     16  C   UNL     1       4.072   2.802  19.754  0.00  0.00    +0.000 C 
ATOM     17  N   UNL     1       4.071   1.943  18.570  0.00  0.00    +0.000 NA
ATOM     18  C   UNL     1       2.799   2.049  17.844  0.00  0.00    +0.000 C 
ATOM     19  C   UNL     1       1.619   1.661  18.736  0.00  0.00    +0.000 C 
ATOM     20  H   UNL     1       4.198   0.976  18.861  0.00  0.00    +0.000 HD
ENDBRANCH  13  14
ENDBRANCH  12  13
ENDBRANCH  11  12
ENDBRANCH   7  11
ENDBRANCH   5   6
ENDBRANCH   1   5
BRANCH   3  21
ATOM     21  C   UNL     1       6.817   4.967  17.635  0.00  0.00    +0.000 C 
BRANCH  21  22
ATOM     22  C   UNL     1       7.466   5.967  18.618  0.00  0.00    +0.000 C 
ATOM     23  O   UNL     1       7.500   5.760  19.831  0.00  0.00    +0.000 OA
ATOM     24  N   UNL     1       7.869   7.159  18.058  0.00  0.00    +0.000 N 
ATOM     25  H   UNL     1       7.778   7.282  17.050  0.00  0.00    +0.000 HD
BRANCH  24  26
ATOM     26  C   UNL     1       8.485   8.191  18.866  0.00  0.00    +0.000 C 
BRANCH  26  27
ATOM     27  C   UNL     1       8.492   9.569  18.207  0.00  0.00    +0.000 C 
BRANCH  27  28
ATOM     28  C   UNL     1       9.739  10.437  18.495  0.00  0.00    +0.000 C 
ATOM     29  C   UNL     1       9.726  11.813  17.807  0.00  0.00    +0.000 C 
ATOM     30  C   UNL     1       8.785  12.825  18.460  0.00  0.00    +0.000 C 
ATOM     31  C   UNL     1       9.023  12.946  19.962  0.00  0.00    +0.000 C 
ATOM     32  C   UNL     1       8.963  11.587  20.648  0.00  0.00    +0.000 C 
ATOM     33  C   UNL     1       9.943  10.601  20.013  0.00  0.00    +0.000 C 
ENDBRANCH  27  28
ENDBRANCH  26  27
ENDBRANCH  24  26
ENDBRANCH  21  22
BRANCH  21  34
ATOM     34  C   UNL     1       7.339   5.219  16.212  0.00  0.00    +0.000 C 
BRANCH  34  35
ATOM     35  C   UNL     1       6.344   4.772  15.168  0.00  0.00    +0.000 C 
ATOM     36  O   UNL     1       6.248   3.617  14.772  0.00  0.00    +0.000 OA
BRANCH  35  37
ATOM     37  O   UNL     1       5.632   5.783  14.626  0.00  0.00    +0.000 OA
ATOM     38  H   UNL     1       4.855   6.060  15.149  0.00  0.00    +0.000 HD
ENDBRANCH  35  37
ENDBRANCH  34  35
ENDBRANCH  21  34
ENDBRANCH   3  21
TORSDOF 15
ENDMDL
MODEL 9
REMARK VINA RESULT:      -6.8      1.278      1.680
REMARK  Name = 
REMARK  16 active torsions:
REMARK  status: ('A' for Active; 'I' for Inactive)
REMARK    1  A    between atoms: C_1  and  C_2
REMARK    2  A    between atoms: C_2  and  N_3
REMARK    3  A    between atoms: N_3  and  C_4
REMARK    4  A    between atoms: C_4  and  C_5
REMARK    5  A    between atoms: N_7  and  C_8
REMARK    6  A    between atoms: C_8  and  C_9
REMARK    7  A    between atoms: C_8  and  C_13
REMARK    8  A    between atoms: C_9  and  C_10
REMARK    9  A    between atoms: C_10  and  O_12
REMARK   10  A    between atoms: N_15  and  C_16
REMARK   11  A    between atoms: C_16  and  C_17
REMARK   12  A    between atoms: C_17  and  C_18
REMARK   13  A    between atoms: C_24  and  C_26
REMARK   14  A    between atoms: C_26  and  C_27
REMARK   15  A    between atoms: C_27  and  C_28
REMARK   16  A    between atoms: C_28  and  C_29
REMARK                            x       y       z     vdW  Elec       q    Type
REMARK                         _______ _______ _______ _____ _____    ______ ____
ROOT
ATOM      1  C   UNL     1       4.616   5.886  17.595  0.00  0.00    +0.000 C 
ATOM      2  O   UNL     1       5.012   7.042  17.486  0.00  0.00    +0.000 OA
ATOM      3  N   UNL     1       5.467   4.809  17.518  0.00  0.00    +0.000 N 
ATOM      4  H   UNL     1       5.081   3.914  17.216  0.00  0.00    +0.000 HD
ENDROOT
BRANCH   1   5
ATOM      5  C   UNL     1       3.137   5.514  17.763  0.00  0.00    +0.000 C 
BRANCH   5   6
ATOM      6  N   UNL     1       2.806   5.094  19.125  0.00  0.00    +0.000 N 
ATOM      7  C   UNL     1       2.186   5.896  20.075  0.00  0.00    +0.000 C 
ATOM      8  O   UNL     1       1.735   5.415  21.114  0.00  0.00    +0.000 OA
BRANCH   6  10
ATOM      9  C   UNL     1       2.200   2.684  18.804  0.00  0.00    +0.000 C 
ATOM     10  C   UNL     1       3.081   3.707  19.505  0.00  0.00    +0.000 C 
ENDBRANCH   6  10
BRANCH   7  11
ATOM     11  C   UNL     1       2.123   7.396  19.815  0.00  0.00    +0.000 C 
BRANCH  11  12
ATOM     12  C   UNL     1       1.447   8.156  20.967  0.00  0.00    +0.000 C 
BRANCH  12  13
ATOM     13  C   UNL     1       0.469   9.239  20.480  0.00  0.00    +0.000 C 
BRANCH  13  14
ATOM     14  C   UNL     1       0.923   9.984  19.204  0.00  0.00    +0.000 C 
ATOM     15  C   UNL     1       1.080  11.492  19.488  0.00  0.00    +0.000 C 
ATOM     16  C   UNL     1      -0.268  12.212  19.604  0.00  0.00    +0.000 C 
ATOM     17  N   UNL     1      -1.106  12.003  18.424  0.00  0.00    +0.000 NA
ATOM     18  C   UNL     1      -1.340  10.573  18.192  0.00  0.00    +0.000 C 
ATOM     19  C   UNL     1      -0.023   9.820  18.001  0.00  0.00    +0.000 C 
ATOM     20  H   UNL     1      -0.634  12.390  17.608  0.00  0.00    +0.000 HD
ENDBRANCH  13  14
ENDBRANCH  12  13
ENDBRANCH  11  12
ENDBRANCH   7  11
ENDBRANCH   5   6
ENDBRANCH   1   5
BRANCH   3  21
ATOM     21  C   UNL     1       6.926   4.925  17.430  0.00  0.00    +0.000 C 
BRANCH  21  22
ATOM     22  C   UNL     1       7.540   5.913  18.448  0.00  0.00    +0.000 C 
ATOM     23  O   UNL     1       7.590   5.661  19.652  0.00  0.00    +0.000 OA
ATOM     24  N   UNL     1       7.892   7.140  17.932  0.00  0.00    +0.000 N 
ATOM     25  H   UNL     1       7.790   7.297  16.930  0.00  0.00    +0.000 HD
BRANCH  24  26
ATOM     26  C   UNL     1       8.470   8.164  18.776  0.00  0.00    +0.000 C 
BRANCH  26  27
ATOM     27  C   UNL     1       8.401   9.569  18.178  0.00  0.00    +0.000 C 
BRANCH  27  28
ATOM     28  C   UNL     1       9.661  10.441  18.382  0.00  0.00    +0.000 C 
ATOM     29  C   UNL     1       9.581  11.832  17.729  0.00  0.00    +0.000 C 
ATOM     30  C   UNL     1       8.689  12.821  18.480  0.00  0.00    +0.000 C 
ATOM     31  C   UNL     1       9.049  12.911  19.959  0.00  0.00    +0.000 C 
ATOM     32  C   UNL     1       9.056  11.536  20.617  0.00  0.00    +0.000 C 
ATOM     33  C   UNL     1       9.988  10.573  19.882  0.00  0.00    +0.000 C 
ENDBRANCH  27  28
ENDBRANCH  26  27
ENDBRANCH  24  26
ENDBRANCH  21  22
BRANCH  21  34
ATOM     34  C   UNL     1       7.374   5.294  16.008  0.00  0.00    +0.000 C 
BRANCH  34  35
ATOM     35  C   UNL     1       6.383   4.816  14.973  0.00  0.00    +0.000 C 
ATOM     36  O   UNL     1       5.618   5.560  14.371  0.00  0.00    +0.000 OA
BRANCH  35  37
ATOM     37  O   UNL     1       6.337   3.474  14.841  0.00  0.00    +0.000 OA
ATOM     38  H   UNL     1       7.210   3.035  14.827  0.00  0.00    +0.000 HD
ENDBRANCH  35  37
ENDBRANCH  34  35
ENDBRANCH  21  34
ENDBRANCH   3  21
TORSDOF 15
ENDMDL
