MODEL 1
REMARK VINA RESULT:      -7.8      0.000      0.000
REMARK  Name = 
REMARK  4 active torsions:
REMARK  status: ('A' for Active; 'I' for Inactive)
REMARK    1  A    between atoms: S_2  and  C_4
REMARK    2  A    between atoms: S_2  and  N_18
REMARK    3  A    between atoms: C_7  and  O_8
REMARK    4  A    between atoms: O_8  and  C_9
REMARK                            x       y       z     vdW  Elec       q    Type
REMARK                         _______ _______ _______ _____ _____    ______ ____
ROOT
ATOM      1  C   UNL     1       2.469   6.974  19.286  0.00  0.00    +0.000 A 
ATOM      2  C   UNL     1       1.738   7.588  20.305  0.00  0.00    +0.000 A 
ATOM      3  C   UNL     1       1.168   8.843  20.075  0.00  0.00    +0.000 A 
ATOM      4  C   UNL     1       1.329   9.474  18.838  0.00  0.00    +0.000 A 
ATOM      5  C   UNL     1       2.023   8.827  17.809  0.00  0.00    +0.000 A 
ATOM      6  C   UNL     1       2.621   7.589  18.041  0.00  0.00    +0.000 A 
ENDROOT
BRANCH   1   8
ATOM      7  O   UNL     1       4.670   5.629  19.531  0.00  0.00    +0.000 OA
ATOM      8  S   UNL     1       3.243   5.402  19.560  0.00  0.00    +0.000 S 
ATOM      9  O   UNL     1       2.604   4.777  20.696  0.00  0.00    +0.000 OA
BRANCH   8  10
ATOM     10  N   UNL     1       2.820   4.517  18.161  0.00  0.00    +0.000 NA
ATOM     11  C   UNL     1       1.450   3.911  18.119  0.00  0.00    +0.000 C 
ATOM     12  C   UNL     1       1.383   2.591  18.902  0.00  0.00    +0.000 C 
ATOM     13  O   UNL     1       2.394   1.665  18.474  0.00  0.00    +0.000 OA
ATOM     14  C   UNL     1       3.706   2.234  18.609  0.00  0.00    +0.000 C 
ATOM     15  C   UNL     1       3.831   3.492  17.748  0.00  0.00    +0.000 C 
ENDBRANCH   8  10
ENDBRANCH   1   8
BRANCH   4  16
ATOM     16  O   UNL     1       0.714  10.700  18.705  0.00  0.00    +0.000 OA
BRANCH  16  17
ATOM     17  C   UNL     1      -0.639  10.767  18.462  0.00  0.00    +0.000 A 
ATOM     18  C   UNL     1      -1.344  11.732  19.185  0.00  0.00    +0.000 A 
ATOM     19  C   UNL     1      -2.720  11.887  18.997  0.00  0.00    +0.000 A 
ATOM     20  C   UNL     1      -3.386  11.073  18.082  0.00  0.00    +0.000 A 
ATOM     21 BR   UNL     1      -5.250  11.265  17.835  0.00  0.00    +0.000 Br
ATOM     22  C   UNL     1      -2.685  10.126  17.337  0.00  0.00    +0.000 A 
ATOM     23  C   UNL     1      -1.306   9.993  17.507  0.00  0.00    +0.000 A 
ENDBRANCH  16  17
ENDBRANCH   4  16
TORSDOF 4
ENDMDL
MODEL 2
REMARK VINA RESULT:      -7.7      0.292      1.051
REMARK  Name = 
REMARK  4 active torsions:
REMARK  status: ('A' for Active; 'I' for Inactive)
REMARK    1  A    between atoms: S_2  and  C_4
REMARK    2  A    between atoms: S_2  and  N_18
REMARK    3  A    between atoms: C_7  and  O_8
REMARK    4  A    between atoms: O_8  and  C_9
REMARK                            x       y       z     vdW  Elec       q    Type
REMARK                         _______ _______ _______ _____ _____    ______ ____
ROOT
ATOM      1  C   UNL     1       2.479   7.105  19.204  0.00  0.00    +0.000 A 
ATOM      2  C   UNL     1       2.563   7.829  18.013  0.00  0.00    +0.000 A 
ATOM      3  C   UNL     1       1.915   9.063  17.917  0.00  0.00    +0.000 A 
ATOM      4  C   UNL     1       1.189   9.564  19.003  0.00  0.00    +0.000 A 
ATOM      5  C   UNL     1       1.151   8.851  20.206  0.00  0.00    +0.000 A 
ATOM      6  C   UNL     1       1.770   7.605  20.299  0.00  0.00    +0.000 A 
ENDROOT
BRANCH   1   8
ATOM      7  O   UNL     1       4.677   5.734  19.239  0.00  0.00    +0.000 OA
ATOM      8  S   UNL     1       3.252   5.516  19.344  0.00  0.00    +0.000 S 
ATOM      9  O   UNL     1       2.677   4.832  20.480  0.00  0.00    +0.000 OA
BRANCH   8  10
ATOM     10  N   UNL     1       2.737   4.712  17.926  0.00  0.00    +0.000 NA
ATOM     11  C   UNL     1       1.431   3.978  17.989  0.00  0.00    +0.000 C 
ATOM     12  C   UNL     1       1.581   2.597  18.645  0.00  0.00    +0.000 C 
ATOM     13  O   UNL     1       2.608   1.816  18.015  0.00  0.00    +0.000 OA
ATOM     14  C   UNL     1       3.870   2.499  18.048  0.00  0.00    +0.000 C 
ATOM     15  C   UNL     1       3.774   3.831  17.301  0.00  0.00    +0.000 C 
ENDBRANCH   8  10
ENDBRANCH   1   8
BRANCH   4  16
ATOM     16  O   UNL     1       0.601  10.796  18.814  0.00  0.00    +0.000 OA
BRANCH  16  17
ATOM     17  C   UNL     1      -0.748  10.880  18.553  0.00  0.00    +0.000 A 
ATOM     18  C   UNL     1      -1.454  11.843  19.277  0.00  0.00    +0.000 A 
ATOM     19  C   UNL     1      -2.825  12.014  19.071  0.00  0.00    +0.000 A 
ATOM     20  C   UNL     1      -3.486  11.218  18.137  0.00  0.00    +0.000 A 
ATOM     21 BR   UNL     1      -5.344  11.432  17.867  0.00  0.00    +0.000 Br
ATOM     22  C   UNL     1      -2.785  10.273  17.391  0.00  0.00    +0.000 A 
ATOM     23  C   UNL     1      -1.409  10.124  17.579  0.00  0.00    +0.000 A 
ENDBRANCH  16  17
ENDBRANCH   4  16
TORSDOF 4
ENDMDL
MODEL 3
REMARK VINA RESULT:      -7.7      0.412      1.486
REMARK  Name = 
REMARK  4 active torsions:
REMARK  status: ('A' for Active; 'I' for Inactive)
REMARK    1  A    between atoms: S_2  and  C_4
REMARK    2  A    between atoms: S_2  and  N_18
REMARK    3  A    between atoms: C_7  and  O_8
REMARK    4  A    between atoms: O_8  and  C_9
REMARK                            x       y       z     vdW  Elec       q    Type
REMARK                         _______ _______ _______ _____ _____    ______ ____
ROOT
ATOM      1  C   UNL     1       2.301   7.054  19.394  0.00  0.00    +0.000 A 
ATOM      2  C   UNL     1       2.429   7.660  18.142  0.00  0.00    +0.000 A 
ATOM      3  C   UNL     1       1.862   8.919  17.932  0.00  0.00    +0.000 A 
ATOM      4  C   UNL     1       1.174   9.563  18.966  0.00  0.00    +0.000 A 
ATOM      5  C   UNL     1       1.093   8.966  20.229  0.00  0.00    +0.000 A 
ATOM      6  C   UNL     1       1.629   7.696  20.437  0.00  0.00    +0.000 A 
ENDROOT
BRANCH   1   8
ATOM      7  O   UNL     1       4.398   5.535  19.484  0.00  0.00    +0.000 OA
ATOM      8  S   UNL     1       2.970   5.437  19.679  0.00  0.00    +0.000 S 
ATOM      9  O   UNL     1       2.412   4.929  20.913  0.00  0.00    +0.000 OA
BRANCH   8  10
ATOM     10  N   UNL     1       2.324   4.521  18.389  0.00  0.00    +0.000 NA
ATOM     11  C   UNL     1       1.327   3.455  18.735  0.00  0.00    +0.000 C 
ATOM     12  C   UNL     1       2.010   2.170  19.226  0.00  0.00    +0.000 C 
ATOM     13  O   UNL     1       2.998   1.701  18.295  0.00  0.00    +0.000 OA
ATOM     14  C   UNL     1       3.994   2.706  18.050  0.00  0.00    +0.000 C 
ATOM     15  C   UNL     1       3.349   3.959  17.454  0.00  0.00    +0.000 C 
ENDBRANCH   8  10
ENDBRANCH   1   8
BRANCH   4  16
ATOM     16  O   UNL     1       0.666  10.808  18.664  0.00  0.00    +0.000 OA
BRANCH  16  17
ATOM     17  C   UNL     1      -0.692  10.981  18.527  0.00  0.00    +0.000 A 
ATOM     18  C   UNL     1      -1.332  10.125  17.627  0.00  0.00    +0.000 A 
ATOM     19  C   UNL     1      -2.711  10.215  17.429  0.00  0.00    +0.000 A 
ATOM     20  C   UNL     1      -3.449  11.163  18.136  0.00  0.00    +0.000 A 
ATOM     21 BR   UNL     1      -5.314  11.302  17.861  0.00  0.00    +0.000 Br
ATOM     22  C   UNL     1      -2.823  12.003  19.055  0.00  0.00    +0.000 A 
ATOM     23  C   UNL     1      -1.448  11.893  19.271  0.00  0.00    +0.000 A 
ENDBRANCH  16  17
ENDBRANCH   4  16
TORSDOF 4
ENDMDL
MODEL 4
REMARK VINA RESULT:      -7.7      0.423      1.093
REMARK  Name = 
REMARK  4 active torsions:
REMARK  status: ('A' for Active; 'I' for Inactive)
REMARK    1  A    between atoms: S_2  and  C_4
REMARK    2  A    between atoms: S_2  and  N_18
REMARK    3  A    between atoms: C_7  and  O_8
REMARK    4  A    between atoms: O_8  and  C_9
REMARK                            x       y       z     vdW  Elec       q    Type
REMARK                         _______ _______ _______ _____ _____    ______ ____
ROOT
ATOM      1  C   UNL     1       2.253   7.045  19.421  0.00  0.00    +0.000 A 
ATOM      2  C   UNL     1       1.610   7.733  20.453  0.00  0.00    +0.000 A 
ATOM      3  C   UNL     1       1.112   9.015  20.211  0.00  0.00    +0.000 A 
ATOM      4  C   UNL     1       1.257   9.603  18.950  0.00  0.00    +0.000 A 
ATOM      5  C   UNL     1       1.863   8.885  17.912  0.00  0.00    +0.000 A 
ATOM      6  C   UNL     1       2.390   7.617  18.154  0.00  0.00    +0.000 A 
ENDROOT
BRANCH   1   8
ATOM      7  O   UNL     1       4.364   5.547  19.520  0.00  0.00    +0.000 OA
ATOM      8  S   UNL     1       2.936   5.434  19.708  0.00  0.00    +0.000 S 
ATOM      9  O   UNL     1       2.377   4.919  20.938  0.00  0.00    +0.000 OA
BRANCH   8  10
ATOM     10  N   UNL     1       2.305   4.514  18.413  0.00  0.00    +0.000 NA
ATOM     11  C   UNL     1       1.311   3.444  18.751  0.00  0.00    +0.000 C 
ATOM     12  C   UNL     1       1.996   2.162  19.249  0.00  0.00    +0.000 C 
ATOM     13  O   UNL     1       2.994   1.698  18.327  0.00  0.00    +0.000 OA
ATOM     14  C   UNL     1       3.987   2.708  18.089  0.00  0.00    +0.000 C 
ATOM     15  C   UNL     1       3.340   3.957  17.486  0.00  0.00    +0.000 C 
ENDBRANCH   8  10
ENDBRANCH   1   8
BRANCH   4  16
ATOM     16  O   UNL     1       0.718  10.862  18.809  0.00  0.00    +0.000 OA
BRANCH  16  17
ATOM     17  C   UNL     1      -0.638  11.012  18.625  0.00  0.00    +0.000 A 
ATOM     18  C   UNL     1      -1.225  10.171  17.676  0.00  0.00    +0.000 A 
ATOM     19  C   UNL     1      -2.598  10.239  17.430  0.00  0.00    +0.000 A 
ATOM     20  C   UNL     1      -3.382  11.150  18.137  0.00  0.00    +0.000 A 
ATOM     21 BR   UNL     1      -5.237  11.259  17.795  0.00  0.00    +0.000 Br
ATOM     22  C   UNL     1      -2.808  11.974  19.104  0.00  0.00    +0.000 A 
ATOM     23  C   UNL     1      -1.440  11.885  19.368  0.00  0.00    +0.000 A 
ENDBRANCH  16  17
ENDBRANCH   4  16
TORSDOF 4
ENDMDL
MODEL 5
REMARK VINA RESULT:      -7.5      2.046      2.688
REMARK  Name = 
REMARK  4 active torsions:
REMARK  status: ('A' for Active; 'I' for Inactive)
REMARK    1  A    between atoms: S_2  and  C_4
REMARK    2  A    between atoms: S_2  and  N_18
REMARK    3  A    between atoms: C_7  and  O_8
REMARK    4  A    between atoms: O_8  and  C_9
REMARK                            x       y       z     vdW  Elec       q    Type
REMARK                         _______ _______ _______ _____ _____    ______ ____
ROOT
ATOM      1  C   UNL     1       3.010   6.969  18.539  0.00  0.00    +0.000 A 
ATOM      2  C   UNL     1       2.307   7.024  19.745  0.00  0.00    +0.000 A 
ATOM      3  C   UNL     1       1.538   8.153  20.035  0.00  0.00    +0.000 A 
ATOM      4  C   UNL     1       1.474   9.216  19.128  0.00  0.00    +0.000 A 
ATOM      5  C   UNL     1       2.146   9.129  17.903  0.00  0.00    +0.000 A 
ATOM      6  C   UNL     1       2.940   8.018  17.619  0.00  0.00    +0.000 A 
ENDROOT
BRANCH   1   8
ATOM      7  O   UNL     1       4.688   5.187  19.388  0.00  0.00    +0.000 OA
ATOM      8  S   UNL     1       4.031   5.570  18.160  0.00  0.00    +0.000 S 
ATOM      9  O   UNL     1       3.239   4.625  17.405  0.00  0.00    +0.000 OA
BRANCH   8  10
ATOM     10  N   UNL     1       5.210   6.228  17.113  0.00  0.00    +0.000 NA
ATOM     11  C   UNL     1       5.375   5.580  15.771  0.00  0.00    +0.000 C 
ATOM     12  C   UNL     1       6.238   4.312  15.849  0.00  0.00    +0.000 C 
ATOM     13  O   UNL     1       7.502   4.565  16.483  0.00  0.00    +0.000 OA
ATOM     14  C   UNL     1       7.318   5.099  17.803  0.00  0.00    +0.000 C 
ATOM     15  C   UNL     1       6.555   6.423  17.740  0.00  0.00    +0.000 C 
ENDBRANCH   8  10
ENDBRANCH   1   8
BRANCH   4  16
ATOM     16  O   UNL     1       0.676  10.275  19.499  0.00  0.00    +0.000 OA
BRANCH  16  17
ATOM     17  C   UNL     1      -0.530  10.480  18.869  0.00  0.00    +0.000 A 
ATOM     18  C   UNL     1      -1.351  11.467  19.422  0.00  0.00    +0.000 A 
ATOM     19  C   UNL     1      -2.589  11.757  18.844  0.00  0.00    +0.000 A 
ATOM     20  C   UNL     1      -3.002  11.059  17.711  0.00  0.00    +0.000 A 
ATOM     21 BR   UNL     1      -4.683  11.435  16.934  0.00  0.00    +0.000 Br
ATOM     22  C   UNL     1      -2.178  10.092  17.137  0.00  0.00    +0.000 A 
ATOM     23  C   UNL     1      -0.929   9.823  17.700  0.00  0.00    +0.000 A 
ENDBRANCH  16  17
ENDBRANCH   4  16
TORSDOF 4
ENDMDL
MODEL 6
REMARK VINA RESULT:      -7.5      0.902      1.583
REMARK  Name = 
REMARK  4 active torsions:
REMARK  status: ('A' for Active; 'I' for Inactive)
REMARK    1  A    between atoms: S_2  and  C_4
REMARK    2  A    between atoms: S_2  and  N_18
REMARK    3  A    between atoms: C_7  and  O_8
REMARK    4  A    between atoms: O_8  and  C_9
REMARK                            x       y       z     vdW  Elec       q    Type
REMARK                         _______ _______ _______ _____ _____    ______ ____
ROOT
ATOM      1  C   UNL     1       2.640   7.162  18.805  0.00  0.00    +0.000 A 
ATOM      2  C   UNL     1       2.633   8.061  17.736  0.00  0.00    +0.000 A 
ATOM      3  C   UNL     1       1.924   9.258  17.854  0.00  0.00    +0.000 A 
ATOM      4  C   UNL     1       1.227   9.551  19.031  0.00  0.00    +0.000 A 
ATOM      5  C   UNL     1       1.279   8.665  20.113  0.00  0.00    +0.000 A 
ATOM      6  C   UNL     1       1.960   7.454  19.991  0.00  0.00    +0.000 A 
ENDROOT
BRANCH   1   8
ATOM      7  O   UNL     1       3.729   5.388  17.263  0.00  0.00    +0.000 OA
ATOM      8  S   UNL     1       3.493   5.614  18.671  0.00  0.00    +0.000 S 
ATOM      9  O   UNL     1       4.579   5.613  19.625  0.00  0.00    +0.000 OA
BRANCH   8  10
ATOM     10  N   UNL     1       2.324   4.485  19.198  0.00  0.00    +0.000 NA
ATOM     11  C   UNL     1       2.711   3.568  20.320  0.00  0.00    +0.000 C 
ATOM     12  C   UNL     1       3.550   2.380  19.826  0.00  0.00    +0.000 C 
ATOM     13  O   UNL     1       2.900   1.676  18.757  0.00  0.00    +0.000 OA
ATOM     14  C   UNL     1       2.621   2.554  17.655  0.00  0.00    +0.000 C 
ATOM     15  C   UNL     1       1.694   3.687  18.099  0.00  0.00    +0.000 C 
ENDBRANCH   8  10
ENDBRANCH   1   8
BRANCH   4  16
ATOM     16  O   UNL     1       0.573  10.763  19.055  0.00  0.00    +0.000 OA
BRANCH  16  17
ATOM     17  C   UNL     1      -0.754  10.835  18.699  0.00  0.00    +0.000 A 
ATOM     18  C   UNL     1      -1.514  11.805  19.358  0.00  0.00    +0.000 A 
ATOM     19  C   UNL     1      -2.868  11.964  19.054  0.00  0.00    +0.000 A 
ATOM     20  C   UNL     1      -3.459  11.150  18.088  0.00  0.00    +0.000 A 
ATOM     21 BR   UNL     1      -5.294  11.347  17.686  0.00  0.00    +0.000 Br
ATOM     22  C   UNL     1      -2.702  10.197  17.408  0.00  0.00    +0.000 A 
ATOM     23  C   UNL     1      -1.342  10.060  17.694  0.00  0.00    +0.000 A 
ENDBRANCH  16  17
ENDBRANCH   4  16
TORSDOF 4
ENDMDL
MODEL 7
REMARK VINA RESULT:      -7.4      2.046      2.850
REMARK  Name = 
REMARK  4 active torsions:
REMARK  status: ('A' for Active; 'I' for Inactive)
REMARK    1  A    between atoms: S_2  and  C_4
REMARK    2  A    between atoms: S_2  and  N_18
REMARK    3  A    between atoms: C_7  and  O_8
REMARK    4  A    between atoms: O_8  and  C_9
REMARK                            x       y       z     vdW  Elec       q    Type
REMARK                         _______ _______ _______ _____ _____    ______ ____
ROOT
ATOM      1  C   UNL     1       3.055   6.953  18.571  0.00  0.00    +0.000 A 
ATOM      2  C   UNL     1       2.959   8.032  17.689  0.00  0.00    +0.000 A 
ATOM      3  C   UNL     1       2.160   9.125  18.033  0.00  0.00    +0.000 A 
ATOM      4  C   UNL     1       1.465   9.137  19.246  0.00  0.00    +0.000 A 
ATOM      5  C   UNL     1       1.606   8.070  20.142  0.00  0.00    +0.000 A 
ATOM      6  C   UNL     1       2.377   6.962  19.792  0.00  0.00    +0.000 A 
ENDROOT
BRANCH   1   8
ATOM      7  O   UNL     1       4.679   5.093  19.355  0.00  0.00    +0.000 OA
ATOM      8  S   UNL     1       4.023   5.530  18.144  0.00  0.00    +0.000 S 
ATOM      9  O   UNL     1       3.193   4.633  17.373  0.00  0.00    +0.000 OA
BRANCH   8  10
ATOM     10  N   UNL     1       5.215   6.175  17.103  0.00  0.00    +0.000 NA
ATOM     11  C   UNL     1       5.387   5.519  15.766  0.00  0.00    +0.000 C 
ATOM     12  C   UNL     1       6.243   4.247  15.858  0.00  0.00    +0.000 C 
ATOM     13  O   UNL     1       7.502   4.496  16.501  0.00  0.00    +0.000 OA
ATOM     14  C   UNL     1       7.311   5.039  17.817  0.00  0.00    +0.000 C 
ATOM     15  C   UNL     1       6.556   6.367  17.740  0.00  0.00    +0.000 C 
ENDBRANCH   8  10
ENDBRANCH   1   8
BRANCH   4  16
ATOM     16  O   UNL     1       0.719  10.266  19.500  0.00  0.00    +0.000 OA
BRANCH  16  17
ATOM     17  C   UNL     1      -0.481  10.457  18.853  0.00  0.00    +0.000 A 
ATOM     18  C   UNL     1      -1.294  11.475  19.358  0.00  0.00    +0.000 A 
ATOM     19  C   UNL     1      -2.525  11.754  18.760  0.00  0.00    +0.000 A 
ATOM     20  C   UNL     1      -2.939  11.011  17.654  0.00  0.00    +0.000 A 
ATOM     21 BR   UNL     1      -4.611  11.372  16.851  0.00  0.00    +0.000 Br
ATOM     22  C   UNL     1      -2.121  10.012  17.128  0.00  0.00    +0.000 A 
ATOM     23  C   UNL     1      -0.879   9.755  17.711  0.00  0.00    +0.000 A 
ENDBRANCH  16  17
ENDBRANCH   4  16
TORSDOF 4
ENDMDL
MODEL 8
REMARK VINA RESULT:      -7.4      0.919      1.017
REMARK  Name = 
REMARK  4 active torsions:
REMARK  status: ('A' for Active; 'I' for Inactive)
REMARK    1  A    between atoms: S_2  and  C_4
REMARK    2  A    between atoms: S_2  and  N_18
REMARK    3  A    between atoms: C_7  and  O_8
REMARK    4  A    between atoms: O_8  and  C_9
REMARK                            x       y       z     vdW  Elec       q    Type
REMARK                         _______ _______ _______ _____ _____    ______ ____
ROOT
ATOM      1  C   UNL     1       2.562   7.255  18.756  0.00  0.00    +0.000 A 
ATOM      2  C   UNL     1       1.933   7.519  19.974  0.00  0.00    +0.000 A 
ATOM      3  C   UNL     1       1.237   8.719  20.137  0.00  0.00    +0.000 A 
ATOM      4  C   UNL     1       1.172   9.645  19.091  0.00  0.00    +0.000 A 
ATOM      5  C   UNL     1       1.767   9.348  17.859  0.00  0.00    +0.000 A 
ATOM      6  C   UNL     1       2.490   8.166  17.699  0.00  0.00    +0.000 A 
ENDROOT
BRANCH   1   8
ATOM      7  O   UNL     1       4.138   5.862  17.243  0.00  0.00    +0.000 OA
ATOM      8  S   UNL     1       3.491   5.762  18.532  0.00  0.00    +0.000 S 
ATOM      9  O   UNL     1       4.251   5.518  19.737  0.00  0.00    +0.000 OA
BRANCH   8  10
ATOM     10  N   UNL     1       2.276   4.566  18.421  0.00  0.00    +0.000 NA
ATOM     11  C   UNL     1       1.858   3.891  19.693  0.00  0.00    +0.000 C 
ATOM     12  C   UNL     1       2.834   2.776  20.097  0.00  0.00    +0.000 C 
ATOM     13  O   UNL     1       3.040   1.835  19.032  0.00  0.00    +0.000 OA
ATOM     14  C   UNL     1       3.528   2.492  17.852  0.00  0.00    +0.000 C 
ATOM     15  C   UNL     1       2.518   3.532  17.365  0.00  0.00    +0.000 C 
ENDBRANCH   8  10
ENDBRANCH   1   8
BRANCH   4  16
ATOM     16  O   UNL     1       0.448  10.788  19.345  0.00  0.00    +0.000 OA
BRANCH  16  17
ATOM     17  C   UNL     1      -0.851  10.892  18.903  0.00  0.00    +0.000 A 
ATOM     18  C   UNL     1      -1.641  11.852  19.539  0.00  0.00    +0.000 A 
ATOM     19  C   UNL     1      -2.969  12.041  19.150  0.00  0.00    +0.000 A 
ATOM     20  C   UNL     1      -3.504  11.267  18.122  0.00  0.00    +0.000 A 
ATOM     21 BR   UNL     1      -5.305  11.505  17.603  0.00  0.00    +0.000 Br
ATOM     22  C   UNL     1      -2.715  10.325  17.464  0.00  0.00    +0.000 A 
ATOM     23  C   UNL     1      -1.379  10.157  17.836  0.00  0.00    +0.000 A 
ENDBRANCH  16  17
ENDBRANCH   4  16
TORSDOF 4
ENDMDL
MODEL 9
REMARK VINA RESULT:      -7.4      0.932      1.866
REMARK  Name = 
REMARK  4 active torsions:
REMARK  status: ('A' for Active; 'I' for Inactive)
REMARK    1  A    between atoms: S_2  and  C_4
REMARK    2  A    between atoms: S_2  and  N_18
REMARK    3  A    between atoms: C_7  and  O_8
REMARK    4  A    between atoms: O_8  and  C_9
REMARK                            x       y       z     vdW  Elec       q    Type
REMARK                         _______ _______ _______ _____ _____    ______ ____
ROOT
ATOM      1  C   UNL     1       2.557   7.245  18.820  0.00  0.00    +0.000 A 
ATOM      2  C   UNL     1       2.623   8.144  17.753  0.00  0.00    +0.000 A 
ATOM      3  C   UNL     1       1.973   9.375  17.856  0.00  0.00    +0.000 A 
ATOM      4  C   UNL     1       1.263   9.703  19.016  0.00  0.00    +0.000 A 
ATOM      5  C   UNL     1       1.244   8.814  20.097  0.00  0.00    +0.000 A 
ATOM      6  C   UNL     1       1.865   7.570  19.989  0.00  0.00    +0.000 A 
ENDROOT
BRANCH   1   8
ATOM      7  O   UNL     1       3.606   5.426  17.303  0.00  0.00    +0.000 OA
ATOM      8  S   UNL     1       3.334   5.656  18.703  0.00  0.00    +0.000 S 
ATOM      9  O   UNL     1       4.385   5.593  19.694  0.00  0.00    +0.000 OA
BRANCH   8  10
ATOM     10  N   UNL     1       2.091   4.585  19.182  0.00  0.00    +0.000 NA
ATOM     11  C   UNL     1       2.355   3.715  20.374  0.00  0.00    +0.000 C 
ATOM     12  C   UNL     1       3.195   2.482  20.009  0.00  0.00    +0.000 C 
ATOM     13  O   UNL     1       2.614   1.744  18.923  0.00  0.00    +0.000 OA
ATOM     14  C   UNL     1       2.455   2.574  17.761  0.00  0.00    +0.000 C 
ATOM     15  C   UNL     1       1.529   3.752  18.072  0.00  0.00    +0.000 C 
ENDBRANCH   8  10
ENDBRANCH   1   8
BRANCH   4  16
ATOM     16  O   UNL     1       0.672  10.947  19.026  0.00  0.00    +0.000 OA
BRANCH  16  17
ATOM     17  C   UNL     1      -0.677  11.068  18.779  0.00  0.00    +0.000 A 
ATOM     18  C   UNL     1      -1.205  10.201  17.819  0.00  0.00    +0.000 A 
ATOM     19  C   UNL     1      -2.566  10.239  17.510  0.00  0.00    +0.000 A 
ATOM     20  C   UNL     1      -3.397  11.147  18.164  0.00  0.00    +0.000 A 
ATOM     21 BR   UNL     1      -5.237  11.216  17.736  0.00  0.00    +0.000 Br
ATOM     22  C   UNL     1      -2.884  11.998  19.141  0.00  0.00    +0.000 A 
ATOM     23  C   UNL     1      -1.528  11.938  19.469  0.00  0.00    +0.000 A 
ENDBRANCH  16  17
ENDBRANCH   4  16
TORSDOF 4
ENDMDL
