MODEL 1
REMARK VINA RESULT:      -7.6      0.000      0.000
REMARK  Name = 
REMARK  9 active torsions:
REMARK  status: ('A' for Active; 'I' for Inactive)
REMARK    1  A    between atoms: C_1  and  O_2
REMARK    2  A    between atoms: O_2  and  C_3
REMARK    3  A    between atoms: C_3  and  C_4
REMARK    4  A    between atoms: C_4  and  N_5
REMARK    5  A    between atoms: C_7  and  C_8
REMARK    6  A    between atoms: N_10  and  C_11
REMARK    7  A    between atoms: C_21  and  C_22
REMARK    8  A    between atoms: C_26  and  C_27
REMARK    9  A    between atoms: C_29  and  C_30
REMARK                            x       y       z     vdW  Elec       q    Type
REMARK                         _______ _______ _______ _____ _____    ______ ____
ROOT
ATOM      1  N   UNL     1       2.150   4.619  20.702  0.00  0.00    +0.000 N 
ATOM      2  C   UNL     1       1.876   5.931  21.059  0.00  0.00    +0.000 A 
ATOM      3  C   UNL     1       1.916   6.974  20.216  0.00  0.00    +0.000 A 
ATOM      4  C   UNL     1       2.354   6.703  18.814  0.00  0.00    +0.000 A 
ATOM      5  O   UNL     1       2.259   7.581  17.959  0.00  0.00    +0.000 OA
ATOM      6  C   UNL     1       2.889   5.335  18.509  0.00  0.00    +0.000 A 
ATOM      7  C   UNL     1       2.600   4.390  19.416  0.00  0.00    +0.000 A 
ENDROOT
BRANCH   6   8
ATOM      8  C   UNL     1       3.616   5.011  17.248  0.00  0.00    +0.000 C 
ATOM      9  O   UNL     1       3.214   4.095  16.535  0.00  0.00    +0.000 OA
ATOM     10  N   UNL     1       4.709   5.799  16.877  0.00  0.00    +0.000 N 
ATOM     11  C   UNL     1       5.280   5.627  15.542  0.00  0.00    +0.000 C 
ATOM     12  C   UNL     1       6.813   5.486  15.573  0.00  0.00    +0.000 C 
ATOM     13  C   UNL     1       7.255   4.043  15.788  0.00  0.00    +0.000 C 
ATOM     14  O   UNL     1       7.484   6.391  16.468  0.00  0.00    +0.000 OA
ATOM     15  C   UNL     1       6.865   6.628  17.742  0.00  0.00    +0.000 C 
ATOM     16  C   UNL     1       7.201   5.526  18.747  0.00  0.00    +0.000 C 
ATOM     17  C   UNL     1       5.358   6.910  17.586  0.00  0.00    +0.000 C 
ENDBRANCH   6   8
BRANCH   3  18
ATOM     18  C   UNL     1       1.476   8.292  20.744  0.00  0.00    +0.000 C 
ATOM     19  O   UNL     1       1.275   8.467  21.943  0.00  0.00    +0.000 OA
ATOM     20  N   UNL     1       1.280   9.271  19.804  0.00  0.00    +0.000 N 
ATOM     21  H   UNL     1       1.341   9.002  18.820  0.00  0.00    +0.000 HD
BRANCH  20  22
ATOM     22  C   UNL     1       0.669  10.554  20.140  0.00  0.00    +0.000 C 
ATOM     23  C   UNL     1       1.432  11.674  19.424  0.00  0.00    +0.000 C 
ATOM     24  C   UNL     1       0.983  13.096  19.758  0.00  0.00    +0.000 C 
ATOM     25  C   UNL     1      -0.403  13.549  19.290  0.00  0.00    +0.000 C 
ATOM     26  C   UNL     1      -0.834  13.073  17.902  0.00  0.00    +0.000 C 
ATOM     27  C   UNL     1      -1.769  11.859  17.887  0.00  0.00    +0.000 C 
ATOM     28  C   UNL     1      -1.195  10.527  18.368  0.00  0.00    +0.000 C 
ATOM     29  C   UNL     1      -0.839  10.493  19.856  0.00  0.00    +0.000 C 
ENDBRANCH  20  22
ENDBRANCH   3  18
BRANCH   1  30
ATOM     30  C   UNL     1       2.054   3.528  21.690  0.00  0.00    +0.000 C 
BRANCH  30  31
ATOM     31  C   UNL     1       2.602   2.236  21.090  0.00  0.00    +0.000 C 
BRANCH  31  33
ATOM     32  C   UNL     1       4.790   1.761  20.435  0.00  0.00    +0.000 C 
ATOM     33  O   UNL     1       3.934   2.007  21.545  0.00  0.00    +0.000 OA
ENDBRANCH  31  33
ENDBRANCH  30  31
ENDBRANCH   1  30
TORSDOF 6
ENDMDL
MODEL 2
REMARK VINA RESULT:      -7.6      3.092      9.681
REMARK  Name = 
REMARK  9 active torsions:
REMARK  status: ('A' for Active; 'I' for Inactive)
REMARK    1  A    between atoms: C_1  and  O_2
REMARK    2  A    between atoms: O_2  and  C_3
REMARK    3  A    between atoms: C_3  and  C_4
REMARK    4  A    between atoms: C_4  and  N_5
REMARK    5  A    between atoms: C_7  and  C_8
REMARK    6  A    between atoms: N_10  and  C_11
REMARK    7  A    between atoms: C_21  and  C_22
REMARK    8  A    between atoms: C_26  and  C_27
REMARK    9  A    between atoms: C_29  and  C_30
REMARK                            x       y       z     vdW  Elec       q    Type
REMARK                         _______ _______ _______ _____ _____    ______ ____
ROOT
ATOM      1  N   UNL     1      -1.017  10.438  18.132  0.00  0.00    +0.000 N 
ATOM      2  C   UNL     1       0.106   9.675  17.854  0.00  0.00    +0.000 A 
ATOM      3  C   UNL     1       0.975   9.234  18.777  0.00  0.00    +0.000 A 
ATOM      4  C   UNL     1       0.747   9.662  20.190  0.00  0.00    +0.000 A 
ATOM      5  O   UNL     1       1.411   9.166  21.097  0.00  0.00    +0.000 OA
ATOM      6  C   UNL     1      -0.317  10.690  20.437  0.00  0.00    +0.000 A 
ATOM      7  C   UNL     1      -1.190  10.867  19.435  0.00  0.00    +0.000 A 
ENDROOT
BRANCH   6   8
ATOM      8  C   UNL     1      -0.462  11.410  21.736  0.00  0.00    +0.000 C 
ATOM      9  O   UNL     1      -0.121  10.856  22.777  0.00  0.00    +0.000 OA
ATOM     10  N   UNL     1      -0.933  12.726  21.730  0.00  0.00    +0.000 N 
ATOM     11  C   UNL     1      -0.864  13.503  22.966  0.00  0.00    +0.000 C 
ATOM     12  C   UNL     1      -2.195  14.210  23.290  0.00  0.00    +0.000 C 
ATOM     13  C   UNL     1      -3.144  13.316  24.077  0.00  0.00    +0.000 C 
ATOM     14  O   UNL     1      -2.844  14.819  22.159  0.00  0.00    +0.000 OA
ATOM     15  C   UNL     1      -2.823  14.089  20.923  0.00  0.00    +0.000 C 
ATOM     16  C   UNL     1      -3.925  13.031  20.873  0.00  0.00    +0.000 C 
ATOM     17  C   UNL     1      -1.412  13.554  20.614  0.00  0.00    +0.000 C 
ENDBRANCH   6   8
BRANCH   3  18
ATOM     18  C   UNL     1       2.057   8.327  18.313  0.00  0.00    +0.000 C 
ATOM     19  O   UNL     1       2.798   8.637  17.383  0.00  0.00    +0.000 OA
ATOM     20  N   UNL     1       2.141   7.124  18.965  0.00  0.00    +0.000 N 
ATOM     21  H   UNL     1       1.403   6.895  19.634  0.00  0.00    +0.000 HD
BRANCH  20  22
ATOM     22  C   UNL     1       3.021   6.053  18.503  0.00  0.00    +0.000 C 
ATOM     23  C   UNL     1       3.948   5.638  19.650  0.00  0.00    +0.000 C 
ATOM     24  C   UNL     1       5.009   4.597  19.296  0.00  0.00    +0.000 C 
ATOM     25  C   UNL     1       4.549   3.174  18.966  0.00  0.00    +0.000 C 
ATOM     26  C   UNL     1       3.399   2.625  19.811  0.00  0.00    +0.000 C 
ATOM     27  C   UNL     1       2.013   2.695  19.159  0.00  0.00    +0.000 C 
ATOM     28  C   UNL     1       1.421   4.084  18.922  0.00  0.00    +0.000 C 
ATOM     29  C   UNL     1       2.176   4.926  17.892  0.00  0.00    +0.000 C 
ENDBRANCH  20  22
ENDBRANCH   3  18
BRANCH   1  30
ATOM     30  C   UNL     1      -1.937  10.855  17.057  0.00  0.00    +0.000 C 
BRANCH  30  31
ATOM     31  C   UNL     1      -3.302  11.200  17.647  0.00  0.00    +0.000 C 
BRANCH  31  33
ATOM     32  C   UNL     1      -3.741  10.694  15.412  0.00  0.00    +0.000 C 
ATOM     33  O   UNL     1      -4.299  11.179  16.628  0.00  0.00    +0.000 OA
ENDBRANCH  31  33
ENDBRANCH  30  31
ENDBRANCH   1  30
TORSDOF 6
ENDMDL
MODEL 3
REMARK VINA RESULT:      -7.3      3.775     10.214
REMARK  Name = 
REMARK  9 active torsions:
REMARK  status: ('A' for Active; 'I' for Inactive)
REMARK    1  A    between atoms: C_1  and  O_2
REMARK    2  A    between atoms: O_2  and  C_3
REMARK    3  A    between atoms: C_3  and  C_4
REMARK    4  A    between atoms: C_4  and  N_5
REMARK    5  A    between atoms: C_7  and  C_8
REMARK    6  A    between atoms: N_10  and  C_11
REMARK    7  A    between atoms: C_21  and  C_22
REMARK    8  A    between atoms: C_26  and  C_27
REMARK    9  A    between atoms: C_29  and  C_30
REMARK                            x       y       z     vdW  Elec       q    Type
REMARK                         _______ _______ _______ _____ _____    ______ ____
ROOT
ATOM      1  N   UNL     1      -1.177  11.240  19.025  0.00  0.00    +0.000 N 
ATOM      2  C   UNL     1      -0.327  10.268  19.531  0.00  0.00    +0.000 A 
ATOM      3  C   UNL     1       0.070  10.196  20.811  0.00  0.00    +0.000 A 
ATOM      4  C   UNL     1      -0.384  11.283  21.730  0.00  0.00    +0.000 A 
ATOM      5  O   UNL     1      -0.186  11.189  22.939  0.00  0.00    +0.000 OA
ATOM      6  C   UNL     1      -1.086  12.458  21.117  0.00  0.00    +0.000 A 
ATOM      7  C   UNL     1      -1.549  12.266  19.873  0.00  0.00    +0.000 A 
ENDROOT
BRANCH   6   8
ATOM      8  C   UNL     1      -1.339  13.728  21.857  0.00  0.00    +0.000 C 
ATOM      9  O   UNL     1      -0.400  14.475  22.116  0.00  0.00    +0.000 OA
ATOM     10  N   UNL     1      -2.654  14.065  22.191  0.00  0.00    +0.000 N 
ATOM     11  C   UNL     1      -2.926  15.404  22.712  0.00  0.00    +0.000 C 
ATOM     12  C   UNL     1      -3.793  15.372  23.985  0.00  0.00    +0.000 C 
ATOM     13  C   UNL     1      -2.956  15.210  25.248  0.00  0.00    +0.000 C 
ATOM     14  O   UNL     1      -4.890  14.442  23.945  0.00  0.00    +0.000 OA
ATOM     15  C   UNL     1      -4.638  13.162  23.343  0.00  0.00    +0.000 C 
ATOM     16  C   UNL     1      -3.972  12.198  24.325  0.00  0.00    +0.000 C 
ATOM     17  C   UNL     1      -3.901  13.313  21.999  0.00  0.00    +0.000 C 
ENDBRANCH   6   8
BRANCH   3  18
ATOM     18  C   UNL     1       0.886   9.018  21.204  0.00  0.00    +0.000 C 
ATOM     19  O   UNL     1       1.303   8.882  22.352  0.00  0.00    +0.000 OA
ATOM     20  N   UNL     1       1.166   8.129  20.199  0.00  0.00    +0.000 N 
ATOM     21  H   UNL     1       0.892   8.387  19.248  0.00  0.00    +0.000 HD
BRANCH  20  22
ATOM     22  C   UNL     1       2.109   7.028  20.379  0.00  0.00    +0.000 C 
ATOM     23  C   UNL     1       1.342   5.780  20.831  0.00  0.00    +0.000 C 
ATOM     24  C   UNL     1       2.203   4.565  21.169  0.00  0.00    +0.000 C 
ATOM     25  C   UNL     1       2.951   3.864  20.030  0.00  0.00    +0.000 C 
ATOM     26  C   UNL     1       2.198   3.742  18.705  0.00  0.00    +0.000 C 
ATOM     27  C   UNL     1       2.565   4.785  17.643  0.00  0.00    +0.000 C 
ATOM     28  C   UNL     1       2.193   6.239  17.933  0.00  0.00    +0.000 C 
ATOM     29  C   UNL     1       2.951   6.864  19.105  0.00  0.00    +0.000 C 
ENDBRANCH  20  22
ENDBRANCH   3  18
BRANCH   1  30
ATOM     30  C   UNL     1      -1.586  11.227  17.608  0.00  0.00    +0.000 C 
BRANCH  30  31
ATOM     31  C   UNL     1      -2.084   9.835  17.224  0.00  0.00    +0.000 C 
BRANCH  31  33
ATOM     32  C   UNL     1      -3.023  10.009  15.095  0.00  0.00    +0.000 C 
ATOM     33  O   UNL     1      -3.301   9.933  16.489  0.00  0.00    +0.000 OA
ENDBRANCH  31  33
ENDBRANCH  30  31
ENDBRANCH   1  30
TORSDOF 6
ENDMDL
MODEL 4
REMARK VINA RESULT:      -7.2      2.876      9.326
REMARK  Name = 
REMARK  9 active torsions:
REMARK  status: ('A' for Active; 'I' for Inactive)
REMARK    1  A    between atoms: C_1  and  O_2
REMARK    2  A    between atoms: O_2  and  C_3
REMARK    3  A    between atoms: C_3  and  C_4
REMARK    4  A    between atoms: C_4  and  N_5
REMARK    5  A    between atoms: C_7  and  C_8
REMARK    6  A    between atoms: N_10  and  C_11
REMARK    7  A    between atoms: C_21  and  C_22
REMARK    8  A    between atoms: C_26  and  C_27
REMARK    9  A    between atoms: C_29  and  C_30
REMARK                            x       y       z     vdW  Elec       q    Type
REMARK                         _______ _______ _______ _____ _____    ______ ____
ROOT
ATOM      1  N   UNL     1      -1.259  10.066  17.666  0.00  0.00    +0.000 N 
ATOM      2  C   UNL     1      -0.085   9.351  17.482  0.00  0.00    +0.000 A 
ATOM      3  C   UNL     1       0.863   9.190  18.418  0.00  0.00    +0.000 A 
ATOM      4  C   UNL     1       0.664   9.893  19.721  0.00  0.00    +0.000 A 
ATOM      5  O   UNL     1       1.413   9.658  20.667  0.00  0.00    +0.000 OA
ATOM      6  C   UNL     1      -0.476  10.863  19.816  0.00  0.00    +0.000 A 
ATOM      7  C   UNL     1      -1.408  10.750  18.858  0.00  0.00    +0.000 A 
ENDROOT
BRANCH   6   8
ATOM      8  C   UNL     1      -0.624  11.832  20.940  0.00  0.00    +0.000 C 
ATOM      9  O   UNL     1      -1.432  11.602  21.835  0.00  0.00    +0.000 OA
ATOM     10  N   UNL     1       0.205  12.957  20.976  0.00  0.00    +0.000 N 
ATOM     11  C   UNL     1       0.217  13.783  22.182  0.00  0.00    +0.000 C 
ATOM     12  C   UNL     1       0.069  15.284  21.866  0.00  0.00    +0.000 C 
ATOM     13  C   UNL     1      -1.390  15.711  21.766  0.00  0.00    +0.000 C 
ATOM     14  O   UNL     1       0.842  15.742  20.741  0.00  0.00    +0.000 OA
ATOM     15  C   UNL     1       0.901  14.878  19.595  0.00  0.00    +0.000 C 
ATOM     16  C   UNL     1      -0.329  15.037  18.703  0.00  0.00    +0.000 C 
ATOM     17  C   UNL     1       1.206  13.425  20.007  0.00  0.00    +0.000 C 
ENDBRANCH   6   8
BRANCH   3  18
ATOM     18  C   UNL     1       2.000   8.292  18.086  0.00  0.00    +0.000 C 
ATOM     19  O   UNL     1       2.847   8.611  17.255  0.00  0.00    +0.000 OA
ATOM     20  N   UNL     1       2.012   7.086  18.738  0.00  0.00    +0.000 N 
ATOM     21  H   UNL     1       1.199   6.849  19.311  0.00  0.00    +0.000 HD
BRANCH  20  22
ATOM     22  C   UNL     1       2.949   6.024  18.382  0.00  0.00    +0.000 C 
ATOM     23  C   UNL     1       3.863   5.741  19.580  0.00  0.00    +0.000 C 
ATOM     24  C   UNL     1       4.977   4.725  19.334  0.00  0.00    +0.000 C 
ATOM     25  C   UNL     1       4.588   3.261  19.106  0.00  0.00    +0.000 C 
ATOM     26  C   UNL     1       3.440   2.728  19.965  0.00  0.00    +0.000 C 
ATOM     27  C   UNL     1       2.071   2.684  19.278  0.00  0.00    +0.000 C 
ATOM     28  C   UNL     1       1.426   4.023  18.919  0.00  0.00    +0.000 C 
ATOM     29  C   UNL     1       2.171   4.815  17.843  0.00  0.00    +0.000 C 
ENDBRANCH  20  22
ENDBRANCH   3  18
BRANCH   1  30
ATOM     30  C   UNL     1      -2.262  10.168  16.590  0.00  0.00    +0.000 C 
BRANCH  30  31
ATOM     31  C   UNL     1      -3.195  11.346  16.860  0.00  0.00    +0.000 C 
BRANCH  31  33
ATOM     32  C   UNL     1      -5.431  11.960  17.120  0.00  0.00    +0.000 C 
ATOM     33  O   UNL     1      -4.507  10.878  17.161  0.00  0.00    +0.000 OA
ENDBRANCH  31  33
ENDBRANCH  30  31
ENDBRANCH   1  30
TORSDOF 6
ENDMDL
MODEL 5
REMARK VINA RESULT:      -7.2      3.170      8.758
REMARK  Name = 
REMARK  9 active torsions:
REMARK  status: ('A' for Active; 'I' for Inactive)
REMARK    1  A    between atoms: C_1  and  O_2
REMARK    2  A    between atoms: O_2  and  C_3
REMARK    3  A    between atoms: C_3  and  C_4
REMARK    4  A    between atoms: C_4  and  N_5
REMARK    5  A    between atoms: C_7  and  C_8
REMARK    6  A    between atoms: N_10  and  C_11
REMARK    7  A    between atoms: C_21  and  C_22
REMARK    8  A    between atoms: C_26  and  C_27
REMARK    9  A    between atoms: C_29  and  C_30
REMARK                            x       y       z     vdW  Elec       q    Type
REMARK                         _______ _______ _______ _____ _____    ______ ____
ROOT
ATOM      1  N   UNL     1       0.138  10.239  21.117  0.00  0.00    +0.000 N 
ATOM      2  C   UNL     1       0.734   9.287  20.302  0.00  0.00    +0.000 A 
ATOM      3  C   UNL     1       1.449   9.567  19.202  0.00  0.00    +0.000 A 
ATOM      4  C   UNL     1       1.546  11.002  18.796  0.00  0.00    +0.000 A 
ATOM      5  O   UNL     1       2.312  11.335  17.895  0.00  0.00    +0.000 OA
ATOM      6  C   UNL     1       0.691  11.988  19.535  0.00  0.00    +0.000 A 
ATOM      7  C   UNL     1       0.194  11.556  20.703  0.00  0.00    +0.000 A 
ENDROOT
BRANCH   6   8
ATOM      8  C   UNL     1       0.471  13.385  19.061  0.00  0.00    +0.000 C 
ATOM      9  O   UNL     1      -0.283  13.592  18.114  0.00  0.00    +0.000 OA
ATOM     10  N   UNL     1       1.089  14.436  19.745  0.00  0.00    +0.000 N 
ATOM     11  C   UNL     1       0.700  15.808  19.426  0.00  0.00    +0.000 C 
ATOM     12  C   UNL     1       1.918  16.723  19.193  0.00  0.00    +0.000 C 
ATOM     13  C   UNL     1       2.403  16.680  17.750  0.00  0.00    +0.000 C 
ATOM     14  O   UNL     1       2.996  16.541  20.129  0.00  0.00    +0.000 OA
ATOM     15  C   UNL     1       3.308  15.192  20.511  0.00  0.00    +0.000 C 
ATOM     16  C   UNL     1       4.204  14.506  19.480  0.00  0.00    +0.000 C 
ATOM     17  C   UNL     1       2.033  14.406  20.871  0.00  0.00    +0.000 C 
ENDBRANCH   6   8
BRANCH   3  18
ATOM     18  C   UNL     1       2.116   8.429  18.517  0.00  0.00    +0.000 C 
ATOM     19  O   UNL     1       2.385   8.471  17.319  0.00  0.00    +0.000 OA
ATOM     20  N   UNL     1       2.369   7.333  19.300  0.00  0.00    +0.000 N 
ATOM     21  H   UNL     1       1.992   7.331  20.251  0.00  0.00    +0.000 HD
BRANCH  20  22
ATOM     22  C   UNL     1       2.841   6.071  18.735  0.00  0.00    +0.000 C 
ATOM     23  C   UNL     1       4.105   5.630  19.482  0.00  0.00    +0.000 C 
ATOM     24  C   UNL     1       4.789   4.377  18.938  0.00  0.00    +0.000 C 
ATOM     25  C   UNL     1       4.066   3.034  19.083  0.00  0.00    +0.000 C 
ATOM     26  C   UNL     1       3.316   2.811  20.396  0.00  0.00    +0.000 C 
ATOM     27  C   UNL     1       1.804   3.058  20.339  0.00  0.00    +0.000 C 
ATOM     28  C   UNL     1       1.339   4.494  20.103  0.00  0.00    +0.000 C 
ATOM     29  C   UNL     1       1.690   5.054  18.723  0.00  0.00    +0.000 C 
ENDBRANCH  20  22
ENDBRANCH   3  18
BRANCH   1  30
ATOM     30  C   UNL     1      -0.608   9.843  22.326  0.00  0.00    +0.000 C 
BRANCH  30  31
ATOM     31  C   UNL     1      -1.012  11.085  23.116  0.00  0.00    +0.000 C 
BRANCH  31  33
ATOM     32  C   UNL     1      -2.951  12.364  23.340  0.00  0.00    +0.000 C 
ATOM     33  O   UNL     1      -2.407  11.050  23.411  0.00  0.00    +0.000 OA
ENDBRANCH  31  33
ENDBRANCH  30  31
ENDBRANCH   1  30
TORSDOF 6
ENDMDL
MODEL 6
REMARK VINA RESULT:      -7.1      3.500      9.704
REMARK  Name = 
REMARK  9 active torsions:
REMARK  status: ('A' for Active; 'I' for Inactive)
REMARK    1  A    between atoms: C_1  and  O_2
REMARK    2  A    between atoms: O_2  and  C_3
REMARK    3  A    between atoms: C_3  and  C_4
REMARK    4  A    between atoms: C_4  and  N_5
REMARK    5  A    between atoms: C_7  and  C_8
REMARK    6  A    between atoms: N_10  and  C_11
REMARK    7  A    between atoms: C_21  and  C_22
REMARK    8  A    between atoms: C_26  and  C_27
REMARK    9  A    between atoms: C_29  and  C_30
REMARK                            x       y       z     vdW  Elec       q    Type
REMARK                         _______ _______ _______ _____ _____    ______ ____
ROOT
ATOM      1  N   UNL     1      -1.067  10.942  19.351  0.00  0.00    +0.000 N 
ATOM      2  C   UNL     1      -0.142  10.001  19.778  0.00  0.00    +0.000 A 
ATOM      3  C   UNL     1       0.217   9.813  21.058  0.00  0.00    +0.000 A 
ATOM      4  C   UNL     1      -0.375  10.732  22.076  0.00  0.00    +0.000 A 
ATOM      5  O   UNL     1      -0.210  10.511  23.274  0.00  0.00    +0.000 OA
ATOM      6  C   UNL     1      -1.171  11.900  21.573  0.00  0.00    +0.000 A 
ATOM      7  C   UNL     1      -1.569  11.816  20.296  0.00  0.00    +0.000 A 
ENDROOT
BRANCH   6   8
ATOM      8  C   UNL     1      -1.575  13.041  22.445  0.00  0.00    +0.000 C 
ATOM      9  O   UNL     1      -2.646  12.996  23.043  0.00  0.00    +0.000 OA
ATOM     10  N   UNL     1      -0.694  14.114  22.604  0.00  0.00    +0.000 N 
ATOM     11  C   UNL     1      -0.988  15.119  23.625  0.00  0.00    +0.000 C 
ATOM     12  C   UNL     1      -0.877  16.557  23.081  0.00  0.00    +0.000 C 
ATOM     13  C   UNL     1      -2.177  17.034  22.447  0.00  0.00    +0.000 C 
ATOM     14  O   UNL     1       0.257  16.792  22.226  0.00  0.00    +0.000 OA
ATOM     15  C   UNL     1       0.595  15.756  21.291  0.00  0.00    +0.000 C 
ATOM     16  C   UNL     1      -0.262  15.833  20.028  0.00  0.00    +0.000 C 
ATOM     17  C   UNL     1       0.606  14.373  21.970  0.00  0.00    +0.000 C 
ENDBRANCH   6   8
BRANCH   3  18
ATOM     18  C   UNL     1       1.134   8.679  21.347  0.00  0.00    +0.000 C 
ATOM     19  O   UNL     1       1.833   8.663  22.357  0.00  0.00    +0.000 OA
ATOM     20  N   UNL     1       1.167   7.689  20.400  0.00  0.00    +0.000 N 
ATOM     21  H   UNL     1       0.655   7.847  19.530  0.00  0.00    +0.000 HD
BRANCH  20  22
ATOM     22  C   UNL     1       2.151   6.610  20.444  0.00  0.00    +0.000 C 
ATOM     23  C   UNL     1       1.456   5.316  20.885  0.00  0.00    +0.000 C 
ATOM     24  C   UNL     1       2.372   4.111  21.086  0.00  0.00    +0.000 C 
ATOM     25  C   UNL     1       3.045   3.496  19.855  0.00  0.00    +0.000 C 
ATOM     26  C   UNL     1       2.192   3.422  18.588  0.00  0.00    +0.000 C 
ATOM     27  C   UNL     1       2.445   4.530  17.560  0.00  0.00    +0.000 C 
ATOM     28  C   UNL     1       2.059   5.955  17.959  0.00  0.00    +0.000 C 
ATOM     29  C   UNL     1       2.893   6.539  19.101  0.00  0.00    +0.000 C 
ENDBRANCH  20  22
ENDBRANCH   3  18
BRANCH   1  30
ATOM     30  C   UNL     1      -1.424  11.061  17.925  0.00  0.00    +0.000 C 
BRANCH  30  31
ATOM     31  C   UNL     1      -2.525  10.062  17.580  0.00  0.00    +0.000 C 
BRANCH  31  33
ATOM     32  C   UNL     1      -2.961  10.801  15.410  0.00  0.00    +0.000 C 
ATOM     33  O   UNL     1      -2.468   9.722  16.197  0.00  0.00    +0.000 OA
ENDBRANCH  31  33
ENDBRANCH  30  31
ENDBRANCH   1  30
TORSDOF 6
ENDMDL
MODEL 7
REMARK VINA RESULT:      -7.1      3.335      8.722
REMARK  Name = 
REMARK  9 active torsions:
REMARK  status: ('A' for Active; 'I' for Inactive)
REMARK    1  A    between atoms: C_1  and  O_2
REMARK    2  A    between atoms: O_2  and  C_3
REMARK    3  A    between atoms: C_3  and  C_4
REMARK    4  A    between atoms: C_4  and  N_5
REMARK    5  A    between atoms: C_7  and  C_8
REMARK    6  A    between atoms: N_10  and  C_11
REMARK    7  A    between atoms: C_21  and  C_22
REMARK    8  A    between atoms: C_26  and  C_27
REMARK    9  A    between atoms: C_29  and  C_30
REMARK                            x       y       z     vdW  Elec       q    Type
REMARK                         _______ _______ _______ _____ _____    ______ ____
ROOT
ATOM      1  N   UNL     1       0.448  10.588  21.063  0.00  0.00    +0.000 N 
ATOM      2  C   UNL     1       0.884   9.648  20.142  0.00  0.00    +0.000 A 
ATOM      3  C   UNL     1       1.532   9.940  19.005  0.00  0.00    +0.000 A 
ATOM      4  C   UNL     1       1.730  11.385  18.682  0.00  0.00    +0.000 A 
ATOM      5  O   UNL     1       2.450  11.713  17.742  0.00  0.00    +0.000 OA
ATOM      6  C   UNL     1       1.033  12.389  19.553  0.00  0.00    +0.000 A 
ATOM      7  C   UNL     1       0.594  11.921  20.730  0.00  0.00    +0.000 A 
ENDROOT
BRANCH   6   8
ATOM      8  C   UNL     1       0.908  13.830  19.189  0.00  0.00    +0.000 C 
ATOM      9  O   UNL     1      -0.086  14.217  18.580  0.00  0.00    +0.000 OA
ATOM     10  N   UNL     1       1.905  14.719  19.600  0.00  0.00    +0.000 N 
ATOM     11  C   UNL     1       1.676  16.155  19.441  0.00  0.00    +0.000 C 
ATOM     12  C   UNL     1       2.870  16.869  18.781  0.00  0.00    +0.000 C 
ATOM     13  C   UNL     1       2.791  16.837  17.259  0.00  0.00    +0.000 C 
ATOM     14  O   UNL     1       4.162  16.454  19.261  0.00  0.00    +0.000 OA
ATOM     15  C   UNL     1       4.347  15.051  19.505  0.00  0.00    +0.000 C 
ATOM     16  C   UNL     1       4.678  14.293  18.221  0.00  0.00    +0.000 C 
ATOM     17  C   UNL     1       3.169  14.464  20.306  0.00  0.00    +0.000 C 
ENDBRANCH   6   8
BRANCH   3  18
ATOM     18  C   UNL     1       2.032   8.799  18.194  0.00  0.00    +0.000 C 
ATOM     19  O   UNL     1       2.184   8.894  16.979  0.00  0.00    +0.000 OA
ATOM     20  N   UNL     1       2.271   7.640  18.887  0.00  0.00    +0.000 N 
ATOM     21  H   UNL     1       1.991   7.609  19.870  0.00  0.00    +0.000 HD
BRANCH  20  22
ATOM     22  C   UNL     1       2.579   6.383  18.210  0.00  0.00    +0.000 C 
ATOM     23  C   UNL     1       4.101   6.217  18.132  0.00  0.00    +0.000 C 
ATOM     24  C   UNL     1       4.592   4.999  17.352  0.00  0.00    +0.000 C 
ATOM     25  C   UNL     1       4.329   3.607  17.937  0.00  0.00    +0.000 C 
ATOM     26  C   UNL     1       4.478   3.475  19.453  0.00  0.00    +0.000 C 
ATOM     27  C   UNL     1       3.168   3.515  20.247  0.00  0.00    +0.000 C 
ATOM     28  C   UNL     1       2.394   4.833  20.253  0.00  0.00    +0.000 C 
ATOM     29  C   UNL     1       1.821   5.235  18.892  0.00  0.00    +0.000 C 
ENDBRANCH  20  22
ENDBRANCH   3  18
BRANCH   1  30
ATOM     30  C   UNL     1      -0.233  10.175  22.305  0.00  0.00    +0.000 C 
BRANCH  30  31
ATOM     31  C   UNL     1      -1.306  11.196  22.673  0.00  0.00    +0.000 C 
BRANCH  31  33
ATOM     32  C   UNL     1      -1.593  13.416  23.331  0.00  0.00    +0.000 C 
ATOM     33  O   UNL     1      -0.725  12.289  23.381  0.00  0.00    +0.000 OA
ENDBRANCH  31  33
ENDBRANCH  30  31
ENDBRANCH   1  30
TORSDOF 6
ENDMDL
MODEL 8
REMARK VINA RESULT:      -7.0      1.825      2.650
REMARK  Name = 
REMARK  9 active torsions:
REMARK  status: ('A' for Active; 'I' for Inactive)
REMARK    1  A    between atoms: C_1  and  O_2
REMARK    2  A    between atoms: O_2  and  C_3
REMARK    3  A    between atoms: C_3  and  C_4
REMARK    4  A    between atoms: C_4  and  N_5
REMARK    5  A    between atoms: C_7  and  C_8
REMARK    6  A    between atoms: N_10  and  C_11
REMARK    7  A    between atoms: C_21  and  C_22
REMARK    8  A    between atoms: C_26  and  C_27
REMARK    9  A    between atoms: C_29  and  C_30
REMARK                            x       y       z     vdW  Elec       q    Type
REMARK                         _______ _______ _______ _____ _____    ______ ____
ROOT
ATOM      1  N   UNL     1       1.902   6.471  20.108  0.00  0.00    +0.000 N 
ATOM      2  C   UNL     1       1.363   7.724  20.356  0.00  0.00    +0.000 A 
ATOM      3  C   UNL     1       1.460   8.773  19.525  0.00  0.00    +0.000 A 
ATOM      4  C   UNL     1       2.267   8.588  18.282  0.00  0.00    +0.000 A 
ATOM      5  O   UNL     1       2.262   9.454  17.410  0.00  0.00    +0.000 OA
ATOM      6  C   UNL     1       3.052   7.316  18.151  0.00  0.00    +0.000 A 
ATOM      7  C   UNL     1       2.686   6.327  18.979  0.00  0.00    +0.000 A 
ENDROOT
BRANCH   6   8
ATOM      8  C   UNL     1       4.108   7.118  17.116  0.00  0.00    +0.000 C 
ATOM      9  O   UNL     1       3.945   7.577  15.989  0.00  0.00    +0.000 OA
ATOM     10  N   UNL     1       5.289   6.461  17.473  0.00  0.00    +0.000 N 
ATOM     11  C   UNL     1       6.408   6.464  16.533  0.00  0.00    +0.000 C 
ATOM     12  C   UNL     1       7.005   5.059  16.326  0.00  0.00    +0.000 C 
ATOM     13  C   UNL     1       6.280   4.280  15.235  0.00  0.00    +0.000 C 
ATOM     14  O   UNL     1       7.154   4.284  17.530  0.00  0.00    +0.000 OA
ATOM     15  C   UNL     1       6.090   4.363  18.492  0.00  0.00    +0.000 C 
ATOM     16  C   UNL     1       4.937   3.426  18.137  0.00  0.00    +0.000 C 
ATOM     17  C   UNL     1       5.671   5.824  18.742  0.00  0.00    +0.000 C 
ENDBRANCH   6   8
BRANCH   3  18
ATOM     18  C   UNL     1       0.718  10.006  19.897  0.00  0.00    +0.000 C 
ATOM     19  O   UNL     1      -0.395   9.952  20.415  0.00  0.00    +0.000 OA
ATOM     20  N   UNL     1       1.341  11.187  19.590  0.00  0.00    +0.000 N 
ATOM     21  H   UNL     1       2.203  11.141  19.040  0.00  0.00    +0.000 HD
BRANCH  20  22
ATOM     22  C   UNL     1       0.664  12.476  19.716  0.00  0.00    +0.000 C 
ATOM     23  C   UNL     1       1.128  13.160  21.007  0.00  0.00    +0.000 C 
ATOM     24  C   UNL     1       0.428  14.476  21.343  0.00  0.00    +0.000 C 
ATOM     25  C   UNL     1       0.686  15.687  20.441  0.00  0.00    +0.000 C 
ATOM     26  C   UNL     1       2.119  15.858  19.937  0.00  0.00    +0.000 C 
ATOM     27  C   UNL     1       2.376  15.363  18.509  0.00  0.00    +0.000 C 
ATOM     28  C   UNL     1       2.272  13.858  18.262  0.00  0.00    +0.000 C 
ATOM     29  C   UNL     1       0.863  13.286  18.427  0.00  0.00    +0.000 C 
ENDBRANCH  20  22
ENDBRANCH   3  18
BRANCH   1  30
ATOM     30  C   UNL     1       1.722   5.364  21.066  0.00  0.00    +0.000 C 
BRANCH  30  31
ATOM     31  C   UNL     1       1.134   4.149  20.351  0.00  0.00    +0.000 C 
BRANCH  31  33
ATOM     32  C   UNL     1       2.453   2.655  21.564  0.00  0.00    +0.000 C 
ATOM     33  O   UNL     1       1.121   3.022  21.224  0.00  0.00    +0.000 OA
ENDBRANCH  31  33
ENDBRANCH  30  31
ENDBRANCH   1  30
TORSDOF 6
ENDMDL
MODEL 9
REMARK VINA RESULT:      -7.0      2.902      9.177
REMARK  Name = 
REMARK  9 active torsions:
REMARK  status: ('A' for Active; 'I' for Inactive)
REMARK    1  A    between atoms: C_1  and  O_2
REMARK    2  A    between atoms: O_2  and  C_3
REMARK    3  A    between atoms: C_3  and  C_4
REMARK    4  A    between atoms: C_4  and  N_5
REMARK    5  A    between atoms: C_7  and  C_8
REMARK    6  A    between atoms: N_10  and  C_11
REMARK    7  A    between atoms: C_21  and  C_22
REMARK    8  A    between atoms: C_26  and  C_27
REMARK    9  A    between atoms: C_29  and  C_30
REMARK                            x       y       z     vdW  Elec       q    Type
REMARK                         _______ _______ _______ _____ _____    ______ ____
ROOT
ATOM      1  N   UNL     1      -0.951  10.690  18.009  0.00  0.00    +0.000 N 
ATOM      2  C   UNL     1       0.042   9.752  17.768  0.00  0.00    +0.000 A 
ATOM      3  C   UNL     1       1.022   9.442  18.630  0.00  0.00    +0.000 A 
ATOM      4  C   UNL     1       1.081  10.218  19.906  0.00  0.00    +0.000 A 
ATOM      5  O   UNL     1       1.853   9.876  20.798  0.00  0.00    +0.000 OA
ATOM      6  C   UNL     1       0.162  11.395  20.041  0.00  0.00    +0.000 A 
ATOM      7  C   UNL     1      -0.857  11.433  19.170  0.00  0.00    +0.000 A 
ENDROOT
BRANCH   6   8
ATOM      8  C   UNL     1       0.305  12.415  21.120  0.00  0.00    +0.000 C 
ATOM      9  O   UNL     1      -0.172  12.194  22.230  0.00  0.00    +0.000 OA
ATOM     10  N   UNL     1       1.032  13.580  20.856  0.00  0.00    +0.000 N 
ATOM     11  C   UNL     1       1.362  14.470  21.968  0.00  0.00    +0.000 C 
ATOM     12  C   UNL     1       1.029  15.942  21.660  0.00  0.00    +0.000 C 
ATOM     13  C   UNL     1      -0.414  16.290  22.003  0.00  0.00    +0.000 C 
ATOM     14  O   UNL     1       1.387  16.377  20.335  0.00  0.00    +0.000 OA
ATOM     15  C   UNL     1       1.146  15.456  19.260  0.00  0.00    +0.000 C 
ATOM     16  C   UNL     1      -0.307  15.506  18.788  0.00  0.00    +0.000 C 
ATOM     17  C   UNL     1       1.655  14.044  19.609  0.00  0.00    +0.000 C 
ENDBRANCH   6   8
BRANCH   3  18
ATOM     18  C   UNL     1       1.931   8.327  18.255  0.00  0.00    +0.000 C 
ATOM     19  O   UNL     1       2.668   8.404  17.275  0.00  0.00    +0.000 OA
ATOM     20  N   UNL     1       1.857   7.211  19.047  0.00  0.00    +0.000 N 
ATOM     21  H   UNL     1       1.123   7.182  19.758  0.00  0.00    +0.000 HD
BRANCH  20  22
ATOM     22  C   UNL     1       2.541   5.968  18.699  0.00  0.00    +0.000 C 
ATOM     23  C   UNL     1       3.722   5.762  19.654  0.00  0.00    +0.000 C 
ATOM     24  C   UNL     1       4.610   4.556  19.353  0.00  0.00    +0.000 C 
ATOM     25  C   UNL     1       4.023   3.155  19.552  0.00  0.00    +0.000 C 
ATOM     26  C   UNL     1       3.117   2.970  20.770  0.00  0.00    +0.000 C 
ATOM     27  C   UNL     1       1.612   3.022  20.483  0.00  0.00    +0.000 C 
ATOM     28  C   UNL     1       1.034   4.360  20.024  0.00  0.00    +0.000 C 
ATOM     29  C   UNL     1       1.521   4.821  18.649  0.00  0.00    +0.000 C 
ENDBRANCH  20  22
ENDBRANCH   3  18
BRANCH   1  30
ATOM     30  C   UNL     1      -2.010  10.947  17.014  0.00  0.00    +0.000 C 
BRANCH  30  31
ATOM     31  C   UNL     1      -3.008   9.792  17.009  0.00  0.00    +0.000 C 
BRANCH  31  33
ATOM     32  C   UNL     1      -3.186  10.488  14.789  0.00  0.00    +0.000 C 
ATOM     33  O   UNL     1      -3.273   9.375  15.672  0.00  0.00    +0.000 OA
ENDBRANCH  31  33
ENDBRANCH  30  31
ENDBRANCH   1  30
TORSDOF 6
ENDMDL
