MODEL 1
REMARK VINA RESULT:      -8.0      0.000      0.000
REMARK  Name = 
REMARK  9 active torsions:
REMARK  status: ('A' for Active; 'I' for Inactive)
REMARK    1  A    between atoms: C_1  and  C_2
REMARK    2  A    between atoms: C_2  and  C_3
REMARK    3  A    between atoms: C_2  and  C_4
REMARK    4  A    between atoms: C_4  and  N_5
REMARK    5  A    between atoms: C_8  and  N_9
REMARK    6  A    between atoms: C_10  and  C_12
REMARK    7  A    between atoms: N_20  and  C_21
REMARK    8  A    between atoms: C_21  and  C_22
REMARK    9  A    between atoms: C_24  and  C_25
REMARK                            x       y       z     vdW  Elec       q    Type
REMARK                         _______ _______ _______ _____ _____    ______ ____
ROOT
ATOM      1  C   UNL     1       2.618   6.335  18.333  0.00  0.00    +0.000 A 
ATOM      2  C   UNL     1       1.638   5.374  18.144  0.00  0.00    +0.000 A 
ATOM      3  C   UNL     1       2.178   4.104  18.445  0.00  0.00    +0.000 A 
ATOM      4  C   UNL     1       1.633   2.808  18.469  0.00  0.00    +0.000 A 
ATOM      5  C   UNL     1       2.430   1.735  18.875  0.00  0.00    +0.000 A 
ATOM      6  C   UNL     1       3.752   1.946  19.247  0.00  0.00    +0.000 A 
ATOM      7  C   UNL     1       4.326   3.226  19.201  0.00  0.00    +0.000 A 
ATOM      8  C   UNL     1       3.515   4.301  18.791  0.00  0.00    +0.000 A 
ATOM      9  N   UNL     1       3.789   5.651  18.626  0.00  0.00    +0.000 N 
ENDROOT
BRANCH   1  11
ATOM     10  N   UNL     1       1.774   8.318  19.287  0.00  0.00    +0.000 N 
ATOM     11  C   UNL     1       2.469   7.772  18.232  0.00  0.00    +0.000 C 
ATOM     12  O   UNL     1       2.953   8.450  17.331  0.00  0.00    +0.000 OA
ATOM     13  H   UNL     1       1.623   7.718  20.088  0.00  0.00    +0.000 HD
BRANCH  10  17
ATOM     14  N   UNL     1      -1.175  10.471  18.827  0.00  0.00    +0.000 NA
ATOM     15  C   UNL     1      -0.845   9.772  20.078  0.00  0.00    +0.000 C 
ATOM     16  C   UNL     1       0.577  10.078  20.544  0.00  0.00    +0.000 C 
ATOM     17  C   UNL     1       1.609   9.756  19.466  0.00  0.00    +0.000 C 
ATOM     18  C   UNL     1       1.216  10.428  18.152  0.00  0.00    +0.000 C 
ATOM     19  C   UNL     1      -0.231  10.120  17.753  0.00  0.00    +0.000 C 
BRANCH  14  20
ATOM     20  C   UNL     1      -2.568  10.207  18.402  0.00  0.00    +0.000 C 
BRANCH  20  22
ATOM     21  C   UNL     1      -4.837  11.162  17.742  0.00  0.00    +0.000 C 
ATOM     22  C   UNL     1      -3.419  11.486  18.216  0.00  0.00    +0.000 C 
ATOM     23  C   UNL     1      -3.471  12.305  19.507  0.00  0.00    +0.000 C 
ENDBRANCH  20  22
ENDBRANCH  14  20
ENDBRANCH  10  17
ENDBRANCH   1  11
BRANCH   9  24
ATOM     24  C   UNL     1       5.127   6.240  18.654  0.00  0.00    +0.000 C 
BRANCH  24  25
ATOM     25  C   UNL     1       5.861   6.099  17.367  0.00  0.00    +0.000 A 
ATOM     26  C   UNL     1       5.401   5.525  16.159  0.00  0.00    +0.000 A 
ATOM     27  C   UNL     1       6.515   5.399  15.356  0.00  0.00    +0.000 A 
ATOM     28  O   UNL     1       7.564   5.976  16.023  0.00  0.00    +0.000 OA
ATOM     29  N   UNL     1       7.162   6.405  17.277  0.00  0.00    +0.000 NA
BRANCH  27  30
ATOM     30  C   UNL     1       6.655   4.753  14.078  0.00  0.00    +0.000 A 
ATOM     31  C   UNL     1       7.531   5.094  13.061  0.00  0.00    +0.000 A 
ATOM     32  C   UNL     1       7.426   4.223  11.933  0.00  0.00    +0.000 A 
ATOM     33  C   UNL     1       6.479   3.258  12.144  0.00  0.00    +0.000 A 
ATOM     34 CL   UNL     1       6.016   2.013  11.055  0.00  0.00    +0.000 Cl
ATOM     35  S   UNL     1       5.729   3.368  13.653  0.00  0.00    +0.000 S 
ENDBRANCH  27  30
ENDBRANCH  24  25
ENDBRANCH   9  24
TORSDOF 7
ENDMDL
MODEL 2
REMARK VINA RESULT:      -7.9      1.348      1.989
REMARK  Name = 
REMARK  9 active torsions:
REMARK  status: ('A' for Active; 'I' for Inactive)
REMARK    1  A    between atoms: C_1  and  C_2
REMARK    2  A    between atoms: C_2  and  C_3
REMARK    3  A    between atoms: C_2  and  C_4
REMARK    4  A    between atoms: C_4  and  N_5
REMARK    5  A    between atoms: C_8  and  N_9
REMARK    6  A    between atoms: C_10  and  C_12
REMARK    7  A    between atoms: N_20  and  C_21
REMARK    8  A    between atoms: C_21  and  C_22
REMARK    9  A    between atoms: C_24  and  C_25
REMARK                            x       y       z     vdW  Elec       q    Type
REMARK                         _______ _______ _______ _____ _____    ______ ____
ROOT
ATOM      1  C   UNL     1       2.472   6.745  18.082  0.00  0.00    +0.000 A 
ATOM      2  C   UNL     1       1.552   5.710  18.050  0.00  0.00    +0.000 A 
ATOM      3  C   UNL     1       2.165   4.539  18.550  0.00  0.00    +0.000 A 
ATOM      4  C   UNL     1       1.698   3.232  18.781  0.00  0.00    +0.000 A 
ATOM      5  C   UNL     1       2.554   2.288  19.352  0.00  0.00    +0.000 A 
ATOM      6  C   UNL     1       3.859   2.634  19.683  0.00  0.00    +0.000 A 
ATOM      7  C   UNL     1       4.355   3.922  19.431  0.00  0.00    +0.000 A 
ATOM      8  C   UNL     1       3.485   4.868  18.856  0.00  0.00    +0.000 A 
ATOM      9  N   UNL     1       3.679   6.188  18.477  0.00  0.00    +0.000 N 
ENDROOT
BRANCH   1  11
ATOM     10  N   UNL     1       1.136   8.663  18.385  0.00  0.00    +0.000 N 
ATOM     11  C   UNL     1       2.239   8.136  17.752  0.00  0.00    +0.000 C 
ATOM     12  O   UNL     1       2.971   8.802  17.026  0.00  0.00    +0.000 OA
ATOM     13  H   UNL     1       0.741   8.112  19.137  0.00  0.00    +0.000 HD
BRANCH  10  17
ATOM     14  N   UNL     1      -0.330  10.909  20.905  0.00  0.00    +0.000 NA
ATOM     15  C   UNL     1       1.113  10.675  20.741  0.00  0.00    +0.000 C 
ATOM     16  C   UNL     1       1.570  10.916  19.304  0.00  0.00    +0.000 C 
ATOM     17  C   UNL     1       0.778  10.074  18.307  0.00  0.00    +0.000 C 
ATOM     18  C   UNL     1      -0.720  10.270  18.536  0.00  0.00    +0.000 C 
ATOM     19  C   UNL     1      -1.116  10.055  20.000  0.00  0.00    +0.000 C 
BRANCH  14  20
ATOM     20  C   UNL     1      -0.761  10.717  22.307  0.00  0.00    +0.000 C 
BRANCH  20  22
ATOM     21  C   UNL     1      -0.693  13.265  22.290  0.00  0.00    +0.000 C 
ATOM     22  C   UNL     1      -1.221  12.020  23.005  0.00  0.00    +0.000 C 
ATOM     23  C   UNL     1      -2.747  12.079  23.107  0.00  0.00    +0.000 C 
ENDBRANCH  20  22
ENDBRANCH  14  20
ENDBRANCH  10  17
ENDBRANCH   1  11
BRANCH   9  24
ATOM     24  C   UNL     1       4.980   6.853  18.408  0.00  0.00    +0.000 C 
BRANCH  24  25
ATOM     25  C   UNL     1       5.793   6.440  17.232  0.00  0.00    +0.000 A 
ATOM     26  C   UNL     1       5.336   5.982  15.974  0.00  0.00    +0.000 A 
ATOM     27  C   UNL     1       6.450   5.488  15.327  0.00  0.00    +0.000 A 
ATOM     28  O   UNL     1       7.532   5.746  16.129  0.00  0.00    +0.000 OA
ATOM     29  N   UNL     1       7.125   6.330  17.317  0.00  0.00    +0.000 NA
BRANCH  27  30
ATOM     30  C   UNL     1       6.545   4.776  14.081  0.00  0.00    +0.000 A 
ATOM     31  C   UNL     1       7.421   5.030  13.039  0.00  0.00    +0.000 A 
ATOM     32  C   UNL     1       7.265   4.111  11.956  0.00  0.00    +0.000 A 
ATOM     33  C   UNL     1       6.280   3.199  12.224  0.00  0.00    +0.000 A 
ATOM     34 CL   UNL     1       5.751   1.924  11.202  0.00  0.00    +0.000 Cl
ATOM     35  S   UNL     1       5.556   3.414  13.734  0.00  0.00    +0.000 S 
ENDBRANCH  27  30
ENDBRANCH  24  25
ENDBRANCH   9  24
TORSDOF 7
ENDMDL
MODEL 3
REMARK VINA RESULT:      -7.8      5.034      9.593
REMARK  Name = 
REMARK  9 active torsions:
REMARK  status: ('A' for Active; 'I' for Inactive)
REMARK    1  A    between atoms: C_1  and  C_2
REMARK    2  A    between atoms: C_2  and  C_3
REMARK    3  A    between atoms: C_2  and  C_4
REMARK    4  A    between atoms: C_4  and  N_5
REMARK    5  A    between atoms: C_8  and  N_9
REMARK    6  A    between atoms: C_10  and  C_12
REMARK    7  A    between atoms: N_20  and  C_21
REMARK    8  A    between atoms: C_21  and  C_22
REMARK    9  A    between atoms: C_24  and  C_25
REMARK                            x       y       z     vdW  Elec       q    Type
REMARK                         _______ _______ _______ _____ _____    ______ ____
ROOT
ATOM      1  C   UNL     1      -0.394  10.048  18.179  0.00  0.00    +0.000 A 
ATOM      2  C   UNL     1      -1.197   9.744  17.092  0.00  0.00    +0.000 A 
ATOM      3  C   UNL     1      -2.436  10.407  17.239  0.00  0.00    +0.000 A 
ATOM      4  C   UNL     1      -3.585  10.490  16.431  0.00  0.00    +0.000 A 
ATOM      5  C   UNL     1      -4.652  11.294  16.837  0.00  0.00    +0.000 A 
ATOM      6  C   UNL     1      -4.584  12.000  18.031  0.00  0.00    +0.000 A 
ATOM      7  C   UNL     1      -3.461  11.907  18.868  0.00  0.00    +0.000 A 
ATOM      8  C   UNL     1      -2.389  11.095  18.451  0.00  0.00    +0.000 A 
ATOM      9  N   UNL     1      -1.177  10.789  19.052  0.00  0.00    +0.000 N 
ENDROOT
BRANCH   1  11
ATOM     10  N   UNL     1       1.115   8.439  19.008  0.00  0.00    +0.000 N 
ATOM     11  C   UNL     1       0.986   9.661  18.387  0.00  0.00    +0.000 C 
ATOM     12  O   UNL     1       1.949  10.320  18.006  0.00  0.00    +0.000 OA
ATOM     13  H   UNL     1       0.280   7.872  19.068  0.00  0.00    +0.000 HD
BRANCH  10  17
ATOM     14  N   UNL     1       1.969   4.877  19.364  0.00  0.00    +0.000 NA
ATOM     15  C   UNL     1       1.879   5.585  18.077  0.00  0.00    +0.000 C 
ATOM     16  C   UNL     1       2.745   6.843  18.057  0.00  0.00    +0.000 C 
ATOM     17  C   UNL     1       2.404   7.786  19.207  0.00  0.00    +0.000 C 
ATOM     18  C   UNL     1       2.429   7.022  20.530  0.00  0.00    +0.000 C 
ATOM     19  C   UNL     1       1.576   5.750  20.482  0.00  0.00    +0.000 C 
BRANCH  14  20
ATOM     20  C   UNL     1       1.163   3.636  19.364  0.00  0.00    +0.000 C 
BRANCH  20  22
ATOM     21  C   UNL     1       3.261   2.188  19.381  0.00  0.00    +0.000 C 
ATOM     22  C   UNL     1       1.883   2.423  20.002  0.00  0.00    +0.000 C 
ATOM     23  C   UNL     1       2.011   2.594  21.517  0.00  0.00    +0.000 C 
ENDBRANCH  20  22
ENDBRANCH  14  20
ENDBRANCH  10  17
ENDBRANCH   1  11
BRANCH   9  24
ATOM     24  C   UNL     1      -0.826  11.112  20.435  0.00  0.00    +0.000 C 
BRANCH  24  25
ATOM     25  C   UNL     1       0.278  12.104  20.548  0.00  0.00    +0.000 A 
ATOM     26  C   UNL     1       0.536  13.219  19.716  0.00  0.00    +0.000 A 
ATOM     27  C   UNL     1       1.794  13.665  20.068  0.00  0.00    +0.000 A 
ATOM     28  O   UNL     1       2.208  12.911  21.135  0.00  0.00    +0.000 OA
ATOM     29  N   UNL     1       1.271  11.935  21.430  0.00  0.00    +0.000 NA
BRANCH  27  30
ATOM     30  C   UNL     1       2.610  14.679  19.456  0.00  0.00    +0.000 A 
ATOM     31  C   UNL     1       2.286  15.466  18.364  0.00  0.00    +0.000 A 
ATOM     32  C   UNL     1       3.321  16.395  18.032  0.00  0.00    +0.000 A 
ATOM     33  C   UNL     1       4.383  16.274  18.888  0.00  0.00    +0.000 A 
ATOM     34 CL   UNL     1       5.841  17.179  18.854  0.00  0.00    +0.000 Cl
ATOM     35  S   UNL     1       4.162  15.091  20.072  0.00  0.00    +0.000 S 
ENDBRANCH  27  30
ENDBRANCH  24  25
ENDBRANCH   9  24
TORSDOF 7
ENDMDL
MODEL 4
REMARK VINA RESULT:      -7.6      6.165      9.455
REMARK  Name = 
REMARK  9 active torsions:
REMARK  status: ('A' for Active; 'I' for Inactive)
REMARK    1  A    between atoms: C_1  and  C_2
REMARK    2  A    between atoms: C_2  and  C_3
REMARK    3  A    between atoms: C_2  and  C_4
REMARK    4  A    between atoms: C_4  and  N_5
REMARK    5  A    between atoms: C_8  and  N_9
REMARK    6  A    between atoms: C_10  and  C_12
REMARK    7  A    between atoms: N_20  and  C_21
REMARK    8  A    between atoms: C_21  and  C_22
REMARK    9  A    between atoms: C_24  and  C_25
REMARK                            x       y       z     vdW  Elec       q    Type
REMARK                         _______ _______ _______ _____ _____    ______ ____
ROOT
ATOM      1  C   UNL     1       0.617  10.221  20.956  0.00  0.00    +0.000 A 
ATOM      2  C   UNL     1       0.942   8.967  21.449  0.00  0.00    +0.000 A 
ATOM      3  C   UNL     1       1.502   8.197  20.406  0.00  0.00    +0.000 A 
ATOM      4  C   UNL     1       2.038   6.897  20.350  0.00  0.00    +0.000 A 
ATOM      5  C   UNL     1       2.581   6.429  19.152  0.00  0.00    +0.000 A 
ATOM      6  C   UNL     1       2.586   7.237  18.021  0.00  0.00    +0.000 A 
ATOM      7  C   UNL     1       2.028   8.525  18.046  0.00  0.00    +0.000 A 
ATOM      8  C   UNL     1       1.484   8.989  19.259  0.00  0.00    +0.000 A 
ATOM      9  N   UNL     1       0.857  10.181  19.591  0.00  0.00    +0.000 N 
ENDROOT
BRANCH   1  11
ATOM     10  N   UNL     1       0.641  12.553  21.289  0.00  0.00    +0.000 N 
ATOM     11  C   UNL     1       0.110  11.353  21.703  0.00  0.00    +0.000 C 
ATOM     12  O   UNL     1      -0.743  11.270  22.581  0.00  0.00    +0.000 OA
ATOM     13  H   UNL     1       1.149  12.545  20.414  0.00  0.00    +0.000 HD
BRANCH  10  17
ATOM     14  N   UNL     1       0.629  15.892  19.741  0.00  0.00    +0.000 NA
ATOM     15  C   UNL     1      -0.460  14.913  19.609  0.00  0.00    +0.000 C 
ATOM     16  C   UNL     1      -0.950  14.418  20.968  0.00  0.00    +0.000 C 
ATOM     17  C   UNL     1       0.187  13.840  21.806  0.00  0.00    +0.000 C 
ATOM     18  C   UNL     1       1.342  14.837  21.875  0.00  0.00    +0.000 C 
ATOM     19  C   UNL     1       1.766  15.330  20.487  0.00  0.00    +0.000 C 
BRANCH  14  20
ATOM     20  C   UNL     1       1.071  16.401  18.424  0.00  0.00    +0.000 C 
BRANCH  20  22
ATOM     21  C   UNL     1       0.953  18.508  16.993  0.00  0.00    +0.000 C 
ATOM     22  C   UNL     1       1.263  17.937  18.378  0.00  0.00    +0.000 C 
ATOM     23  C   UNL     1       0.404  18.630  19.438  0.00  0.00    +0.000 C 
ENDBRANCH  20  22
ENDBRANCH  14  20
ENDBRANCH  10  17
ENDBRANCH   1  11
BRANCH   9  24
ATOM     24  C   UNL     1       0.422  11.192  18.627  0.00  0.00    +0.000 C 
BRANCH  24  25
ATOM     25  C   UNL     1      -1.013  11.072  18.252  0.00  0.00    +0.000 A 
ATOM     26  C   UNL     1      -2.080  11.934  18.600  0.00  0.00    +0.000 A 
ATOM     27  C   UNL     1      -3.233  11.268  18.238  0.00  0.00    +0.000 A 
ATOM     28  O   UNL     1      -2.852  10.114  17.604  0.00  0.00    +0.000 OA
ATOM     29  N   UNL     1      -1.474   9.985  17.619  0.00  0.00    +0.000 NA
BRANCH  27  30
ATOM     30  C   UNL     1      -4.606  11.614  18.486  0.00  0.00    +0.000 A 
ATOM     31  C   UNL     1      -5.711  11.235  17.741  0.00  0.00    +0.000 A 
ATOM     32  C   UNL     1      -6.935  11.734  18.285  0.00  0.00    +0.000 A 
ATOM     33  C   UNL     1      -6.707  12.467  19.418  0.00  0.00    +0.000 A 
ATOM     34 CL   UNL     1      -7.883  13.257  20.388  0.00  0.00    +0.000 Cl
ATOM     35  S   UNL     1      -5.075  12.558  19.844  0.00  0.00    +0.000 S 
ENDBRANCH  27  30
ENDBRANCH  24  25
ENDBRANCH   9  24
TORSDOF 7
ENDMDL
MODEL 5
REMARK VINA RESULT:      -7.5      4.658      8.132
REMARK  Name = 
REMARK  9 active torsions:
REMARK  status: ('A' for Active; 'I' for Inactive)
REMARK    1  A    between atoms: C_1  and  C_2
REMARK    2  A    between atoms: C_2  and  C_3
REMARK    3  A    between atoms: C_2  and  C_4
REMARK    4  A    between atoms: C_4  and  N_5
REMARK    5  A    between atoms: C_8  and  N_9
REMARK    6  A    between atoms: C_10  and  C_12
REMARK    7  A    between atoms: N_20  and  C_21
REMARK    8  A    between atoms: C_21  and  C_22
REMARK    9  A    between atoms: C_24  and  C_25
REMARK                            x       y       z     vdW  Elec       q    Type
REMARK                         _______ _______ _______ _____ _____    ______ ____
ROOT
ATOM      1  C   UNL     1      -0.774  12.381  19.927  0.00  0.00    +0.000 A 
ATOM      2  C   UNL     1      -2.130  12.612  19.765  0.00  0.00    +0.000 A 
ATOM      3  C   UNL     1      -2.623  11.753  18.759  0.00  0.00    +0.000 A 
ATOM      4  C   UNL     1      -3.906  11.531  18.225  0.00  0.00    +0.000 A 
ATOM      5  C   UNL     1      -4.084  10.545  17.252  0.00  0.00    +0.000 A 
ATOM      6  C   UNL     1      -3.003   9.795  16.808  0.00  0.00    +0.000 A 
ATOM      7  C   UNL     1      -1.709  10.020  17.303  0.00  0.00    +0.000 A 
ATOM      8  C   UNL     1      -1.539  11.015  18.285  0.00  0.00    +0.000 A 
ATOM      9  N   UNL     1      -0.407  11.478  18.941  0.00  0.00    +0.000 N 
ENDROOT
BRANCH   1  11
ATOM     10  N   UNL     1       0.627  14.182  20.516  0.00  0.00    +0.000 N 
ATOM     11  C   UNL     1       0.105  12.973  20.915  0.00  0.00    +0.000 C 
ATOM     12  O   UNL     1       0.329  12.482  22.017  0.00  0.00    +0.000 OA
ATOM     13  H   UNL     1       0.204  14.612  19.703  0.00  0.00    +0.000 HD
BRANCH  10  17
ATOM     14  N   UNL     1       3.773  15.984  19.881  0.00  0.00    +0.000 NA
ATOM     15  C   UNL     1       2.434  16.539  19.632  0.00  0.00    +0.000 C 
ATOM     16  C   UNL     1       1.541  16.452  20.867  0.00  0.00    +0.000 C 
ATOM     17  C   UNL     1       1.435  15.023  21.393  0.00  0.00    +0.000 C 
ATOM     18  C   UNL     1       2.832  14.432  21.578  0.00  0.00    +0.000 C 
ATOM     19  C   UNL     1       3.696  14.581  20.322  0.00  0.00    +0.000 C 
BRANCH  14  20
ATOM     20  C   UNL     1       4.648  16.109  18.695  0.00  0.00    +0.000 C 
BRANCH  20  22
ATOM     21  C   UNL     1       5.916  17.598  20.331  0.00  0.00    +0.000 C 
ATOM     22  C   UNL     1       5.833  17.086  18.891  0.00  0.00    +0.000 C 
ATOM     23  C   UNL     1       7.157  16.434  18.488  0.00  0.00    +0.000 C 
ENDBRANCH  20  22
ENDBRANCH  14  20
ENDBRANCH  10  17
ENDBRANCH   1  11
BRANCH   9  24
ATOM     24  C   UNL     1       0.967  11.139  18.574  0.00  0.00    +0.000 C 
BRANCH  24  25
ATOM     25  C   UNL     1       1.423   9.836  19.129  0.00  0.00    +0.000 A 
ATOM     26  C   UNL     1       2.091   8.787  18.455  0.00  0.00    +0.000 A 
ATOM     27  C   UNL     1       2.065   7.710  19.317  0.00  0.00    +0.000 A 
ATOM     28  O   UNL     1       1.503   8.144  20.490  0.00  0.00    +0.000 OA
ATOM     29  N   UNL     1       1.096   9.462  20.373  0.00  0.00    +0.000 NA
BRANCH  27  30
ATOM     30  C   UNL     1       2.473   6.349  19.096  0.00  0.00    +0.000 A 
ATOM     31  C   UNL     1       3.132   5.844  17.988  0.00  0.00    +0.000 A 
ATOM     32  C   UNL     1       3.412   4.447  18.107  0.00  0.00    +0.000 A 
ATOM     33  C   UNL     1       2.957   3.955  19.300  0.00  0.00    +0.000 A 
ATOM     34 CL   UNL     1       3.070   2.334  19.855  0.00  0.00    +0.000 Cl
ATOM     35  S   UNL     1       2.219   5.121  20.273  0.00  0.00    +0.000 S 
ENDBRANCH  27  30
ENDBRANCH  24  25
ENDBRANCH   9  24
TORSDOF 7
ENDMDL
MODEL 6
REMARK VINA RESULT:      -7.5      4.073      7.818
REMARK  Name = 
REMARK  9 active torsions:
REMARK  status: ('A' for Active; 'I' for Inactive)
REMARK    1  A    between atoms: C_1  and  C_2
REMARK    2  A    between atoms: C_2  and  C_3
REMARK    3  A    between atoms: C_2  and  C_4
REMARK    4  A    between atoms: C_4  and  N_5
REMARK    5  A    between atoms: C_8  and  N_9
REMARK    6  A    between atoms: C_10  and  C_12
REMARK    7  A    between atoms: N_20  and  C_21
REMARK    8  A    between atoms: C_21  and  C_22
REMARK    9  A    between atoms: C_24  and  C_25
REMARK                            x       y       z     vdW  Elec       q    Type
REMARK                         _______ _______ _______ _____ _____    ______ ____
ROOT
ATOM      1  C   UNL     1      -1.029  12.031  18.674  0.00  0.00    +0.000 A 
ATOM      2  C   UNL     1      -0.680  13.265  18.150  0.00  0.00    +0.000 A 
ATOM      3  C   UNL     1       0.327  13.837  18.958  0.00  0.00    +0.000 A 
ATOM      4  C   UNL     1       1.067  15.031  18.874  0.00  0.00    +0.000 A 
ATOM      5  C   UNL     1       2.059  15.292  19.822  0.00  0.00    +0.000 A 
ATOM      6  C   UNL     1       2.309  14.384  20.843  0.00  0.00    +0.000 A 
ATOM      7  C   UNL     1       1.563  13.202  20.965  0.00  0.00    +0.000 A 
ATOM      8  C   UNL     1       0.565  12.947  20.005  0.00  0.00    +0.000 A 
ATOM      9  N   UNL     1      -0.335  11.900  19.868  0.00  0.00    +0.000 N 
ENDROOT
BRANCH   1  11
ATOM     10  N   UNL     1      -3.268  11.365  18.366  0.00  0.00    +0.000 N 
ATOM     11  C   UNL     1      -1.950  11.066  18.109  0.00  0.00    +0.000 C 
ATOM     12  O   UNL     1      -1.605  10.106  17.427  0.00  0.00    +0.000 OA
ATOM     13  H   UNL     1      -3.460  12.290  18.728  0.00  0.00    +0.000 HD
BRANCH  10  17
ATOM     14  N   UNL     1      -6.794  12.290  17.860  0.00  0.00    +0.000 NA
ATOM     15  C   UNL     1      -5.720  12.554  16.890  0.00  0.00    +0.000 C 
ATOM     16  C   UNL     1      -4.939  11.287  16.546  0.00  0.00    +0.000 C 
ATOM     17  C   UNL     1      -4.377  10.610  17.793  0.00  0.00    +0.000 C 
ATOM     18  C   UNL     1      -5.488  10.408  18.821  0.00  0.00    +0.000 C 
ATOM     19  C   UNL     1      -6.263  11.700  19.099  0.00  0.00    +0.000 C 
BRANCH  14  20
ATOM     20  C   UNL     1      -7.576  13.511  18.158  0.00  0.00    +0.000 C 
BRANCH  20  22
ATOM     21  C   UNL     1      -7.663  15.722  16.891  0.00  0.00    +0.000 C 
ATOM     22  C   UNL     1      -6.835  14.827  17.816  0.00  0.00    +0.000 C 
ATOM     23  C   UNL     1      -6.458  15.592  19.086  0.00  0.00    +0.000 C 
ENDBRANCH  20  22
ENDBRANCH  14  20
ENDBRANCH  10  17
ENDBRANCH   1  11
BRANCH   9  24
ATOM     24  C   UNL     1      -0.582  10.874  20.880  0.00  0.00    +0.000 C 
BRANCH  24  25
ATOM     25  C   UNL     1       0.381   9.741  20.822  0.00  0.00    +0.000 A 
ATOM     26  C   UNL     1       1.093   9.260  19.698  0.00  0.00    +0.000 A 
ATOM     27  C   UNL     1       1.646   8.058  20.091  0.00  0.00    +0.000 A 
ATOM     28  O   UNL     1       1.361   7.897  21.423  0.00  0.00    +0.000 OA
ATOM     29  N   UNL     1       0.568   8.937  21.876  0.00  0.00    +0.000 NA
BRANCH  27  30
ATOM     30  C   UNL     1       2.350   7.075  19.312  0.00  0.00    +0.000 A 
ATOM     31  C   UNL     1       3.050   7.286  18.136  0.00  0.00    +0.000 A 
ATOM     32  C   UNL     1       3.656   6.092  17.638  0.00  0.00    +0.000 A 
ATOM     33  C   UNL     1       3.392   5.028  18.458  0.00  0.00    +0.000 A 
ATOM     34 CL   UNL     1       3.912   3.406  18.240  0.00  0.00    +0.000 Cl
ATOM     35  S   UNL     1       2.453   5.430  19.802  0.00  0.00    +0.000 S 
ENDBRANCH  27  30
ENDBRANCH  24  25
ENDBRANCH   9  24
TORSDOF 7
ENDMDL
MODEL 7
REMARK VINA RESULT:      -7.5      5.146     10.071
REMARK  Name = 
REMARK  9 active torsions:
REMARK  status: ('A' for Active; 'I' for Inactive)
REMARK    1  A    between atoms: C_1  and  C_2
REMARK    2  A    between atoms: C_2  and  C_3
REMARK    3  A    between atoms: C_2  and  C_4
REMARK    4  A    between atoms: C_4  and  N_5
REMARK    5  A    between atoms: C_8  and  N_9
REMARK    6  A    between atoms: C_10  and  C_12
REMARK    7  A    between atoms: N_20  and  C_21
REMARK    8  A    between atoms: C_21  and  C_22
REMARK    9  A    between atoms: C_24  and  C_25
REMARK                            x       y       z     vdW  Elec       q    Type
REMARK                         _______ _______ _______ _____ _____    ______ ____
ROOT
ATOM      1  C   UNL     1       1.508   8.912  19.646  0.00  0.00    +0.000 A 
ATOM      2  C   UNL     1       1.600   8.527  20.974  0.00  0.00    +0.000 A 
ATOM      3  C   UNL     1       0.697   9.299  21.738  0.00  0.00    +0.000 A 
ATOM      4  C   UNL     1       0.346   9.304  23.100  0.00  0.00    +0.000 A 
ATOM      5  C   UNL     1      -0.650  10.172  23.550  0.00  0.00    +0.000 A 
ATOM      6  C   UNL     1      -1.286  11.030  22.662  0.00  0.00    +0.000 A 
ATOM      7  C   UNL     1      -0.931  11.066  21.305  0.00  0.00    +0.000 A 
ATOM      8  C   UNL     1       0.074  10.186  20.859  0.00  0.00    +0.000 A 
ATOM      9  N   UNL     1       0.648  10.000  19.610  0.00  0.00    +0.000 N 
ENDROOT
BRANCH   1  11
ATOM     10  N   UNL     1       3.124   7.380  18.875  0.00  0.00    +0.000 N 
ATOM     11  C   UNL     1       2.184   8.317  18.511  0.00  0.00    +0.000 C 
ATOM     12  O   UNL     1       1.919   8.576  17.342  0.00  0.00    +0.000 OA
ATOM     13  H   UNL     1       3.104   7.068  19.837  0.00  0.00    +0.000 HD
BRANCH  10  17
ATOM     14  N   UNL     1       3.608   3.736  18.706  0.00  0.00    +0.000 NA
ATOM     15  C   UNL     1       2.463   4.449  18.119  0.00  0.00    +0.000 C 
ATOM     16  C   UNL     1       2.909   5.580  17.195  0.00  0.00    +0.000 C 
ATOM     17  C   UNL     1       3.839   6.560  17.904  0.00  0.00    +0.000 C 
ATOM     18  C   UNL     1       4.984   5.799  18.570  0.00  0.00    +0.000 C 
ATOM     19  C   UNL     1       4.482   4.653  19.454  0.00  0.00    +0.000 C 
BRANCH  14  20
ATOM     20  C   UNL     1       3.172   2.613  19.566  0.00  0.00    +0.000 C 
BRANCH  20  22
ATOM     21  C   UNL     1       0.722   1.920  19.432  0.00  0.00    +0.000 C 
ATOM     22  C   UNL     1       1.752   2.791  20.155  0.00  0.00    +0.000 C 
ATOM     23  C   UNL     1       1.736   2.487  21.655  0.00  0.00    +0.000 C 
ENDBRANCH  20  22
ENDBRANCH  14  20
ENDBRANCH  10  17
ENDBRANCH   1  11
BRANCH   9  24
ATOM     24  C   UNL     1       0.452  10.884  18.462  0.00  0.00    +0.000 C 
BRANCH  24  25
ATOM     25  C   UNL     1      -0.955  10.921  17.978  0.00  0.00    +0.000 A 
ATOM     26  C   UNL     1      -1.934  11.913  18.221  0.00  0.00    +0.000 A 
ATOM     27  C   UNL     1      -3.128  11.375  17.786  0.00  0.00    +0.000 A 
ATOM     28  O   UNL     1      -2.842  10.164  17.212  0.00  0.00    +0.000 OA
ATOM     29  N   UNL     1      -1.494   9.875  17.338  0.00  0.00    +0.000 NA
BRANCH  27  30
ATOM     30  C   UNL     1      -4.465  11.888  17.917  0.00  0.00    +0.000 A 
ATOM     31  C   UNL     1      -5.412  12.019  16.915  0.00  0.00    +0.000 A 
ATOM     32  C   UNL     1      -6.652  12.541  17.397  0.00  0.00    +0.000 A 
ATOM     33  C   UNL     1      -6.593  12.781  18.744  0.00  0.00    +0.000 A 
ATOM     34 CL   UNL     1      -7.845  13.416  19.732  0.00  0.00    +0.000 Cl
ATOM     35  S   UNL     1      -5.103  12.388  19.434  0.00  0.00    +0.000 S 
ENDBRANCH  27  30
ENDBRANCH  24  25
ENDBRANCH   9  24
TORSDOF 7
ENDMDL
MODEL 8
REMARK VINA RESULT:      -7.4      4.789      8.199
REMARK  Name = 
REMARK  9 active torsions:
REMARK  status: ('A' for Active; 'I' for Inactive)
REMARK    1  A    between atoms: C_1  and  C_2
REMARK    2  A    between atoms: C_2  and  C_3
REMARK    3  A    between atoms: C_2  and  C_4
REMARK    4  A    between atoms: C_4  and  N_5
REMARK    5  A    between atoms: C_8  and  N_9
REMARK    6  A    between atoms: C_10  and  C_12
REMARK    7  A    between atoms: N_20  and  C_21
REMARK    8  A    between atoms: C_21  and  C_22
REMARK    9  A    between atoms: C_24  and  C_25
REMARK                            x       y       z     vdW  Elec       q    Type
REMARK                         _______ _______ _______ _____ _____    ______ ____
ROOT
ATOM      1  C   UNL     1      -0.576  12.440  20.093  0.00  0.00    +0.000 A 
ATOM      2  C   UNL     1      -1.941  12.583  19.908  0.00  0.00    +0.000 A 
ATOM      3  C   UNL     1      -2.359  11.704  18.884  0.00  0.00    +0.000 A 
ATOM      4  C   UNL     1      -3.614  11.404  18.325  0.00  0.00    +0.000 A 
ATOM      5  C   UNL     1      -3.709  10.419  17.339  0.00  0.00    +0.000 A 
ATOM      6  C   UNL     1      -2.573   9.747  16.908  0.00  0.00    +0.000 A 
ATOM      7  C   UNL     1      -1.306  10.052  17.428  0.00  0.00    +0.000 A 
ATOM      8  C   UNL     1      -1.219  11.045  18.423  0.00  0.00    +0.000 A 
ATOM      9  N   UNL     1      -0.133  11.574  19.104  0.00  0.00    +0.000 N 
ENDROOT
BRANCH   1  11
ATOM     10  N   UNL     1       0.958  14.150  20.618  0.00  0.00    +0.000 N 
ATOM     11  C   UNL     1       0.244  13.078  21.102  0.00  0.00    +0.000 C 
ATOM     12  O   UNL     1       0.269  12.738  22.281  0.00  0.00    +0.000 OA
ATOM     13  H   UNL     1       0.694  14.494  19.704  0.00  0.00    +0.000 HD
BRANCH  10  17
ATOM     14  N   UNL     1       3.968  16.138  19.886  0.00  0.00    +0.000 NA
ATOM     15  C   UNL     1       2.590  16.619  19.700  0.00  0.00    +0.000 C 
ATOM     16  C   UNL     1       1.756  16.463  20.970  0.00  0.00    +0.000 C 
ATOM     17  C   UNL     1       1.753  15.023  21.475  0.00  0.00    +0.000 C 
ATOM     18  C   UNL     1       3.188  14.511  21.594  0.00  0.00    +0.000 C 
ATOM     19  C   UNL     1       3.989  14.727  20.306  0.00  0.00    +0.000 C 
BRANCH  14  20
ATOM     20  C   UNL     1       4.784  16.330  18.667  0.00  0.00    +0.000 C 
BRANCH  20  22
ATOM     21  C   UNL     1       6.590  14.796  17.726  0.00  0.00    +0.000 C 
ATOM     22  C   UNL     1       6.241  15.825  18.803  0.00  0.00    +0.000 C 
ATOM     23  C   UNL     1       7.233  16.989  18.758  0.00  0.00    +0.000 C 
ENDBRANCH  20  22
ENDBRANCH  14  20
ENDBRANCH  10  17
ENDBRANCH   1  11
BRANCH   9  24
ATOM     24  C   UNL     1       1.267  11.331  18.759  0.00  0.00    +0.000 C 
BRANCH  24  25
ATOM     25  C   UNL     1       1.578   9.894  18.529  0.00  0.00    +0.000 A 
ATOM     26  C   UNL     1       1.529   8.831  19.461  0.00  0.00    +0.000 A 
ATOM     27  C   UNL     1       2.144   7.761  18.843  0.00  0.00    +0.000 A 
ATOM     28  O   UNL     1       2.442   8.150  17.562  0.00  0.00    +0.000 OA
ATOM     29  N   UNL     1       2.100   9.477  17.368  0.00  0.00    +0.000 NA
BRANCH  27  30
ATOM     30  C   UNL     1       2.495   6.473  19.377  0.00  0.00    +0.000 A 
ATOM     31  C   UNL     1       3.595   5.702  19.041  0.00  0.00    +0.000 A 
ATOM     32  C   UNL     1       3.656   4.482  19.785  0.00  0.00    +0.000 A 
ATOM     33  C   UNL     1       2.603   4.384  20.653  0.00  0.00    +0.000 A 
ATOM     34 CL   UNL     1       2.274   3.087  21.730  0.00  0.00    +0.000 Cl
ATOM     35  S   UNL     1       1.561   5.711  20.602  0.00  0.00    +0.000 S 
ENDBRANCH  27  30
ENDBRANCH  24  25
ENDBRANCH   9  24
TORSDOF 7
ENDMDL
MODEL 9
REMARK VINA RESULT:      -7.3      4.339      8.110
REMARK  Name = 
REMARK  9 active torsions:
REMARK  status: ('A' for Active; 'I' for Inactive)
REMARK    1  A    between atoms: C_1  and  C_2
REMARK    2  A    between atoms: C_2  and  C_3
REMARK    3  A    between atoms: C_2  and  C_4
REMARK    4  A    between atoms: C_4  and  N_5
REMARK    5  A    between atoms: C_8  and  N_9
REMARK    6  A    between atoms: C_10  and  C_12
REMARK    7  A    between atoms: N_20  and  C_21
REMARK    8  A    between atoms: C_21  and  C_22
REMARK    9  A    between atoms: C_24  and  C_25
REMARK                            x       y       z     vdW  Elec       q    Type
REMARK                         _______ _______ _______ _____ _____    ______ ____
ROOT
ATOM      1  C   UNL     1      -0.081  12.725  21.258  0.00  0.00    +0.000 A 
ATOM      2  C   UNL     1       0.792  13.727  21.650  0.00  0.00    +0.000 A 
ATOM      3  C   UNL     1       1.646  14.037  20.569  0.00  0.00    +0.000 A 
ATOM      4  C   UNL     1       2.671  14.985  20.392  0.00  0.00    +0.000 A 
ATOM      5  C   UNL     1       3.307  15.087  19.154  0.00  0.00    +0.000 A 
ATOM      6  C   UNL     1       2.936  14.254  18.105  0.00  0.00    +0.000 A 
ATOM      7  C   UNL     1       1.939  13.281  18.267  0.00  0.00    +0.000 A 
ATOM      8  C   UNL     1       1.302  13.186  19.519  0.00  0.00    +0.000 A 
ATOM      9  N   UNL     1       0.314  12.332  19.988  0.00  0.00    +0.000 N 
ENDROOT
BRANCH   1  11
ATOM     10  N   UNL     1      -2.360  12.864  21.841  0.00  0.00    +0.000 N 
ATOM     11  C   UNL     1      -1.183  12.174  22.020  0.00  0.00    +0.000 C 
ATOM     12  O   UNL     1      -1.101  11.166  22.715  0.00  0.00    +0.000 OA
ATOM     13  H   UNL     1      -2.385  13.527  21.077  0.00  0.00    +0.000 HD
BRANCH  10  17
ATOM     14  N   UNL     1      -5.054  14.767  23.474  0.00  0.00    +0.000 NA
ATOM     15  C   UNL     1      -4.961  14.538  22.024  0.00  0.00    +0.000 C 
ATOM     16  C   UNL     1      -4.820  13.055  21.689  0.00  0.00    +0.000 C 
ATOM     17  C   UNL     1      -3.631  12.421  22.405  0.00  0.00    +0.000 C 
ATOM     18  C   UNL     1      -3.700  12.728  23.900  0.00  0.00    +0.000 C 
ATOM     19  C   UNL     1      -3.881  14.224  24.177  0.00  0.00    +0.000 C 
BRANCH  14  20
ATOM     20  C   UNL     1      -5.235  16.201  23.793  0.00  0.00    +0.000 C 
BRANCH  20  22
ATOM     21  C   UNL     1      -3.403  17.731  22.897  0.00  0.00    +0.000 C 
ATOM     22  C   UNL     1      -3.913  16.943  24.106  0.00  0.00    +0.000 C 
ATOM     23  C   UNL     1      -4.077  17.874  25.309  0.00  0.00    +0.000 C 
ENDBRANCH  20  22
ENDBRANCH  14  20
ENDBRANCH  10  17
ENDBRANCH   1  11
BRANCH   9  24
ATOM     24  C   UNL     1      -0.160  11.140  19.287  0.00  0.00    +0.000 C 
BRANCH  24  25
ATOM     25  C   UNL     1       0.771   9.983  19.393  0.00  0.00    +0.000 A 
ATOM     26  C   UNL     1       1.566   9.408  18.374  0.00  0.00    +0.000 A 
ATOM     27  C   UNL     1       2.046   8.224  18.896  0.00  0.00    +0.000 A 
ATOM     28  O   UNL     1       1.638   8.163  20.203  0.00  0.00    +0.000 OA
ATOM     29  N   UNL     1       0.839   9.250  20.512  0.00  0.00    +0.000 NA
BRANCH  27  30
ATOM     30  C   UNL     1       2.788   7.174  18.252  0.00  0.00    +0.000 A 
ATOM     31  C   UNL     1       3.894   7.314  17.431  0.00  0.00    +0.000 A 
ATOM     32  C   UNL     1       4.405   6.057  16.981  0.00  0.00    +0.000 A 
ATOM     33  C   UNL     1       3.666   5.019  17.481  0.00  0.00    +0.000 A 
ATOM     34 CL   UNL     1       3.915   3.345  17.193  0.00  0.00    +0.000 Cl
ATOM     35  S   UNL     1       2.395   5.515  18.477  0.00  0.00    +0.000 S 
ENDBRANCH  27  30
ENDBRANCH  24  25
ENDBRANCH   9  24
TORSDOF 7
ENDMDL
