MODEL 1
REMARK VINA RESULT:      -8.1      0.000      0.000
REMARK  Name = 
REMARK  9 active torsions:
REMARK  status: ('A' for Active; 'I' for Inactive)
REMARK    1  A    between atoms: C_1  and  C_2
REMARK    2  A    between atoms: C_4  and  C_5
REMARK    3  A    between atoms: C_8  and  C_10
REMARK    4  A    between atoms: C_10  and  N_11
REMARK    5  A    between atoms: C_10  and  C_12
REMARK    6  A    between atoms: C_12  and  C_13
REMARK    7  A    between atoms: N_18  and  C_19
REMARK    8  A    between atoms: C_19  and  C_20
REMARK    9  A    between atoms: C_19  and  C_27
REMARK                            x       y       z     vdW  Elec       q    Type
REMARK                         _______ _______ _______ _____ _____    ______ ____
ROOT
ATOM      1  C   UNL     1       2.061   7.716  19.515  0.00  0.00    +0.000 C 
ATOM      2  O   UNL     1       2.304   7.084  20.543  0.00  0.00    +0.000 OA
ATOM      3  N   UNL     1       1.283   8.867  19.546  0.00  0.00    +0.000 N 
ATOM      4  C   UNL     1       0.748   9.331  20.832  0.00  0.00    +0.000 C 
ATOM      5  C   UNL     1       0.770  10.874  20.926  0.00  0.00    +0.000 C 
ATOM      6  N   UNL     1       0.136  11.591  19.778  0.00  0.00    +0.000 NA
ATOM      7  C   UNL     1       0.761  11.065  18.543  0.00  0.00    +0.000 C 
ATOM      8  C   UNL     1       0.710   9.541  18.380  0.00  0.00    +0.000 C 
ENDROOT
BRANCH   1   9
ATOM      9  C   UNL     1       2.716   7.330  18.195  0.00  0.00    +0.000 C 
BRANCH   9  10
ATOM     10  C   UNL     1       3.013   5.840  18.029  0.00  0.00    +0.000 C 
BRANCH  10  16
ATOM     11  C   UNL     1       6.215   3.943  13.971  0.00  0.00    +0.000 C 
ATOM     12  C   UNL     1       6.081   3.830  15.480  0.00  0.00    +0.000 C 
ATOM     13  C   UNL     1       7.273   4.422  16.228  0.00  0.00    +0.000 C 
ATOM     14  C   UNL     1       6.707   4.735  17.617  0.00  0.00    +0.000 C 
ATOM     15  N   UNL     1       5.318   5.108  17.336  0.00  0.00    +0.000 N 
ATOM     16  C   UNL     1       4.464   5.418  18.379  0.00  0.00    +0.000 C 
ATOM     17  O   UNL     1       4.833   5.308  19.551  0.00  0.00    +0.000 OA
ATOM     18  C   UNL     1       4.888   4.612  16.035  0.00  0.00    +0.000 C 
BRANCH  14  19
ATOM     19  C   UNL     1       7.517   5.787  18.260  0.00  0.00    +0.000 C 
ATOM     20  N   UNL     1       8.084   6.656  18.785  0.00  0.00    +0.000 NA
ENDBRANCH  14  19
ENDBRANCH  10  16
BRANCH  10  21
ATOM     21  N   UNL     1       2.042   5.020  18.791  0.00  0.00    +0.000 NA
ATOM     22  H   UNL     1       2.345   4.043  18.673  0.00  0.00    +0.000 HD
ATOM     23  H   UNL     1       1.153   5.040  18.290  0.00  0.00    +0.000 HD
ENDBRANCH  10  21
ENDBRANCH   9  10
ENDBRANCH   1   9
BRANCH   6  24
ATOM     24  C   UNL     1      -1.353  11.476  19.807  0.00  0.00    +0.000 C 
BRANCH  24  25
ATOM     25  C   UNL     1      -1.992  12.781  20.305  0.00  0.00    +0.000 A 
ATOM     26  C   UNL     1      -3.300  12.793  20.818  0.00  0.00    +0.000 A 
ATOM     27  C   UNL     1      -3.886  13.979  21.260  0.00  0.00    +0.000 A 
ATOM     28  C   UNL     1      -3.164  15.163  21.182  0.00  0.00    +0.000 A 
ATOM     29  F   UNL     1      -3.726  16.303  21.600  0.00  0.00    +0.000 F 
ATOM     30  C   UNL     1      -1.871  15.182  20.670  0.00  0.00    +0.000 A 
ATOM     31  C   UNL     1      -1.281  13.996  20.238  0.00  0.00    +0.000 A 
ENDBRANCH  24  25
BRANCH  24  32
ATOM     32  C   UNL     1      -2.004  11.054  18.478  0.00  0.00    +0.000 A 
ATOM     33  C   UNL     1      -2.676   9.818  18.399  0.00  0.00    +0.000 A 
ATOM     34  C   UNL     1      -3.250   9.391  17.199  0.00  0.00    +0.000 A 
ATOM     35  C   UNL     1      -3.161  10.196  16.071  0.00  0.00    +0.000 A 
ATOM     36  F   UNL     1      -3.683   9.770  14.913  0.00  0.00    +0.000 F 
ATOM     37  C   UNL     1      -2.539  11.435  16.128  0.00  0.00    +0.000 A 
ATOM     38  C   UNL     1      -1.980  11.872  17.331  0.00  0.00    +0.000 A 
ENDBRANCH  24  32
ENDBRANCH   6  24
TORSDOF 8
ENDMDL
MODEL 2
REMARK VINA RESULT:      -8.1      2.508      4.088
REMARK  Name = 
REMARK  9 active torsions:
REMARK  status: ('A' for Active; 'I' for Inactive)
REMARK    1  A    between atoms: C_1  and  C_2
REMARK    2  A    between atoms: C_4  and  C_5
REMARK    3  A    between atoms: C_8  and  C_10
REMARK    4  A    between atoms: C_10  and  N_11
REMARK    5  A    between atoms: C_10  and  C_12
REMARK    6  A    between atoms: C_12  and  C_13
REMARK    7  A    between atoms: N_18  and  C_19
REMARK    8  A    between atoms: C_19  and  C_20
REMARK    9  A    between atoms: C_19  and  C_27
REMARK                            x       y       z     vdW  Elec       q    Type
REMARK                         _______ _______ _______ _____ _____    ______ ____
ROOT
ATOM      1  C   UNL     1       2.382   7.883  18.782  0.00  0.00    +0.000 C 
ATOM      2  O   UNL     1       2.975   8.119  17.730  0.00  0.00    +0.000 OA
ATOM      3  N   UNL     1       1.577   8.841  19.385  0.00  0.00    +0.000 N 
ATOM      4  C   UNL     1       1.437  10.156  18.747  0.00  0.00    +0.000 C 
ATOM      5  C   UNL     1      -0.005  10.697  18.887  0.00  0.00    +0.000 C 
ATOM      6  N   UNL     1      -0.553  10.700  20.276  0.00  0.00    +0.000 NA
ATOM      7  C   UNL     1      -0.382   9.331  20.811  0.00  0.00    +0.000 C 
ATOM      8  C   UNL     1       1.046   8.776  20.748  0.00  0.00    +0.000 C 
ENDROOT
BRANCH   1   9
ATOM      9  C   UNL     1       2.404   6.485  19.387  0.00  0.00    +0.000 C 
BRANCH   9  10
ATOM     10  C   UNL     1       3.045   5.408  18.510  0.00  0.00    +0.000 C 
BRANCH  10  16
ATOM     11  C   UNL     1       5.937   3.975  14.050  0.00  0.00    +0.000 C 
ATOM     12  C   UNL     1       6.045   3.904  15.564  0.00  0.00    +0.000 C 
ATOM     13  C   UNL     1       7.196   4.741  16.117  0.00  0.00    +0.000 C 
ATOM     14  C   UNL     1       6.784   5.001  17.570  0.00  0.00    +0.000 C 
ATOM     15  N   UNL     1       5.324   5.094  17.494  0.00  0.00    +0.000 N 
ATOM     16  C   UNL     1       4.585   5.281  18.648  0.00  0.00    +0.000 C 
ATOM     17  O   UNL     1       5.132   5.294  19.752  0.00  0.00    +0.000 OA
ATOM     18  C   UNL     1       4.816   4.471  16.278  0.00  0.00    +0.000 C 
BRANCH  14  19
ATOM     19  C   UNL     1       7.461   6.214  18.071  0.00  0.00    +0.000 C 
ATOM     20  N   UNL     1       8.063   7.124  18.470  0.00  0.00    +0.000 NA
ENDBRANCH  14  19
ENDBRANCH  10  16
BRANCH  10  21
ATOM     21  N   UNL     1       2.400   4.093  18.734  0.00  0.00    +0.000 NA
ATOM     22  H   UNL     1       3.154   3.456  19.029  0.00  0.00    +0.000 HD
ATOM     23  H   UNL     1       2.133   3.715  17.824  0.00  0.00    +0.000 HD
ENDBRANCH  10  21
ENDBRANCH   9  10
ENDBRANCH   1   9
BRANCH   6  24
ATOM     24  C   UNL     1       0.071  11.767  21.116  0.00  0.00    +0.000 C 
BRANCH  24  25
ATOM     25  C   UNL     1       0.687  12.865  20.235  0.00  0.00    +0.000 A 
ATOM     26  C   UNL     1       2.068  13.123  20.265  0.00  0.00    +0.000 A 
ATOM     27  C   UNL     1       2.627  14.126  19.475  0.00  0.00    +0.000 A 
ATOM     28  C   UNL     1       1.801  14.884  18.656  0.00  0.00    +0.000 A 
ATOM     29  F   UNL     1       2.334  15.852  17.901  0.00  0.00    +0.000 F 
ATOM     30  C   UNL     1       0.430  14.658  18.613  0.00  0.00    +0.000 A 
ATOM     31  C   UNL     1      -0.129  13.648  19.394  0.00  0.00    +0.000 A 
ENDBRANCH  24  25
BRANCH  24  32
ATOM     32  C   UNL     1      -0.859  12.405  22.164  0.00  0.00    +0.000 A 
ATOM     33  C   UNL     1      -2.028  11.722  22.557  0.00  0.00    +0.000 A 
ATOM     34  C   UNL     1      -2.910  12.287  23.481  0.00  0.00    +0.000 A 
ATOM     35  C   UNL     1      -2.628  13.534  24.024  0.00  0.00    +0.000 A 
ATOM     36  F   UNL     1      -3.491  14.089  24.885  0.00  0.00    +0.000 F 
ATOM     37  C   UNL     1      -1.466  14.213  23.685  0.00  0.00    +0.000 A 
ATOM     38  C   UNL     1      -0.575  13.642  22.775  0.00  0.00    +0.000 A 
ENDBRANCH  24  32
ENDBRANCH   6  24
TORSDOF 8
ENDMDL
MODEL 3
REMARK VINA RESULT:      -7.9      2.495      4.154
REMARK  Name = 
REMARK  9 active torsions:
REMARK  status: ('A' for Active; 'I' for Inactive)
REMARK    1  A    between atoms: C_1  and  C_2
REMARK    2  A    between atoms: C_4  and  C_5
REMARK    3  A    between atoms: C_8  and  C_10
REMARK    4  A    between atoms: C_10  and  N_11
REMARK    5  A    between atoms: C_10  and  C_12
REMARK    6  A    between atoms: C_12  and  C_13
REMARK    7  A    between atoms: N_18  and  C_19
REMARK    8  A    between atoms: C_19  and  C_20
REMARK    9  A    between atoms: C_19  and  C_27
REMARK                            x       y       z     vdW  Elec       q    Type
REMARK                         _______ _______ _______ _____ _____    ______ ____
ROOT
ATOM      1  C   UNL     1       2.182   8.364  18.500  0.00  0.00    +0.000 C 
ATOM      2  O   UNL     1       2.776   8.643  17.459  0.00  0.00    +0.000 OA
ATOM      3  N   UNL     1       1.371   9.295  19.137  0.00  0.00    +0.000 N 
ATOM      4  C   UNL     1       1.225  10.632  18.549  0.00  0.00    +0.000 C 
ATOM      5  C   UNL     1      -0.220  11.160  18.705  0.00  0.00    +0.000 C 
ATOM      6  N   UNL     1      -0.771  11.108  20.093  0.00  0.00    +0.000 NA
ATOM      7  C   UNL     1      -0.593   9.720  20.576  0.00  0.00    +0.000 C 
ATOM      8  C   UNL     1       0.838   9.176  20.495  0.00  0.00    +0.000 C 
ENDROOT
BRANCH   1   9
ATOM      9  C   UNL     1       2.211   6.945  19.052  0.00  0.00    +0.000 C 
BRANCH   9  10
ATOM     10  C   UNL     1       2.768   5.888  18.097  0.00  0.00    +0.000 C 
BRANCH  10  16
ATOM     11  C   UNL     1       6.680   4.850  14.365  0.00  0.00    +0.000 C 
ATOM     12  C   UNL     1       6.196   4.319  15.704  0.00  0.00    +0.000 C 
ATOM     13  C   UNL     1       7.222   4.500  16.820  0.00  0.00    +0.000 C 
ATOM     14  C   UNL     1       6.374   4.465  18.096  0.00  0.00    +0.000 C 
ATOM     15  N   UNL     1       5.115   5.088  17.679  0.00  0.00    +0.000 N 
ATOM     16  C   UNL     1       4.067   5.190  18.576  0.00  0.00    +0.000 C 
ATOM     17  O   UNL     1       4.149   4.694  19.701  0.00  0.00    +0.000 OA
ATOM     18  C   UNL     1       4.963   5.057  16.230  0.00  0.00    +0.000 C 
BRANCH  14  19
ATOM     19  C   UNL     1       7.084   5.164  19.185  0.00  0.00    +0.000 C 
ATOM     20  N   UNL     1       7.704   5.658  20.035  0.00  0.00    +0.000 NA
ENDBRANCH  14  19
ENDBRANCH  10  16
BRANCH  10  21
ATOM     21  N   UNL     1       1.734   4.878  17.769  0.00  0.00    +0.000 NA
ATOM     22  H   UNL     1       1.020   4.954  18.507  0.00  0.00    +0.000 HD
ATOM     23  H   UNL     1       2.133   3.953  17.939  0.00  0.00    +0.000 HD
ENDBRANCH  10  21
ENDBRANCH   9  10
ENDBRANCH   1   9
BRANCH   6  24
ATOM     24  C   UNL     1      -0.154  12.146  20.973  0.00  0.00    +0.000 C 
BRANCH  24  25
ATOM     25  C   UNL     1       0.385  13.318  20.140  0.00  0.00    +0.000 A 
ATOM     26  C   UNL     1       1.760  13.606  20.107  0.00  0.00    +0.000 A 
ATOM     27  C   UNL     1       2.250  14.677  19.360  0.00  0.00    +0.000 A 
ATOM     28  C   UNL     1       1.362  15.471  18.649  0.00  0.00    +0.000 A 
ATOM     29  F   UNL     1       1.829  16.503  17.936  0.00  0.00    +0.000 F 
ATOM     30  C   UNL     1      -0.005  15.216  18.671  0.00  0.00    +0.000 A 
ATOM     31  C   UNL     1      -0.495  14.139  19.408  0.00  0.00    +0.000 A 
ENDBRANCH  24  25
BRANCH  24  32
ATOM     32  C   UNL     1      -1.066  12.682  22.093  0.00  0.00    +0.000 A 
ATOM     33  C   UNL     1      -0.655  13.803  22.840  0.00  0.00    +0.000 A 
ATOM     34  C   UNL     1      -1.443  14.294  23.884  0.00  0.00    +0.000 A 
ATOM     35  C   UNL     1      -2.647  13.673  24.185  0.00  0.00    +0.000 A 
ATOM     36  F   UNL     1      -3.386  14.124  25.208  0.00  0.00    +0.000 F 
ATOM     37  C   UNL     1      -3.096  12.590  23.443  0.00  0.00    +0.000 A 
ATOM     38  C   UNL     1      -2.318  12.108  22.387  0.00  0.00    +0.000 A 
ENDBRANCH  24  32
ENDBRANCH   6  24
TORSDOF 8
ENDMDL
MODEL 4
REMARK VINA RESULT:      -7.6      1.408      1.483
REMARK  Name = 
REMARK  9 active torsions:
REMARK  status: ('A' for Active; 'I' for Inactive)
REMARK    1  A    between atoms: C_1  and  C_2
REMARK    2  A    between atoms: C_4  and  C_5
REMARK    3  A    between atoms: C_8  and  C_10
REMARK    4  A    between atoms: C_10  and  N_11
REMARK    5  A    between atoms: C_10  and  C_12
REMARK    6  A    between atoms: C_12  and  C_13
REMARK    7  A    between atoms: N_18  and  C_19
REMARK    8  A    between atoms: C_19  and  C_20
REMARK    9  A    between atoms: C_19  and  C_27
REMARK                            x       y       z     vdW  Elec       q    Type
REMARK                         _______ _______ _______ _____ _____    ______ ____
ROOT
ATOM      1  C   UNL     1       2.112   6.718  19.711  0.00  0.00    +0.000 C 
ATOM      2  O   UNL     1       2.208   5.848  20.575  0.00  0.00    +0.000 OA
ATOM      3  N   UNL     1       1.554   7.958  19.998  0.00  0.00    +0.000 N 
ATOM      4  C   UNL     1       1.075   8.225  21.359  0.00  0.00    +0.000 C 
ATOM      5  C   UNL     1       1.371   9.682  21.784  0.00  0.00    +0.000 C 
ATOM      6  N   UNL     1       0.911  10.731  20.825  0.00  0.00    +0.000 NA
ATOM      7  C   UNL     1       1.466  10.378  19.499  0.00  0.00    +0.000 C 
ATOM      8  C   UNL     1       1.145   8.959  19.011  0.00  0.00    +0.000 C 
ENDROOT
BRANCH   1   9
ATOM      9  C   UNL     1       2.725   6.512  18.331  0.00  0.00    +0.000 C 
BRANCH   9  10
ATOM     10  C   UNL     1       3.106   5.069  18.000  0.00  0.00    +0.000 C 
BRANCH  10  16
ATOM     11  C   UNL     1       6.511   4.474  13.713  0.00  0.00    +0.000 C 
ATOM     12  C   UNL     1       6.370   3.993  15.148  0.00  0.00    +0.000 C 
ATOM     13  C   UNL     1       7.496   4.487  16.053  0.00  0.00    +0.000 C 
ATOM     14  C   UNL     1       6.888   4.410  17.457  0.00  0.00    +0.000 C 
ATOM     15  N   UNL     1       5.475   4.721  17.228  0.00  0.00    +0.000 N 
ATOM     16  C   UNL     1       4.585   4.699  18.287  0.00  0.00    +0.000 C 
ATOM     17  O   UNL     1       4.949   4.344  19.410  0.00  0.00    +0.000 OA
ATOM     18  C   UNL     1       5.106   4.516  15.833  0.00  0.00    +0.000 C 
BRANCH  14  19
ATOM     19  C   UNL     1       7.594   5.342  18.358  0.00  0.00    +0.000 C 
ATOM     20  N   UNL     1       8.075   6.105  19.092  0.00  0.00    +0.000 NA
ENDBRANCH  14  19
ENDBRANCH  10  16
BRANCH  10  21
ATOM     21  N   UNL     1       2.198   4.114  18.677  0.00  0.00    +0.000 NA
ATOM     22  H   UNL     1       2.754   3.262  18.838  0.00  0.00    +0.000 HD
ATOM     23  H   UNL     1       1.504   3.803  17.996  0.00  0.00    +0.000 HD
ENDBRANCH  10  21
ENDBRANCH   9  10
ENDBRANCH   1   9
BRANCH   6  24
ATOM     24  C   UNL     1      -0.575  10.886  20.845  0.00  0.00    +0.000 C 
BRANCH  24  25
ATOM     25  C   UNL     1      -0.990  12.055  21.749  0.00  0.00    +0.000 A 
ATOM     26  C   UNL     1      -2.217  12.036  22.436  0.00  0.00    +0.000 A 
ATOM     27  C   UNL     1      -2.600  13.102  23.249  0.00  0.00    +0.000 A 
ATOM     28  C   UNL     1      -1.758  14.200  23.370  0.00  0.00    +0.000 A 
ATOM     29  F   UNL     1      -2.127  15.226  24.145  0.00  0.00    +0.000 F 
ATOM     30  C   UNL     1      -0.544  14.251  22.695  0.00  0.00    +0.000 A 
ATOM     31  C   UNL     1      -0.155  13.181  21.891  0.00  0.00    +0.000 A 
ENDBRANCH  24  25
BRANCH  24  32
ATOM     32  C   UNL     1      -1.237  11.039  19.463  0.00  0.00    +0.000 A 
ATOM     33  C   UNL     1      -2.098  10.027  18.994  0.00  0.00    +0.000 A 
ATOM     34  C   UNL     1      -2.689  10.119  17.731  0.00  0.00    +0.000 A 
ATOM     35  C   UNL     1      -2.429  11.223  16.931  0.00  0.00    +0.000 A 
ATOM     36  F   UNL     1      -2.969  11.295  15.708  0.00  0.00    +0.000 F 
ATOM     37  C   UNL     1      -1.616  12.254  17.381  0.00  0.00    +0.000 A 
ATOM     38  C   UNL     1      -1.038  12.172  18.650  0.00  0.00    +0.000 A 
ENDBRANCH  24  32
ENDBRANCH   6  24
TORSDOF 8
ENDMDL
MODEL 5
REMARK VINA RESULT:      -7.6      4.157     10.664
REMARK  Name = 
REMARK  9 active torsions:
REMARK  status: ('A' for Active; 'I' for Inactive)
REMARK    1  A    between atoms: C_1  and  C_2
REMARK    2  A    between atoms: C_4  and  C_5
REMARK    3  A    between atoms: C_8  and  C_10
REMARK    4  A    between atoms: C_10  and  N_11
REMARK    5  A    between atoms: C_10  and  C_12
REMARK    6  A    between atoms: C_12  and  C_13
REMARK    7  A    between atoms: N_18  and  C_19
REMARK    8  A    between atoms: C_19  and  C_20
REMARK    9  A    between atoms: C_19  and  C_27
REMARK                            x       y       z     vdW  Elec       q    Type
REMARK                         _______ _______ _______ _____ _____    ______ ____
ROOT
ATOM      1  C   UNL     1      -0.268  10.290  19.031  0.00  0.00    +0.000 C 
ATOM      2  O   UNL     1      -0.464  11.011  18.054  0.00  0.00    +0.000 OA
ATOM      3  N   UNL     1       0.640   9.239  18.978  0.00  0.00    +0.000 N 
ATOM      4  C   UNL     1       1.373   8.994  17.731  0.00  0.00    +0.000 C 
ATOM      5  C   UNL     1       2.831   8.560  18.012  0.00  0.00    +0.000 C 
ATOM      6  N   UNL     1       2.984   7.425  18.970  0.00  0.00    +0.000 NA
ATOM      7  C   UNL     1       2.229   7.785  20.191  0.00  0.00    +0.000 C 
ATOM      8  C   UNL     1       0.760   8.165  19.965  0.00  0.00    +0.000 C 
ENDROOT
BRANCH   1   9
ATOM      9  C   UNL     1      -0.916  10.609  20.372  0.00  0.00    +0.000 C 
BRANCH   9  10
ATOM     10  C   UNL     1      -0.385  11.862  21.067  0.00  0.00    +0.000 C 
BRANCH  10  16
ATOM     11  C   UNL     1      -2.925  16.743  21.287  0.00  0.00    +0.000 C 
ATOM     12  C   UNL     1      -2.295  15.730  22.228  0.00  0.00    +0.000 C 
ATOM     13  C   UNL     1      -3.306  15.091  23.176  0.00  0.00    +0.000 C 
ATOM     14  C   UNL     1      -2.637  13.772  23.580  0.00  0.00    +0.000 C 
ATOM     15  N   UNL     1      -1.900  13.388  22.374  0.00  0.00    +0.000 N 
ATOM     16  C   UNL     1      -1.119  12.246  22.379  0.00  0.00    +0.000 C 
ATOM     17  O   UNL     1      -0.973  11.587  23.410  0.00  0.00    +0.000 OA
ATOM     18  C   UNL     1      -1.686  14.531  21.495  0.00  0.00    +0.000 C 
BRANCH  14  19
ATOM     19  C   UNL     1      -3.664  12.806  24.017  0.00  0.00    +0.000 C 
ATOM     20  N   UNL     1      -4.439  12.049  24.437  0.00  0.00    +0.000 NA
ENDBRANCH  14  19
ENDBRANCH  10  16
BRANCH  10  21
ATOM     21  N   UNL     1       1.073  11.755  21.309  0.00  0.00    +0.000 NA
ATOM     22  H   UNL     1       1.526  12.204  20.500  0.00  0.00    +0.000 HD
ATOM     23  H   UNL     1       1.339  10.776  21.198  0.00  0.00    +0.000 HD
ENDBRANCH  10  21
ENDBRANCH   9  10
ENDBRANCH   1   9
BRANCH   6  24
ATOM     24  C   UNL     1       2.574   6.125  18.359  0.00  0.00    +0.000 C 
BRANCH  24  25
ATOM     25  C   UNL     1       3.682   5.577  17.447  0.00  0.00    +0.000 A 
ATOM     26  C   UNL     1       4.557   6.446  16.773  0.00  0.00    +0.000 A 
ATOM     27  C   UNL     1       5.556   5.950  15.936  0.00  0.00    +0.000 A 
ATOM     28  C   UNL     1       5.677   4.578  15.762  0.00  0.00    +0.000 A 
ATOM     29  F   UNL     1       6.631   4.100  14.955  0.00  0.00    +0.000 F 
ATOM     30  C   UNL     1       4.819   3.695  16.408  0.00  0.00    +0.000 A 
ATOM     31  C   UNL     1       3.827   4.189  17.254  0.00  0.00    +0.000 A 
ENDBRANCH  24  25
BRANCH  24  32
ATOM     32  C   UNL     1       2.141   5.037  19.358  0.00  0.00    +0.000 A 
ATOM     33  C   UNL     1       2.791   4.945  20.605  0.00  0.00    +0.000 A 
ATOM     34  C   UNL     1       2.444   3.950  21.521  0.00  0.00    +0.000 A 
ATOM     35  C   UNL     1       1.443   3.043  21.202  0.00  0.00    +0.000 A 
ATOM     36  F   UNL     1       1.134   2.068  22.068  0.00  0.00    +0.000 F 
ATOM     37  C   UNL     1       0.758   3.131  19.998  0.00  0.00    +0.000 A 
ATOM     38  C   UNL     1       1.091   4.137  19.088  0.00  0.00    +0.000 A 
ENDBRANCH  24  32
ENDBRANCH   6  24
TORSDOF 8
ENDMDL
MODEL 6
REMARK VINA RESULT:      -7.5      4.132     10.687
REMARK  Name = 
REMARK  9 active torsions:
REMARK  status: ('A' for Active; 'I' for Inactive)
REMARK    1  A    between atoms: C_1  and  C_2
REMARK    2  A    between atoms: C_4  and  C_5
REMARK    3  A    between atoms: C_8  and  C_10
REMARK    4  A    between atoms: C_10  and  N_11
REMARK    5  A    between atoms: C_10  and  C_12
REMARK    6  A    between atoms: C_12  and  C_13
REMARK    7  A    between atoms: N_18  and  C_19
REMARK    8  A    between atoms: C_19  and  C_20
REMARK    9  A    between atoms: C_19  and  C_27
REMARK                            x       y       z     vdW  Elec       q    Type
REMARK                         _______ _______ _______ _____ _____    ______ ____
ROOT
ATOM      1  C   UNL     1      -0.248  10.159  19.155  0.00  0.00    +0.000 C 
ATOM      2  O   UNL     1      -0.529  10.871  18.192  0.00  0.00    +0.000 OA
ATOM      3  N   UNL     1       0.683   9.133  19.044  0.00  0.00    +0.000 N 
ATOM      4  C   UNL     1       1.337   8.904  17.750  0.00  0.00    +0.000 C 
ATOM      5  C   UNL     1       2.822   8.511  17.934  0.00  0.00    +0.000 C 
ATOM      6  N   UNL     1       3.070   7.384  18.882  0.00  0.00    +0.000 NA
ATOM      7  C   UNL     1       2.389   7.728  20.150  0.00  0.00    +0.000 C 
ATOM      8  C   UNL     1       0.899   8.067  20.023  0.00  0.00    +0.000 C 
ENDROOT
BRANCH   1   9
ATOM      9  C   UNL     1      -0.812  10.465  20.536  0.00  0.00    +0.000 C 
BRANCH   9  10
ATOM     10  C   UNL     1      -0.462  11.847  21.089  0.00  0.00    +0.000 C 
BRANCH  10  16
ATOM     11  C   UNL     1      -2.927  16.759  21.431  0.00  0.00    +0.000 C 
ATOM     12  C   UNL     1      -2.294  15.722  22.344  0.00  0.00    +0.000 C 
ATOM     13  C   UNL     1      -3.298  15.082  23.300  0.00  0.00    +0.000 C 
ATOM     14  C   UNL     1      -2.641  13.748  23.671  0.00  0.00    +0.000 C 
ATOM     15  N   UNL     1      -1.931  13.372  22.446  0.00  0.00    +0.000 N 
ATOM     16  C   UNL     1      -1.167  12.220  22.420  0.00  0.00    +0.000 C 
ATOM     17  O   UNL     1      -1.011  11.542  23.437  0.00  0.00    +0.000 OA
ATOM     18  C   UNL     1      -1.717  14.527  21.582  0.00  0.00    +0.000 C 
BRANCH  14  19
ATOM     19  C   UNL     1      -3.673  12.790  24.112  0.00  0.00    +0.000 C 
ATOM     20  N   UNL     1      -4.543  12.094  24.443  0.00  0.00    +0.000 NA
ENDBRANCH  14  19
ENDBRANCH  10  16
BRANCH  10  21
ATOM     21  N   UNL     1       1.006  12.004  21.225  0.00  0.00    +0.000 NA
ATOM     22  H   UNL     1       1.239  12.887  20.748  0.00  0.00    +0.000 HD
ATOM     23  H   UNL     1       1.453  11.305  20.631  0.00  0.00    +0.000 HD
ENDBRANCH  10  21
ENDBRANCH   9  10
ENDBRANCH   1   9
BRANCH   6  24
ATOM     24  C   UNL     1       2.657   6.071  18.302  0.00  0.00    +0.000 C 
BRANCH  24  25
ATOM     25  C   UNL     1       3.750   5.512  17.379  0.00  0.00    +0.000 A 
ATOM     26  C   UNL     1       3.863   4.130  17.150  0.00  0.00    +0.000 A 
ATOM     27  C   UNL     1       4.862   3.621  16.321  0.00  0.00    +0.000 A 
ATOM     28  C   UNL     1       5.760   4.495  15.724  0.00  0.00    +0.000 A 
ATOM     29  F   UNL     1       6.723   4.008  14.933  0.00  0.00    +0.000 F 
ATOM     30  C   UNL     1       5.679   5.866  15.941  0.00  0.00    +0.000 A 
ATOM     31  C   UNL     1       4.673   6.378  16.760  0.00  0.00    +0.000 A 
ENDBRANCH  24  25
BRANCH  24  32
ATOM     32  C   UNL     1       2.248   4.999  19.330  0.00  0.00    +0.000 A 
ATOM     33  C   UNL     1       1.120   4.194  19.077  0.00  0.00    +0.000 A 
ATOM     34  C   UNL     1       0.703   3.236  20.004  0.00  0.00    +0.000 A 
ATOM     35  C   UNL     1       1.412   3.070  21.186  0.00  0.00    +0.000 A 
ATOM     36  F   UNL     1       0.992   2.174  22.088  0.00  0.00    +0.000 F 
ATOM     37  C   UNL     1       2.549   3.822  21.445  0.00  0.00    +0.000 A 
ATOM     38  C   UNL     1       2.978   4.769  20.512  0.00  0.00    +0.000 A 
ENDBRANCH  24  32
ENDBRANCH   6  24
TORSDOF 8
ENDMDL
MODEL 7
REMARK VINA RESULT:      -7.5      2.594      3.754
REMARK  Name = 
REMARK  9 active torsions:
REMARK  status: ('A' for Active; 'I' for Inactive)
REMARK    1  A    between atoms: C_1  and  C_2
REMARK    2  A    between atoms: C_4  and  C_5
REMARK    3  A    between atoms: C_8  and  C_10
REMARK    4  A    between atoms: C_10  and  N_11
REMARK    5  A    between atoms: C_10  and  C_12
REMARK    6  A    between atoms: C_12  and  C_13
REMARK    7  A    between atoms: N_18  and  C_19
REMARK    8  A    between atoms: C_19  and  C_20
REMARK    9  A    between atoms: C_19  and  C_27
REMARK                            x       y       z     vdW  Elec       q    Type
REMARK                         _______ _______ _______ _____ _____    ______ ____
ROOT
ATOM      1  C   UNL     1       2.626   7.626  18.251  0.00  0.00    +0.000 C 
ATOM      2  O   UNL     1       3.699   7.720  17.656  0.00  0.00    +0.000 OA
ATOM      3  N   UNL     1       1.911   8.756  18.628  0.00  0.00    +0.000 N 
ATOM      4  C   UNL     1       2.453  10.081  18.305  0.00  0.00    +0.000 C 
ATOM      5  C   UNL     1       1.329  11.065  17.903  0.00  0.00    +0.000 C 
ATOM      6  N   UNL     1       0.190  11.158  18.865  0.00  0.00    +0.000 NA
ATOM      7  C   UNL     1      -0.290   9.777  19.101  0.00  0.00    +0.000 C 
ATOM      8  C   UNL     1       0.782   8.781  19.559  0.00  0.00    +0.000 C 
ENDROOT
BRANCH   1   9
ATOM      9  C   UNL     1       1.981   6.264  18.476  0.00  0.00    +0.000 C 
BRANCH   9  10
ATOM     10  C   UNL     1       2.609   5.111  17.693  0.00  0.00    +0.000 C 
BRANCH  10  16
ATOM     11  C   UNL     1       6.828   4.795  14.168  0.00  0.00    +0.000 C 
ATOM     12  C   UNL     1       6.366   4.164  15.471  0.00  0.00    +0.000 C 
ATOM     13  C   UNL     1       7.289   4.480  16.645  0.00  0.00    +0.000 C 
ATOM     14  C   UNL     1       6.392   4.282  17.871  0.00  0.00    +0.000 C 
ATOM     15  N   UNL     1       5.073   4.705  17.394  0.00  0.00    +0.000 N 
ATOM     16  C   UNL     1       3.977   4.619  18.233  0.00  0.00    +0.000 C 
ATOM     17  O   UNL     1       4.079   4.116  19.354  0.00  0.00    +0.000 OA
ATOM     18  C   UNL     1       5.004   4.684  15.938  0.00  0.00    +0.000 C 
BRANCH  14  19
ATOM     19  C   UNL     1       6.923   5.061  19.008  0.00  0.00    +0.000 C 
ATOM     20  N   UNL     1       7.296   5.624  19.953  0.00  0.00    +0.000 NA
ENDBRANCH  14  19
ENDBRANCH  10  16
BRANCH  10  21
ATOM     21  N   UNL     1       1.664   3.975  17.577  0.00  0.00    +0.000 NA
ATOM     22  H   UNL     1       0.818   4.356  17.131  0.00  0.00    +0.000 HD
ATOM     23  H   UNL     1       1.336   3.743  18.516  0.00  0.00    +0.000 HD
ENDBRANCH  10  21
ENDBRANCH   9  10
ENDBRANCH   1   9
BRANCH   6  24
ATOM     24  C   UNL     1       0.573  11.894  20.107  0.00  0.00    +0.000 C 
BRANCH  24  25
ATOM     25  C   UNL     1       1.038  13.319  19.776  0.00  0.00    +0.000 A 
ATOM     26  C   UNL     1       2.260  13.810  20.265  0.00  0.00    +0.000 A 
ATOM     27  C   UNL     1       2.679  15.108  19.975  0.00  0.00    +0.000 A 
ATOM     28  C   UNL     1       1.868  15.926  19.199  0.00  0.00    +0.000 A 
ATOM     29  F   UNL     1       2.265  17.174  18.924  0.00  0.00    +0.000 F 
ATOM     30  C   UNL     1       0.649  15.470  18.710  0.00  0.00    +0.000 A 
ATOM     31  C   UNL     1       0.234  14.169  18.990  0.00  0.00    +0.000 A 
ENDBRANCH  24  25
BRANCH  24  32
ATOM     32  C   UNL     1      -0.511  11.942  21.200  0.00  0.00    +0.000 A 
ATOM     33  C   UNL     1      -0.416  11.073  22.305  0.00  0.00    +0.000 A 
ATOM     34  C   UNL     1      -1.399  11.068  23.298  0.00  0.00    +0.000 A 
ATOM     35  C   UNL     1      -2.479  11.935  23.198  0.00  0.00    +0.000 A 
ATOM     36  F   UNL     1      -3.438  11.907  24.132  0.00  0.00    +0.000 F 
ATOM     37  C   UNL     1      -2.580  12.829  22.141  0.00  0.00    +0.000 A 
ATOM     38  C   UNL     1      -1.589  12.847  21.156  0.00  0.00    +0.000 A 
ENDBRANCH  24  32
ENDBRANCH   6  24
TORSDOF 8
ENDMDL
MODEL 8
REMARK VINA RESULT:      -7.4      1.490      1.755
REMARK  Name = 
REMARK  9 active torsions:
REMARK  status: ('A' for Active; 'I' for Inactive)
REMARK    1  A    between atoms: C_1  and  C_2
REMARK    2  A    between atoms: C_4  and  C_5
REMARK    3  A    between atoms: C_8  and  C_10
REMARK    4  A    between atoms: C_10  and  N_11
REMARK    5  A    between atoms: C_10  and  C_12
REMARK    6  A    between atoms: C_12  and  C_13
REMARK    7  A    between atoms: N_18  and  C_19
REMARK    8  A    between atoms: C_19  and  C_20
REMARK    9  A    between atoms: C_19  and  C_27
REMARK                            x       y       z     vdW  Elec       q    Type
REMARK                         _______ _______ _______ _____ _____    ______ ____
ROOT
ATOM      1  C   UNL     1       2.028   6.530  20.072  0.00  0.00    +0.000 C 
ATOM      2  O   UNL     1       2.061   5.704  20.983  0.00  0.00    +0.000 OA
ATOM      3  N   UNL     1       1.493   7.798  20.269  0.00  0.00    +0.000 N 
ATOM      4  C   UNL     1       0.962   8.147  21.592  0.00  0.00    +0.000 C 
ATOM      5  C   UNL     1       1.280   9.617  21.954  0.00  0.00    +0.000 C 
ATOM      6  N   UNL     1       0.891  10.626  20.922  0.00  0.00    +0.000 NA
ATOM      7  C   UNL     1       1.495  10.189  19.643  0.00  0.00    +0.000 C 
ATOM      8  C   UNL     1       1.156   8.756  19.215  0.00  0.00    +0.000 C 
ENDROOT
BRANCH   1   9
ATOM      9  C   UNL     1       2.695   6.236  18.734  0.00  0.00    +0.000 C 
BRANCH   9  10
ATOM     10  C   UNL     1       3.541   4.963  18.696  0.00  0.00    +0.000 C 
BRANCH  10  16
ATOM     11  C   UNL     1       5.877   3.897  13.826  0.00  0.00    +0.000 C 
ATOM     12  C   UNL     1       6.257   3.961  15.295  0.00  0.00    +0.000 C 
ATOM     13  C   UNL     1       7.258   5.071  15.603  0.00  0.00    +0.000 C 
ATOM     14  C   UNL     1       7.054   5.336  17.098  0.00  0.00    +0.000 C 
ATOM     15  N   UNL     1       5.621   5.095  17.288  0.00  0.00    +0.000 N 
ATOM     16  C   UNL     1       5.068   5.194  18.552  0.00  0.00    +0.000 C 
ATOM     17  O   UNL     1       5.778   5.407  19.537  0.00  0.00    +0.000 OA
ATOM     18  C   UNL     1       5.071   4.288  16.206  0.00  0.00    +0.000 C 
BRANCH  14  19
ATOM     19  C   UNL     1       7.505   6.702  17.429  0.00  0.00    +0.000 C 
ATOM     20  N   UNL     1       7.784   7.792  17.720  0.00  0.00    +0.000 NA
ENDBRANCH  14  19
ENDBRANCH  10  16
BRANCH  10  21
ATOM     21  N   UNL     1       3.261   4.108  19.874  0.00  0.00    +0.000 NA
ATOM     22  H   UNL     1       3.971   3.363  19.857  0.00  0.00    +0.000 HD
ATOM     23  H   UNL     1       2.396   3.597  19.693  0.00  0.00    +0.000 HD
ENDBRANCH  10  21
ENDBRANCH   9  10
ENDBRANCH   1   9
BRANCH   6  24
ATOM     24  C   UNL     1      -0.589  10.819  20.867  0.00  0.00    +0.000 C 
BRANCH  24  25
ATOM     25  C   UNL     1      -1.013  12.033  21.707  0.00  0.00    +0.000 A 
ATOM     26  C   UNL     1      -2.295  12.102  22.278  0.00  0.00    +0.000 A 
ATOM     27  C   UNL     1      -2.685  13.208  23.032  0.00  0.00    +0.000 A 
ATOM     28  C   UNL     1      -1.793  14.258  23.209  0.00  0.00    +0.000 A 
ATOM     29  F   UNL     1      -2.168  15.323  23.927  0.00  0.00    +0.000 F 
ATOM     30  C   UNL     1      -0.522  14.221  22.647  0.00  0.00    +0.000 A 
ATOM     31  C   UNL     1      -0.127  13.111  21.903  0.00  0.00    +0.000 A 
ENDBRANCH  24  25
BRANCH  24  32
ATOM     32  C   UNL     1      -1.182  10.936  19.451  0.00  0.00    +0.000 A 
ATOM     33  C   UNL     1      -0.931  12.095  18.690  0.00  0.00    +0.000 A 
ATOM     34  C   UNL     1      -1.481  12.247  17.415  0.00  0.00    +0.000 A 
ATOM     35  C   UNL     1      -2.281  11.241  16.889  0.00  0.00    +0.000 A 
ATOM     36  F   UNL     1      -2.835  11.402  15.680  0.00  0.00    +0.000 F 
ATOM     37  C   UNL     1      -2.515  10.072  17.599  0.00  0.00    +0.000 A 
ATOM     38  C   UNL     1      -1.952   9.911  18.867  0.00  0.00    +0.000 A 
ENDBRANCH  24  32
ENDBRANCH   6  24
TORSDOF 8
ENDMDL
MODEL 9
REMARK VINA RESULT:      -7.4      4.231      9.755
REMARK  Name = 
REMARK  9 active torsions:
REMARK  status: ('A' for Active; 'I' for Inactive)
REMARK    1  A    between atoms: C_1  and  C_2
REMARK    2  A    between atoms: C_4  and  C_5
REMARK    3  A    between atoms: C_8  and  C_10
REMARK    4  A    between atoms: C_10  and  N_11
REMARK    5  A    between atoms: C_10  and  C_12
REMARK    6  A    between atoms: C_12  and  C_13
REMARK    7  A    between atoms: N_18  and  C_19
REMARK    8  A    between atoms: C_19  and  C_20
REMARK    9  A    between atoms: C_19  and  C_27
REMARK                            x       y       z     vdW  Elec       q    Type
REMARK                         _______ _______ _______ _____ _____    ______ ____
ROOT
ATOM      1  C   UNL     1      -0.285  10.263  19.198  0.00  0.00    +0.000 C 
ATOM      2  O   UNL     1      -0.530  10.990  18.236  0.00  0.00    +0.000 OA
ATOM      3  N   UNL     1       0.628   9.220  19.097  0.00  0.00    +0.000 N 
ATOM      4  C   UNL     1       1.309   8.992  17.817  0.00  0.00    +0.000 C 
ATOM      5  C   UNL     1       2.781   8.570  18.031  0.00  0.00    +0.000 C 
ATOM      6  N   UNL     1       2.986   7.428  18.973  0.00  0.00    +0.000 NA
ATOM      7  C   UNL     1       2.282   7.772  20.228  0.00  0.00    +0.000 C 
ATOM      8  C   UNL     1       0.801   8.140  20.070  0.00  0.00    +0.000 C 
ENDROOT
BRANCH   1   9
ATOM      9  C   UNL     1      -0.877  10.565  20.569  0.00  0.00    +0.000 C 
BRANCH   9  10
ATOM     10  C   UNL     1       0.079  11.238  21.554  0.00  0.00    +0.000 C 
BRANCH  10  16
ATOM     11  C   UNL     1       3.461  14.119  18.300  0.00  0.00    +0.000 C 
ATOM     12  C   UNL     1       2.697  14.286  19.604  0.00  0.00    +0.000 C 
ATOM     13  C   UNL     1       1.608  15.353  19.521  0.00  0.00    +0.000 C 
ATOM     14  C   UNL     1       0.639  14.965  20.643  0.00  0.00    +0.000 C 
ATOM     15  N   UNL     1       0.715  13.502  20.660  0.00  0.00    +0.000 N 
ATOM     16  C   UNL     1      -0.007  12.786  21.599  0.00  0.00    +0.000 C 
ATOM     17  O   UNL     1      -0.654  13.366  22.473  0.00  0.00    +0.000 OA
ATOM     18  C   UNL     1       1.932  13.026  20.014  0.00  0.00    +0.000 C 
BRANCH  14  19
ATOM     19  C   UNL     1      -0.700  15.516  20.358  0.00  0.00    +0.000 C 
ATOM     20  N   UNL     1      -1.729  16.021  20.169  0.00  0.00    +0.000 NA
ENDBRANCH  14  19
ENDBRANCH  10  16
BRANCH  10  21
ATOM     21  N   UNL     1      -0.084  10.676  22.916  0.00  0.00    +0.000 NA
ATOM     22  H   UNL     1       0.629   9.939  23.004  0.00  0.00    +0.000 HD
ATOM     23  H   UNL     1      -0.957  10.147  22.934  0.00  0.00    +0.000 HD
ENDBRANCH  10  21
ENDBRANCH   9  10
ENDBRANCH   1   9
BRANCH   6  24
ATOM     24  C   UNL     1       2.561   6.129  18.369  0.00  0.00    +0.000 C 
BRANCH  24  25
ATOM     25  C   UNL     1       3.656   5.572  17.447  0.00  0.00    +0.000 A 
ATOM     26  C   UNL     1       3.755   4.192  17.199  0.00  0.00    +0.000 A 
ATOM     27  C   UNL     1       4.755   3.683  16.371  0.00  0.00    +0.000 A 
ATOM     28  C   UNL     1       5.668   4.556  15.794  0.00  0.00    +0.000 A 
ATOM     29  F   UNL     1       6.632   4.069  15.004  0.00  0.00    +0.000 F 
ATOM     30  C   UNL     1       5.600   5.924  16.030  0.00  0.00    +0.000 A 
ATOM     31  C   UNL     1       4.594   6.435  16.848  0.00  0.00    +0.000 A 
ENDBRANCH  24  25
BRANCH  24  32
ATOM     32  C   UNL     1       2.131   5.047  19.376  0.00  0.00    +0.000 A 
ATOM     33  C   UNL     1       2.813   4.936  20.604  0.00  0.00    +0.000 A 
ATOM     34  C   UNL     1       2.469   3.944  21.526  0.00  0.00    +0.000 A 
ATOM     35  C   UNL     1       1.439   3.062  21.232  0.00  0.00    +0.000 A 
ATOM     36  F   UNL     1       1.132   2.091  22.102  0.00  0.00    +0.000 F 
ATOM     37  C   UNL     1       0.724   3.170  20.047  0.00  0.00    +0.000 A 
ATOM     38  C   UNL     1       1.055   4.172  19.132  0.00  0.00    +0.000 A 
ENDBRANCH  24  32
ENDBRANCH   6  24
TORSDOF 8
ENDMDL
