MODEL 1
REMARK VINA RESULT:      -7.2      0.000      0.000
REMARK  Name = 
REMARK  10 active torsions:
REMARK  status: ('A' for Active; 'I' for Inactive)
REMARK    1  A    between atoms: C_1  and  C_2
REMARK    2  A    between atoms: C_2  and  O_3
REMARK    3  A    between atoms: O_3  and  C_4
REMARK    4  A    between atoms: C_7  and  C_8
REMARK    5  A    between atoms: C_8  and  C_10
REMARK    6  A    between atoms: C_10  and  N_11
REMARK    7  A    between atoms: C_14  and  C_15
REMARK    8  A    between atoms: N_17  and  C_18
REMARK    9  A    between atoms: C_18  and  C_19
REMARK   10  A    between atoms: C_19  and  O_20
REMARK                            x       y       z     vdW  Elec       q    Type
REMARK                         _______ _______ _______ _____ _____    ______ ____
ROOT
ATOM      1  N   UNL     1       4.845   5.292  18.234  0.00  0.00    +0.000 N 
ATOM      2  C   UNL     1       4.334   4.403  17.352  0.00  0.00    +0.000 A 
ATOM      3  C   UNL     1       4.902   4.252  16.094  0.00  0.00    +0.000 A 
ATOM      4  C   UNL     1       6.000   5.033  15.722  0.00  0.00    +0.000 A 
ATOM      5  C   UNL     1       6.464   5.993  16.621  0.00  0.00    +0.000 A 
ATOM      6  C   UNL     1       5.859   6.111  17.871  0.00  0.00    +0.000 A 
ENDROOT
BRANCH   4   7
ATOM      7  C   UNL     1       6.635   4.739  14.401  0.00  0.00    +0.000 C 
ATOM      8  O   UNL     1       7.654   5.348  14.080  0.00  0.00    +0.000 OA
ATOM      9  N   UNL     1       6.024   3.824  13.571  0.00  0.00    +0.000 N 
ATOM     10  H   UNL     1       5.282   3.215  13.890  0.00  0.00    +0.000 HD
BRANCH   9  11
ATOM     11  C   UNL     1       6.588   3.513  12.260  0.00  0.00    +0.000 C 
BRANCH  11  12
ATOM     12  C   UNL     1       5.927   2.295  11.609  0.00  0.00    +0.000 C 
BRANCH  12  13
ATOM     13  O   UNL     1       6.867   1.276  11.289  0.00  0.00    +0.000 OA
ATOM     14  H   UNL     1       7.253   1.488  10.416  0.00  0.00    +0.000 HD
ENDBRANCH  12  13
ENDBRANCH  11  12
ENDBRANCH   9  11
ENDBRANCH   4   7
BRANCH   1  15
ATOM     15  C   UNL     1       4.297   5.355  19.614  0.00  0.00    +0.000 C 
BRANCH  15  16
ATOM     16  C   UNL     1       2.815   5.604  19.585  0.00  0.00    +0.000 C 
ATOM     17  O   UNL     1       2.016   4.680  19.723  0.00  0.00    +0.000 OA
BRANCH  16  21
ATOM     18  C   UNL     1       1.228   9.551  18.981  0.00  0.00    +0.000 A 
ATOM     19  C   UNL     1       1.184   8.934  20.232  0.00  0.00    +0.000 A 
ATOM     20  C   UNL     1       1.730   7.663  20.415  0.00  0.00    +0.000 A 
ATOM     21  C   UNL     1       2.337   6.996  19.348  0.00  0.00    +0.000 A 
ATOM     22  C   UNL     1       2.439   7.636  18.105  0.00  0.00    +0.000 A 
ATOM     23  C   UNL     1       1.881   8.908  17.928  0.00  0.00    +0.000 A 
BRANCH  18  24
ATOM     24  O   UNL     1       0.656  10.755  18.674  0.00  0.00    +0.000 OA
BRANCH  24  26
ATOM     25  C   UNL     1      -1.444  11.524  19.578  0.00  0.00    +0.000 C 
ATOM     26  C   UNL     1      -0.762  10.740  18.480  0.00  0.00    +0.000 C 
ENDBRANCH  24  26
ENDBRANCH  18  24
ENDBRANCH  16  21
ENDBRANCH  15  16
ENDBRANCH   1  15
TORSDOF 9
ENDMDL
MODEL 2
REMARK VINA RESULT:      -7.0      0.892      1.366
REMARK  Name = 
REMARK  10 active torsions:
REMARK  status: ('A' for Active; 'I' for Inactive)
REMARK    1  A    between atoms: C_1  and  C_2
REMARK    2  A    between atoms: C_2  and  O_3
REMARK    3  A    between atoms: O_3  and  C_4
REMARK    4  A    between atoms: C_7  and  C_8
REMARK    5  A    between atoms: C_8  and  C_10
REMARK    6  A    between atoms: C_10  and  N_11
REMARK    7  A    between atoms: C_14  and  C_15
REMARK    8  A    between atoms: N_17  and  C_18
REMARK    9  A    between atoms: C_18  and  C_19
REMARK   10  A    between atoms: C_19  and  O_20
REMARK                            x       y       z     vdW  Elec       q    Type
REMARK                         _______ _______ _______ _____ _____    ______ ____
ROOT
ATOM      1  N   UNL     1       4.939   5.376  18.133  0.00  0.00    +0.000 N 
ATOM      2  C   UNL     1       4.397   4.465  17.292  0.00  0.00    +0.000 A 
ATOM      3  C   UNL     1       4.939   4.261  16.030  0.00  0.00    +0.000 A 
ATOM      4  C   UNL     1       6.043   5.010  15.611  0.00  0.00    +0.000 A 
ATOM      5  C   UNL     1       6.539   5.993  16.468  0.00  0.00    +0.000 A 
ATOM      6  C   UNL     1       5.959   6.165  17.724  0.00  0.00    +0.000 A 
ENDROOT
BRANCH   4   7
ATOM      7  C   UNL     1       6.649   4.660  14.291  0.00  0.00    +0.000 C 
ATOM      8  O   UNL     1       7.631   5.287  13.899  0.00  0.00    +0.000 OA
ATOM      9  N   UNL     1       6.051   3.670  13.539  0.00  0.00    +0.000 N 
ATOM     10  H   UNL     1       5.345   3.054  13.919  0.00  0.00    +0.000 HD
BRANCH   9  11
ATOM     11  C   UNL     1       6.588   3.301  12.232  0.00  0.00    +0.000 C 
BRANCH  11  12
ATOM     12  C   UNL     1       5.699   2.295  11.494  0.00  0.00    +0.000 C 
BRANCH  12  13
ATOM     13  O   UNL     1       6.300   1.010  11.399  0.00  0.00    +0.000 OA
ATOM     14  H   UNL     1       5.685   0.360  11.792  0.00  0.00    +0.000 HD
ENDBRANCH  12  13
ENDBRANCH  11  12
ENDBRANCH   9  11
ENDBRANCH   4   7
BRANCH   1  15
ATOM     15  C   UNL     1       4.416   5.497  19.519  0.00  0.00    +0.000 C 
BRANCH  15  16
ATOM     16  C   UNL     1       2.917   5.606  19.514  0.00  0.00    +0.000 C 
ATOM     17  O   UNL     1       2.211   4.607  19.620  0.00  0.00    +0.000 OA
BRANCH  16  21
ATOM     18  C   UNL     1       1.366   9.570  18.924  0.00  0.00    +0.000 A 
ATOM     19  C   UNL     1       1.903   8.835  17.867  0.00  0.00    +0.000 A 
ATOM     20  C   UNL     1       2.376   7.538  18.071  0.00  0.00    +0.000 A 
ATOM     21  C   UNL     1       2.309   6.956  19.340  0.00  0.00    +0.000 A 
ATOM     22  C   UNL     1       1.714   7.665  20.393  0.00  0.00    +0.000 A 
ATOM     23  C   UNL     1       1.250   8.969  20.179  0.00  0.00    +0.000 A 
BRANCH  18  24
ATOM     24  O   UNL     1       0.949  10.870  18.850  0.00  0.00    +0.000 OA
BRANCH  24  26
ATOM     25  C   UNL     1       1.348  13.212  18.429  0.00  0.00    +0.000 C 
ATOM     26  C   UNL     1       1.957  11.830  18.518  0.00  0.00    +0.000 C 
ENDBRANCH  24  26
ENDBRANCH  18  24
ENDBRANCH  16  21
ENDBRANCH  15  16
ENDBRANCH   1  15
TORSDOF 9
ENDMDL
MODEL 3
REMARK VINA RESULT:      -6.9      0.592      1.091
REMARK  Name = 
REMARK  10 active torsions:
REMARK  status: ('A' for Active; 'I' for Inactive)
REMARK    1  A    between atoms: C_1  and  C_2
REMARK    2  A    between atoms: C_2  and  O_3
REMARK    3  A    between atoms: O_3  and  C_4
REMARK    4  A    between atoms: C_7  and  C_8
REMARK    5  A    between atoms: C_8  and  C_10
REMARK    6  A    between atoms: C_10  and  N_11
REMARK    7  A    between atoms: C_14  and  C_15
REMARK    8  A    between atoms: N_17  and  C_18
REMARK    9  A    between atoms: C_18  and  C_19
REMARK   10  A    between atoms: C_19  and  O_20
REMARK                            x       y       z     vdW  Elec       q    Type
REMARK                         _______ _______ _______ _____ _____    ______ ____
ROOT
ATOM      1  N   UNL     1       5.058   4.980  18.312  0.00  0.00    +0.000 N 
ATOM      2  C   UNL     1       6.361   5.245  18.063  0.00  0.00    +0.000 A 
ATOM      3  C   UNL     1       6.889   5.053  16.794  0.00  0.00    +0.000 A 
ATOM      4  C   UNL     1       6.079   4.567  15.763  0.00  0.00    +0.000 A 
ATOM      5  C   UNL     1       4.758   4.233  16.062  0.00  0.00    +0.000 A 
ATOM      6  C   UNL     1       4.273   4.438  17.352  0.00  0.00    +0.000 A 
ENDROOT
BRANCH   4   7
ATOM      7  C   UNL     1       6.678   4.495  14.396  0.00  0.00    +0.000 C 
ATOM      8  O   UNL     1       7.586   5.270  14.100  0.00  0.00    +0.000 OA
ATOM      9  N   UNL     1       6.155   3.586  13.500  0.00  0.00    +0.000 N 
ATOM     10  H   UNL     1       5.521   2.851  13.783  0.00  0.00    +0.000 HD
BRANCH   9  11
ATOM     11  C   UNL     1       6.688   3.487  12.144  0.00  0.00    +0.000 C 
BRANCH  11  12
ATOM     12  C   UNL     1       6.195   2.237  11.409  0.00  0.00    +0.000 C 
BRANCH  12  13
ATOM     13  O   UNL     1       7.205   1.242  11.295  0.00  0.00    +0.000 OA
ATOM     14  H   UNL     1       7.014   0.544  11.952  0.00  0.00    +0.000 HD
ENDBRANCH  12  13
ENDBRANCH  11  12
ENDBRANCH   9  11
ENDBRANCH   4   7
BRANCH   1  15
ATOM     15  C   UNL     1       4.485   5.301  19.646  0.00  0.00    +0.000 C 
BRANCH  15  16
ATOM     16  C   UNL     1       2.992   5.448  19.560  0.00  0.00    +0.000 C 
ATOM     17  O   UNL     1       2.262   4.461  19.503  0.00  0.00    +0.000 OA
BRANCH  16  21
ATOM     18  C   UNL     1       1.139   9.325  19.492  0.00  0.00    +0.000 A 
ATOM     19  C   UNL     1       1.169   8.554  20.655  0.00  0.00    +0.000 A 
ATOM     20  C   UNL     1       1.799   7.310  20.665  0.00  0.00    +0.000 A 
ATOM     21  C   UNL     1       2.419   6.824  19.511  0.00  0.00    +0.000 A 
ATOM     22  C   UNL     1       2.447   7.620  18.358  0.00  0.00    +0.000 A 
ATOM     23  C   UNL     1       1.804   8.864  18.355  0.00  0.00    +0.000 A 
BRANCH  18  24
ATOM     24  O   UNL     1       0.483  10.517  19.352  0.00  0.00    +0.000 OA
BRANCH  24  26
ATOM     25  C   UNL     1      -1.705  10.242  18.376  0.00  0.00    +0.000 C 
ATOM     26  C   UNL     1      -0.274  10.674  18.148  0.00  0.00    +0.000 C 
ENDBRANCH  24  26
ENDBRANCH  18  24
ENDBRANCH  16  21
ENDBRANCH  15  16
ENDBRANCH   1  15
TORSDOF 9
ENDMDL
MODEL 4
REMARK VINA RESULT:      -6.9      1.156      1.600
REMARK  Name = 
REMARK  10 active torsions:
REMARK  status: ('A' for Active; 'I' for Inactive)
REMARK    1  A    between atoms: C_1  and  C_2
REMARK    2  A    between atoms: C_2  and  O_3
REMARK    3  A    between atoms: O_3  and  C_4
REMARK    4  A    between atoms: C_7  and  C_8
REMARK    5  A    between atoms: C_8  and  C_10
REMARK    6  A    between atoms: C_10  and  N_11
REMARK    7  A    between atoms: C_14  and  C_15
REMARK    8  A    between atoms: N_17  and  C_18
REMARK    9  A    between atoms: C_18  and  C_19
REMARK   10  A    between atoms: C_19  and  O_20
REMARK                            x       y       z     vdW  Elec       q    Type
REMARK                         _______ _______ _______ _____ _____    ______ ____
ROOT
ATOM      1  N   UNL     1       4.428   4.087  18.909  0.00  0.00    +0.000 N 
ATOM      2  C   UNL     1       5.572   4.803  18.996  0.00  0.00    +0.000 A 
ATOM      3  C   UNL     1       6.351   5.028  17.869  0.00  0.00    +0.000 A 
ATOM      4  C   UNL     1       5.966   4.499  16.633  0.00  0.00    +0.000 A 
ATOM      5  C   UNL     1       4.822   3.703  16.582  0.00  0.00    +0.000 A 
ATOM      6  C   UNL     1       4.074   3.502  17.741  0.00  0.00    +0.000 A 
ENDROOT
BRANCH   4   7
ATOM      7  C   UNL     1       6.785   4.874  15.441  0.00  0.00    +0.000 C 
ATOM      8  O   UNL     1       7.653   5.737  15.561  0.00  0.00    +0.000 OA
ATOM      9  N   UNL     1       6.502   4.267  14.236  0.00  0.00    +0.000 N 
ATOM     10  H   UNL     1       5.901   3.457  14.166  0.00  0.00    +0.000 HD
BRANCH   9  11
ATOM     11  C   UNL     1       7.256   4.612  13.033  0.00  0.00    +0.000 C 
BRANCH  11  12
ATOM     12  C   UNL     1       6.973   3.658  11.869  0.00  0.00    +0.000 C 
BRANCH  12  13
ATOM     13  O   UNL     1       6.157   2.559  12.255  0.00  0.00    +0.000 OA
ATOM     14  H   UNL     1       6.591   1.739  11.946  0.00  0.00    +0.000 HD
ENDBRANCH  12  13
ENDBRANCH  11  12
ENDBRANCH   9  11
ENDBRANCH   4   7
BRANCH   1  15
ATOM     15  C   UNL     1       3.551   3.957  20.101  0.00  0.00    +0.000 C 
BRANCH  15  16
ATOM     16  C   UNL     1       2.196   4.549  19.830  0.00  0.00    +0.000 C 
ATOM     17  O   UNL     1       1.193   3.839  19.789  0.00  0.00    +0.000 OA
BRANCH  16  21
ATOM     18  C   UNL     1       1.711   8.769  19.179  0.00  0.00    +0.000 A 
ATOM     19  C   UNL     1       1.503   8.199  20.435  0.00  0.00    +0.000 A 
ATOM     20  C   UNL     1       1.693   6.831  20.634  0.00  0.00    +0.000 A 
ATOM     21  C   UNL     1       2.104   6.015  19.577  0.00  0.00    +0.000 A 
ATOM     22  C   UNL     1       2.374   6.591  18.328  0.00  0.00    +0.000 A 
ATOM     23  C   UNL     1       2.172   7.964  18.136  0.00  0.00    +0.000 A 
BRANCH  18  24
ATOM     24  O   UNL     1       1.478  10.077  18.857  0.00  0.00    +0.000 OA
BRANCH  24  26
ATOM     25  C   UNL     1      -0.871  10.345  18.381  0.00  0.00    +0.000 C 
ATOM     26  C   UNL     1       0.254  10.632  19.349  0.00  0.00    +0.000 C 
ENDBRANCH  24  26
ENDBRANCH  18  24
ENDBRANCH  16  21
ENDBRANCH  15  16
ENDBRANCH   1  15
TORSDOF 9
ENDMDL
MODEL 5
REMARK VINA RESULT:      -6.8      1.018      1.634
REMARK  Name = 
REMARK  10 active torsions:
REMARK  status: ('A' for Active; 'I' for Inactive)
REMARK    1  A    between atoms: C_1  and  C_2
REMARK    2  A    between atoms: C_2  and  O_3
REMARK    3  A    between atoms: O_3  and  C_4
REMARK    4  A    between atoms: C_7  and  C_8
REMARK    5  A    between atoms: C_8  and  C_10
REMARK    6  A    between atoms: C_10  and  N_11
REMARK    7  A    between atoms: C_14  and  C_15
REMARK    8  A    between atoms: N_17  and  C_18
REMARK    9  A    between atoms: C_18  and  C_19
REMARK   10  A    between atoms: C_19  and  O_20
REMARK                            x       y       z     vdW  Elec       q    Type
REMARK                         _______ _______ _______ _____ _____    ______ ____
ROOT
ATOM      1  N   UNL     1       4.873   5.446  18.102  0.00  0.00    +0.000 N 
ATOM      2  C   UNL     1       5.242   6.447  17.272  0.00  0.00    +0.000 A 
ATOM      3  C   UNL     1       5.817   6.165  16.040  0.00  0.00    +0.000 A 
ATOM      4  C   UNL     1       6.035   4.839  15.654  0.00  0.00    +0.000 A 
ATOM      5  C   UNL     1       5.713   3.826  16.558  0.00  0.00    +0.000 A 
ATOM      6  C   UNL     1       5.142   4.158  17.785  0.00  0.00    +0.000 A 
ENDROOT
BRANCH   4   7
ATOM      7  C   UNL     1       6.548   4.602  14.271  0.00  0.00    +0.000 C 
ATOM      8  O   UNL     1       7.373   5.382  13.798  0.00  0.00    +0.000 OA
ATOM      9  N   UNL     1       6.039   3.537  13.558  0.00  0.00    +0.000 N 
ATOM     10  H   UNL     1       5.483   2.812  13.991  0.00  0.00    +0.000 HD
BRANCH   9  11
ATOM     11  C   UNL     1       6.489   3.270  12.194  0.00  0.00    +0.000 C 
BRANCH  11  12
ATOM     12  C   UNL     1       5.641   2.205  11.493  0.00  0.00    +0.000 C 
BRANCH  12  13
ATOM     13  O   UNL     1       6.350   0.987  11.303  0.00  0.00    +0.000 OA
ATOM     14  H   UNL     1       7.302   1.172  11.420  0.00  0.00    +0.000 HD
ENDBRANCH  12  13
ENDBRANCH  11  12
ENDBRANCH   9  11
ENDBRANCH   4   7
BRANCH   1  15
ATOM     15  C   UNL     1       4.155   5.765  19.364  0.00  0.00    +0.000 C 
BRANCH  15  16
ATOM     16  C   UNL     1       2.683   5.931  19.109  0.00  0.00    +0.000 C 
ATOM     17  O   UNL     1       1.993   4.980  18.749  0.00  0.00    +0.000 OA
BRANCH  16  21
ATOM     18  C   UNL     1       1.165   9.932  19.495  0.00  0.00    +0.000 A 
ATOM     19  C   UNL     1       1.634   9.448  18.273  0.00  0.00    +0.000 A 
ATOM     20  C   UNL     1       2.097   8.136  18.161  0.00  0.00    +0.000 A 
ATOM     21  C   UNL     1       2.087   7.287  19.271  0.00  0.00    +0.000 A 
ATOM     22  C   UNL     1       1.559   7.749  20.485  0.00  0.00    +0.000 A 
ATOM     23  C   UNL     1       1.105   9.069  20.590  0.00  0.00    +0.000 A 
BRANCH  18  24
ATOM     24  O   UNL     1       0.765  11.218  19.732  0.00  0.00    +0.000 OA
BRANCH  24  26
ATOM     25  C   UNL     1       0.640  13.288  18.500  0.00  0.00    +0.000 C 
ATOM     26  C   UNL     1       1.546  12.240  19.106  0.00  0.00    +0.000 C 
ENDBRANCH  24  26
ENDBRANCH  18  24
ENDBRANCH  16  21
ENDBRANCH  15  16
ENDBRANCH   1  15
TORSDOF 9
ENDMDL
MODEL 6
REMARK VINA RESULT:      -6.8      0.624      1.514
REMARK  Name = 
REMARK  10 active torsions:
REMARK  status: ('A' for Active; 'I' for Inactive)
REMARK    1  A    between atoms: C_1  and  C_2
REMARK    2  A    between atoms: C_2  and  O_3
REMARK    3  A    between atoms: O_3  and  C_4
REMARK    4  A    between atoms: C_7  and  C_8
REMARK    5  A    between atoms: C_8  and  C_10
REMARK    6  A    between atoms: C_10  and  N_11
REMARK    7  A    between atoms: C_14  and  C_15
REMARK    8  A    between atoms: N_17  and  C_18
REMARK    9  A    between atoms: C_18  and  C_19
REMARK   10  A    between atoms: C_19  and  O_20
REMARK                            x       y       z     vdW  Elec       q    Type
REMARK                         _______ _______ _______ _____ _____    ______ ____
ROOT
ATOM      1  N   UNL     1       5.346   4.977  18.222  0.00  0.00    +0.000 N 
ATOM      2  C   UNL     1       6.453   5.648  17.829  0.00  0.00    +0.000 A 
ATOM      3  C   UNL     1       6.949   5.496  16.542  0.00  0.00    +0.000 A 
ATOM      4  C   UNL     1       6.317   4.632  15.643  0.00  0.00    +0.000 A 
ATOM      5  C   UNL     1       5.221   3.896  16.094  0.00  0.00    +0.000 A 
ATOM      6  C   UNL     1       4.760   4.078  17.396  0.00  0.00    +0.000 A 
ENDROOT
BRANCH   4   7
ATOM      7  C   UNL     1       6.831   4.604  14.240  0.00  0.00    +0.000 C 
ATOM      8  O   UNL     1       7.676   5.429  13.897  0.00  0.00    +0.000 OA
ATOM      9  N   UNL     1       6.303   3.675  13.368  0.00  0.00    +0.000 N 
ATOM     10  H   UNL     1       5.728   2.905  13.681  0.00  0.00    +0.000 HD
BRANCH   9  11
ATOM     11  C   UNL     1       6.754   3.616  11.980  0.00  0.00    +0.000 C 
BRANCH  11  12
ATOM     12  C   UNL     1       7.001   2.182  11.503  0.00  0.00    +0.000 C 
BRANCH  12  13
ATOM     13  O   UNL     1       5.821   1.389  11.536  0.00  0.00    +0.000 OA
ATOM     14  H   UNL     1       6.007   0.554  11.064  0.00  0.00    +0.000 HD
ENDBRANCH  12  13
ENDBRANCH  11  12
ENDBRANCH   9  11
ENDBRANCH   4   7
BRANCH   1  15
ATOM     15  C   UNL     1       4.765   5.241  19.564  0.00  0.00    +0.000 C 
BRANCH  15  16
ATOM     16  C   UNL     1       3.264   5.275  19.495  0.00  0.00    +0.000 C 
ATOM     17  O   UNL     1       2.604   4.242  19.575  0.00  0.00    +0.000 OA
BRANCH  16  21
ATOM     18  C   UNL     1       1.544   9.156  18.823  0.00  0.00    +0.000 A 
ATOM     19  C   UNL     1       2.164   8.447  17.793  0.00  0.00    +0.000 A 
ATOM     20  C   UNL     1       2.691   7.176  18.023  0.00  0.00    +0.000 A 
ATOM     21  C   UNL     1       2.597   6.592  19.290  0.00  0.00    +0.000 A 
ATOM     22  C   UNL     1       1.921   7.273  20.312  0.00  0.00    +0.000 A 
ATOM     23  C   UNL     1       1.403   8.551  20.074  0.00  0.00    +0.000 A 
BRANCH  18  24
ATOM     24  O   UNL     1       1.067  10.433  18.726  0.00  0.00    +0.000 OA
BRANCH  24  26
ATOM     25  C   UNL     1      -0.529  11.784  19.930  0.00  0.00    +0.000 C 
ATOM     26  C   UNL     1      -0.326  10.602  19.010  0.00  0.00    +0.000 C 
ENDBRANCH  24  26
ENDBRANCH  18  24
ENDBRANCH  16  21
ENDBRANCH  15  16
ENDBRANCH   1  15
TORSDOF 9
ENDMDL
MODEL 7
REMARK VINA RESULT:      -6.8      1.121      1.267
REMARK  Name = 
REMARK  10 active torsions:
REMARK  status: ('A' for Active; 'I' for Inactive)
REMARK    1  A    between atoms: C_1  and  C_2
REMARK    2  A    between atoms: C_2  and  O_3
REMARK    3  A    between atoms: O_3  and  C_4
REMARK    4  A    between atoms: C_7  and  C_8
REMARK    5  A    between atoms: C_8  and  C_10
REMARK    6  A    between atoms: C_10  and  N_11
REMARK    7  A    between atoms: C_14  and  C_15
REMARK    8  A    between atoms: N_17  and  C_18
REMARK    9  A    between atoms: C_18  and  C_19
REMARK   10  A    between atoms: C_19  and  O_20
REMARK                            x       y       z     vdW  Elec       q    Type
REMARK                         _______ _______ _______ _____ _____    ______ ____
ROOT
ATOM      1  N   UNL     1       5.044   4.319  18.050  0.00  0.00    +0.000 N 
ATOM      2  C   UNL     1       4.333   4.132  16.915  0.00  0.00    +0.000 A 
ATOM      3  C   UNL     1       4.944   4.247  15.674  0.00  0.00    +0.000 A 
ATOM      4  C   UNL     1       6.301   4.574  15.587  0.00  0.00    +0.000 A 
ATOM      5  C   UNL     1       6.995   4.834  16.769  0.00  0.00    +0.000 A 
ATOM      6  C   UNL     1       6.338   4.711  17.992  0.00  0.00    +0.000 A 
ENDROOT
BRANCH   4   7
ATOM      7  C   UNL     1       6.923   4.566  14.229  0.00  0.00    +0.000 C 
ATOM      8  O   UNL     1       7.796   5.392  13.967  0.00  0.00    +0.000 OA
ATOM      9  N   UNL     1       6.460   3.656  13.303  0.00  0.00    +0.000 N 
ATOM     10  H   UNL     1       5.859   2.884  13.556  0.00  0.00    +0.000 HD
BRANCH   9  11
ATOM     11  C   UNL     1       7.017   3.618  11.953  0.00  0.00    +0.000 C 
BRANCH  11  12
ATOM     12  C   UNL     1       7.027   2.205  11.361  0.00  0.00    +0.000 C 
BRANCH  12  13
ATOM     13  O   UNL     1       5.819   1.501  11.622  0.00  0.00    +0.000 OA
ATOM     14  H   UNL     1       5.529   1.727  12.527  0.00  0.00    +0.000 HD
ENDBRANCH  12  13
ENDBRANCH  11  12
ENDBRANCH   9  11
ENDBRANCH   4   7
BRANCH   1  15
ATOM     15  C   UNL     1       4.400   4.079  19.368  0.00  0.00    +0.000 C 
BRANCH  15  16
ATOM     16  C   UNL     1       2.935   4.415  19.312  0.00  0.00    +0.000 C 
ATOM     17  O   UNL     1       2.093   3.540  19.128  0.00  0.00    +0.000 OA
BRANCH  16  21
ATOM     18  C   UNL     1       1.562   8.461  19.765  0.00  0.00    +0.000 A 
ATOM     19  C   UNL     1       1.449   7.536  20.803  0.00  0.00    +0.000 A 
ATOM     20  C   UNL     1       1.927   6.234  20.648  0.00  0.00    +0.000 A 
ATOM     21  C   UNL     1       2.533   5.844  19.450  0.00  0.00    +0.000 A 
ATOM     22  C   UNL     1       2.705   6.786  18.427  0.00  0.00    +0.000 A 
ATOM     23  C   UNL     1       2.214   8.088  18.590  0.00  0.00    +0.000 A 
BRANCH  18  24
ATOM     24  O   UNL     1       1.059   9.733  19.784  0.00  0.00    +0.000 OA
BRANCH  24  26
ATOM     25  C   UNL     1      -0.399  11.238  20.980  0.00  0.00    +0.000 C 
ATOM     26  C   UNL     1       0.754  10.264  21.078  0.00  0.00    +0.000 C 
ENDBRANCH  24  26
ENDBRANCH  18  24
ENDBRANCH  16  21
ENDBRANCH  15  16
ENDBRANCH   1  15
TORSDOF 9
ENDMDL
MODEL 8
REMARK VINA RESULT:      -6.8      0.909      1.038
REMARK  Name = 
REMARK  10 active torsions:
REMARK  status: ('A' for Active; 'I' for Inactive)
REMARK    1  A    between atoms: C_1  and  C_2
REMARK    2  A    between atoms: C_2  and  O_3
REMARK    3  A    between atoms: O_3  and  C_4
REMARK    4  A    between atoms: C_7  and  C_8
REMARK    5  A    between atoms: C_8  and  C_10
REMARK    6  A    between atoms: C_10  and  N_11
REMARK    7  A    between atoms: C_14  and  C_15
REMARK    8  A    between atoms: N_17  and  C_18
REMARK    9  A    between atoms: C_18  and  C_19
REMARK   10  A    between atoms: C_19  and  O_20
REMARK                            x       y       z     vdW  Elec       q    Type
REMARK                         _______ _______ _______ _____ _____    ______ ____
ROOT
ATOM      1  N   UNL     1       4.849   5.255  18.122  0.00  0.00    +0.000 N 
ATOM      2  C   UNL     1       4.413   4.349  17.217  0.00  0.00    +0.000 A 
ATOM      3  C   UNL     1       5.026   4.240  15.977  0.00  0.00    +0.000 A 
ATOM      4  C   UNL     1       6.093   5.082  15.645  0.00  0.00    +0.000 A 
ATOM      5  C   UNL     1       6.477   6.056  16.566  0.00  0.00    +0.000 A 
ATOM      6  C   UNL     1       5.829   6.130  17.797  0.00  0.00    +0.000 A 
ENDROOT
BRANCH   4   7
ATOM      7  C   UNL     1       6.782   4.835  14.342  0.00  0.00    +0.000 C 
ATOM      8  O   UNL     1       7.880   5.351  14.140  0.00  0.00    +0.000 OA
ATOM      9  N   UNL     1       6.136   4.069  13.395  0.00  0.00    +0.000 N 
ATOM     10  H   UNL     1       5.313   3.522  13.611  0.00  0.00    +0.000 HD
BRANCH   9  11
ATOM     11  C   UNL     1       6.754   3.813  12.096  0.00  0.00    +0.000 C 
BRANCH  11  12
ATOM     12  C   UNL     1       6.710   2.332  11.707  0.00  0.00    +0.000 C 
BRANCH  12  13
ATOM     13  O   UNL     1       5.393   1.891  11.400  0.00  0.00    +0.000 OA
ATOM     14  H   UNL     1       5.067   2.422  10.647  0.00  0.00    +0.000 HD
ENDBRANCH  12  13
ENDBRANCH  11  12
ENDBRANCH   9  11
ENDBRANCH   4   7
BRANCH   1  15
ATOM     15  C   UNL     1       4.256   5.276  19.484  0.00  0.00    +0.000 C 
BRANCH  15  16
ATOM     16  C   UNL     1       2.779   5.548  19.416  0.00  0.00    +0.000 C 
ATOM     17  O   UNL     1       1.963   4.634  19.507  0.00  0.00    +0.000 OA
BRANCH  16  21
ATOM     18  C   UNL     1       1.274   9.537  18.875  0.00  0.00    +0.000 A 
ATOM     19  C   UNL     1       1.246   8.912  20.123  0.00  0.00    +0.000 A 
ATOM     20  C   UNL     1       1.765   7.627  20.285  0.00  0.00    +0.000 A 
ATOM     21  C   UNL     1       2.330   6.953  19.199  0.00  0.00    +0.000 A 
ATOM     22  C   UNL     1       2.417   7.599  17.958  0.00  0.00    +0.000 A 
ATOM     23  C   UNL     1       1.885   8.885  17.803  0.00  0.00    +0.000 A 
BRANCH  18  24
ATOM     24  O   UNL     1       0.724  10.756  18.590  0.00  0.00    +0.000 OA
BRANCH  24  26
ATOM     25  C   UNL     1       2.289  12.592  18.584  0.00  0.00    +0.000 C 
ATOM     26  C   UNL     1       1.217  11.857  19.359  0.00  0.00    +0.000 C 
ENDBRANCH  24  26
ENDBRANCH  18  24
ENDBRANCH  16  21
ENDBRANCH  15  16
ENDBRANCH   1  15
TORSDOF 9
ENDMDL
MODEL 9
REMARK VINA RESULT:      -6.7      3.261      4.342
REMARK  Name = 
REMARK  10 active torsions:
REMARK  status: ('A' for Active; 'I' for Inactive)
REMARK    1  A    between atoms: C_1  and  C_2
REMARK    2  A    between atoms: C_2  and  O_3
REMARK    3  A    between atoms: O_3  and  C_4
REMARK    4  A    between atoms: C_7  and  C_8
REMARK    5  A    between atoms: C_8  and  C_10
REMARK    6  A    between atoms: C_10  and  N_11
REMARK    7  A    between atoms: C_14  and  C_15
REMARK    8  A    between atoms: N_17  and  C_18
REMARK    9  A    between atoms: C_18  and  C_19
REMARK   10  A    between atoms: C_19  and  O_20
REMARK                            x       y       z     vdW  Elec       q    Type
REMARK                         _______ _______ _______ _____ _____    ______ ____
ROOT
ATOM      1  N   UNL     1       6.724   5.820  16.733  0.00  0.00    +0.000 N 
ATOM      2  C   UNL     1       5.713   6.296  15.971  0.00  0.00    +0.000 A 
ATOM      3  C   UNL     1       5.337   5.638  14.809  0.00  0.00    +0.000 A 
ATOM      4  C   UNL     1       6.013   4.482  14.406  0.00  0.00    +0.000 A 
ATOM      5  C   UNL     1       7.098   4.051  15.169  0.00  0.00    +0.000 A 
ATOM      6  C   UNL     1       7.442   4.747  16.326  0.00  0.00    +0.000 A 
ENDROOT
BRANCH   4   7
ATOM      7  C   UNL     1       5.483   3.758  13.211  0.00  0.00    +0.000 C 
ATOM      8  O   UNL     1       4.322   3.958  12.858  0.00  0.00    +0.000 OA
ATOM      9  N   UNL     1       6.308   2.856  12.574  0.00  0.00    +0.000 N 
ATOM     10  H   UNL     1       7.300   2.802  12.763  0.00  0.00    +0.000 HD
BRANCH   9  11
ATOM     11  C   UNL     1       5.836   2.104  11.413  0.00  0.00    +0.000 C 
BRANCH  11  12
ATOM     12  C   UNL     1       6.734   0.909  11.082  0.00  0.00    +0.000 C 
BRANCH  12  13
ATOM     13  O   UNL     1       6.149  -0.330  11.464  0.00  0.00    +0.000 OA
ATOM     14  H   UNL     1       6.196  -0.934  10.697  0.00  0.00    +0.000 HD
ENDBRANCH  12  13
ENDBRANCH  11  12
ENDBRANCH   9  11
ENDBRANCH   4   7
BRANCH   1  15
ATOM     15  C   UNL     1       7.035   6.472  18.032  0.00  0.00    +0.000 C 
BRANCH  15  16
ATOM     16  C   UNL     1       6.564   5.622  19.179  0.00  0.00    +0.000 C 
ATOM     17  O   UNL     1       7.324   5.324  20.097  0.00  0.00    +0.000 OA
BRANCH  16  21
ATOM     18  C   UNL     1       2.564   4.077  18.906  0.00  0.00    +0.000 A 
ATOM     19  C   UNL     1       3.675   3.236  18.824  0.00  0.00    +0.000 A 
ATOM     20  C   UNL     1       4.966   3.753  18.943  0.00  0.00    +0.000 A 
ATOM     21  C   UNL     1       5.161   5.120  19.156  0.00  0.00    +0.000 A 
ATOM     22  C   UNL     1       4.048   5.960  19.302  0.00  0.00    +0.000 A 
ATOM     23  C   UNL     1       2.757   5.434  19.172  0.00  0.00    +0.000 A 
BRANCH  18  24
ATOM     24  O   UNL     1       1.265   3.689  18.725  0.00  0.00    +0.000 OA
BRANCH  24  26
ATOM     25  C   UNL     1       1.043   2.882  20.988  0.00  0.00    +0.000 C 
ATOM     26  C   UNL     1       0.828   2.582  19.521  0.00  0.00    +0.000 C 
ENDBRANCH  24  26
ENDBRANCH  18  24
ENDBRANCH  16  21
ENDBRANCH  15  16
ENDBRANCH   1  15
TORSDOF 9
ENDMDL
