MODEL 1
REMARK VINA RESULT:      -7.9      0.000      0.000
REMARK  Name = 
REMARK  10 active torsions:
REMARK  status: ('A' for Active; 'I' for Inactive)
REMARK    1  A    between atoms: C_2  and  C_3
REMARK    2  A    between atoms: C_3  and  C_4
REMARK    3  A    between atoms: C_4  and  C_5
REMARK    4  A    between atoms: C_5  and  C_6
REMARK    5  A    between atoms: C_6  and  C_7
REMARK    6  A    between atoms: C_7  and  C_8
REMARK    7  A    between atoms: C_8  and  C_9
REMARK    8  A    between atoms: C_15  and  C_16
REMARK    9  A    between atoms: C_19  and  C_20
REMARK   10  A    between atoms: N_29  and  O_30
REMARK                            x       y       z     vdW  Elec       q    Type
REMARK                         _______ _______ _______ _____ _____    ______ ____
ROOT
ATOM      1  C   UNL     1       2.702   5.161  19.639  0.00  0.00    +0.000 C 
ATOM      2  O   UNL     1       2.036   5.008  20.659  0.00  0.00    +0.000 OA
ATOM      3  N   UNL     1       2.739   6.279  18.838  0.00  0.00    +0.000 N 
ATOM      4  C   UNL     1       2.131   7.478  19.113  0.00  0.00    +0.000 A 
ATOM      5  N   UNL     1       2.016   8.446  18.233  0.00  0.00    +0.000 NA
ATOM      6  N   UNL     1       1.356   9.545  18.757  0.00  0.00    +0.000 NA
ATOM      7  C   UNL     1       1.014   9.370  20.021  0.00  0.00    +0.000 A 
ATOM      8  S   UNL     1       1.549   7.867  20.661  0.00  0.00    +0.000 S 
ATOM      9  H   UNL     1       3.132   6.224  17.908  0.00  0.00    +0.000 HD
ENDROOT
BRANCH   7  10
ATOM     10  C   UNL     1       0.299  10.338  20.859  0.00  0.00    +0.000 A 
ATOM     11  C   UNL     1       0.124  11.675  20.473  0.00  0.00    +0.000 A 
ATOM     12  C   UNL     1      -0.565  12.580  21.288  0.00  0.00    +0.000 A 
ATOM     13  C   UNL     1      -1.118  12.189  22.518  0.00  0.00    +0.000 A 
ATOM     14  C   UNL     1      -0.934  10.848  22.899  0.00  0.00    +0.000 A 
ATOM     15  C   UNL     1      -0.228   9.942  22.092  0.00  0.00    +0.000 A 
BRANCH  13  16
ATOM     16  C   UNL     1      -1.847  13.157  23.372  0.00  0.00    +0.000 A 
ATOM     17  C   UNL     1      -3.190  12.949  23.740  0.00  0.00    +0.000 A 
ATOM     18  C   UNL     1      -3.892  13.878  24.514  0.00  0.00    +0.000 A 
ATOM     19  C   UNL     1      -3.260  15.034  24.956  0.00  0.00    +0.000 A 
ATOM     20  C   UNL     1      -1.928  15.261  24.622  0.00  0.00    +0.000 A 
ATOM     21  C   UNL     1      -1.235  14.337  23.835  0.00  0.00    +0.000 A 
ENDBRANCH  13  16
ENDBRANCH   7  10
BRANCH   1  22
ATOM     22  C   UNL     1       3.588   4.037  19.141  0.00  0.00    +0.000 C 
BRANCH  22  23
ATOM     23  C   UNL     1       3.153   3.564  17.757  0.00  0.00    +0.000 C 
BRANCH  23  24
ATOM     24  C   UNL     1       4.342   3.478  16.800  0.00  0.00    +0.000 C 
BRANCH  24  25
ATOM     25  C   UNL     1       5.041   4.832  16.658  0.00  0.00    +0.000 C 
BRANCH  25  26
ATOM     26  C   UNL     1       6.545   4.714  16.904  0.00  0.00    +0.000 C 
BRANCH  26  27
ATOM     27  C   UNL     1       7.191   6.091  17.055  0.00  0.00    +0.000 C 
BRANCH  27  29
ATOM     28  O   UNL     1       8.377   7.307  18.807  0.00  0.00    +0.000 OA
ATOM     29  C   UNL     1       7.753   6.316  18.438  0.00  0.00    +0.000 C 
ATOM     30  N   UNL     1       7.506   5.300  19.318  0.00  0.00    +0.000 N 
ATOM     31  H   UNL     1       7.085   4.404  19.106  0.00  0.00    +0.000 HD
BRANCH  30  32
ATOM     32  O   UNL     1       8.061   5.494  20.601  0.00  0.00    +0.000 OA
ATOM     33  H   UNL     1       9.028   5.499  20.417  0.00  0.00    +0.000 HD
ENDBRANCH  30  32
ENDBRANCH  27  29
ENDBRANCH  26  27
ENDBRANCH  25  26
ENDBRANCH  24  25
ENDBRANCH  23  24
ENDBRANCH  22  23
ENDBRANCH   1  22
TORSDOF 10
ENDMDL
MODEL 2
REMARK VINA RESULT:      -7.8      1.053      1.665
REMARK  Name = 
REMARK  10 active torsions:
REMARK  status: ('A' for Active; 'I' for Inactive)
REMARK    1  A    between atoms: C_2  and  C_3
REMARK    2  A    between atoms: C_3  and  C_4
REMARK    3  A    between atoms: C_4  and  C_5
REMARK    4  A    between atoms: C_5  and  C_6
REMARK    5  A    between atoms: C_6  and  C_7
REMARK    6  A    between atoms: C_7  and  C_8
REMARK    7  A    between atoms: C_8  and  C_9
REMARK    8  A    between atoms: C_15  and  C_16
REMARK    9  A    between atoms: C_19  and  C_20
REMARK   10  A    between atoms: N_29  and  O_30
REMARK                            x       y       z     vdW  Elec       q    Type
REMARK                         _______ _______ _______ _____ _____    ______ ____
ROOT
ATOM      1  C   UNL     1       2.206   4.143  20.047  0.00  0.00    +0.000 C 
ATOM      2  O   UNL     1       1.277   4.045  20.843  0.00  0.00    +0.000 OA
ATOM      3  N   UNL     1       2.622   5.283  19.399  0.00  0.00    +0.000 N 
ATOM      4  C   UNL     1       2.147   6.550  19.631  0.00  0.00    +0.000 A 
ATOM      5  N   UNL     1       2.417   7.573  18.853  0.00  0.00    +0.000 NA
ATOM      6  N   UNL     1       1.812   8.736  19.301  0.00  0.00    +0.000 NA
ATOM      7  C   UNL     1       1.123   8.547  20.412  0.00  0.00    +0.000 A 
ATOM      8  S   UNL     1       1.238   6.940  21.011  0.00  0.00    +0.000 S 
ATOM      9  H   UNL     1       3.236   5.217  18.599  0.00  0.00    +0.000 HD
ENDROOT
BRANCH   7  10
ATOM     10  C   UNL     1       0.362   9.572  21.135  0.00  0.00    +0.000 A 
ATOM     11  C   UNL     1      -0.050   9.399  22.464  0.00  0.00    +0.000 A 
ATOM     12  C   UNL     1      -0.772  10.393  23.134  0.00  0.00    +0.000 A 
ATOM     13  C   UNL     1      -1.105  11.607  22.511  0.00  0.00    +0.000 A 
ATOM     14  C   UNL     1      -0.692  11.770  21.177  0.00  0.00    +0.000 A 
ATOM     15  C   UNL     1       0.016  10.768  20.496  0.00  0.00    +0.000 A 
BRANCH  13  16
ATOM     16  C   UNL     1      -1.870  12.652  23.233  0.00  0.00    +0.000 A 
ATOM     17  C   UNL     1      -1.312  13.917  23.503  0.00  0.00    +0.000 A 
ATOM     18  C   UNL     1      -2.017  14.893  24.216  0.00  0.00    +0.000 A 
ATOM     19  C   UNL     1      -3.308  14.633  24.661  0.00  0.00    +0.000 A 
ATOM     20  C   UNL     1      -3.892  13.399  24.395  0.00  0.00    +0.000 A 
ATOM     21  C   UNL     1      -3.178  12.420  23.695  0.00  0.00    +0.000 A 
ENDBRANCH  13  16
ENDBRANCH   7  10
BRANCH   1  22
ATOM     22  C   UNL     1       3.015   2.915  19.678  0.00  0.00    +0.000 C 
BRANCH  22  23
ATOM     23  C   UNL     1       4.361   3.303  19.071  0.00  0.00    +0.000 C 
BRANCH  23  24
ATOM     24  C   UNL     1       4.453   2.877  17.606  0.00  0.00    +0.000 C 
BRANCH  24  25
ATOM     25  C   UNL     1       4.441   4.089  16.672  0.00  0.00    +0.000 C 
BRANCH  25  26
ATOM     26  C   UNL     1       5.831   4.365  16.096  0.00  0.00    +0.000 C 
BRANCH  26  27
ATOM     27  C   UNL     1       6.512   5.521  16.827  0.00  0.00    +0.000 C 
BRANCH  27  29
ATOM     28  O   UNL     1       8.281   4.114  17.747  0.00  0.00    +0.000 OA
ATOM     29  C   UNL     1       7.492   5.046  17.873  0.00  0.00    +0.000 C 
ATOM     30  N   UNL     1       7.461   5.760  19.038  0.00  0.00    +0.000 N 
ATOM     31  H   UNL     1       6.798   6.484  19.287  0.00  0.00    +0.000 HD
BRANCH  30  32
ATOM     32  O   UNL     1       8.352   5.295  20.028  0.00  0.00    +0.000 OA
ATOM     33  H   UNL     1       8.164   5.895  20.785  0.00  0.00    +0.000 HD
ENDBRANCH  30  32
ENDBRANCH  27  29
ENDBRANCH  26  27
ENDBRANCH  25  26
ENDBRANCH  24  25
ENDBRANCH  23  24
ENDBRANCH  22  23
ENDBRANCH   1  22
TORSDOF 10
ENDMDL
MODEL 3
REMARK VINA RESULT:      -7.7      0.905      1.320
REMARK  Name = 
REMARK  10 active torsions:
REMARK  status: ('A' for Active; 'I' for Inactive)
REMARK    1  A    between atoms: C_2  and  C_3
REMARK    2  A    between atoms: C_3  and  C_4
REMARK    3  A    between atoms: C_4  and  C_5
REMARK    4  A    between atoms: C_5  and  C_6
REMARK    5  A    between atoms: C_6  and  C_7
REMARK    6  A    between atoms: C_7  and  C_8
REMARK    7  A    between atoms: C_8  and  C_9
REMARK    8  A    between atoms: C_15  and  C_16
REMARK    9  A    between atoms: C_19  and  C_20
REMARK   10  A    between atoms: N_29  and  O_30
REMARK                            x       y       z     vdW  Elec       q    Type
REMARK                         _______ _______ _______ _____ _____    ______ ____
ROOT
ATOM      1  C   UNL     1       2.680   5.317  18.990  0.00  0.00    +0.000 C 
ATOM      2  O   UNL     1       2.050   5.134  20.027  0.00  0.00    +0.000 OA
ATOM      3  N   UNL     1       2.717   6.469  18.238  0.00  0.00    +0.000 N 
ATOM      4  C   UNL     1       2.153   7.670  18.591  0.00  0.00    +0.000 A 
ATOM      5  N   UNL     1       2.031   8.679  17.760  0.00  0.00    +0.000 NA
ATOM      6  N   UNL     1       1.423   9.770  18.359  0.00  0.00    +0.000 NA
ATOM      7  C   UNL     1       1.125   9.546  19.627  0.00  0.00    +0.000 A 
ATOM      8  S   UNL     1       1.643   8.001  20.177  0.00  0.00    +0.000 S 
ATOM      9  H   UNL     1       3.072   6.447  17.292  0.00  0.00    +0.000 HD
ENDROOT
BRANCH   7  10
ATOM     10  C   UNL     1       0.470  10.493  20.536  0.00  0.00    +0.000 A 
ATOM     11  C   UNL     1       0.730  11.870  20.493  0.00  0.00    +0.000 A 
ATOM     12  C   UNL     1       0.090  12.755  21.368  0.00  0.00    +0.000 A 
ATOM     13  C   UNL     1      -0.844  12.306  22.316  0.00  0.00    +0.000 A 
ATOM     14  C   UNL     1      -1.094  10.923  22.355  0.00  0.00    +0.000 A 
ATOM     15  C   UNL     1      -0.441  10.031  21.491  0.00  0.00    +0.000 A 
BRANCH  13  16
ATOM     16  C   UNL     1      -1.515  13.254  23.237  0.00  0.00    +0.000 A 
ATOM     17  C   UNL     1      -0.957  14.513  23.533  0.00  0.00    +0.000 A 
ATOM     18  C   UNL     1      -1.568  15.396  24.429  0.00  0.00    +0.000 A 
ATOM     19  C   UNL     1      -2.767  15.047  25.040  0.00  0.00    +0.000 A 
ATOM     20  C   UNL     1      -3.352  13.817  24.756  0.00  0.00    +0.000 A 
ATOM     21  C   UNL     1      -2.729  12.931  23.871  0.00  0.00    +0.000 A 
ENDBRANCH  13  16
ENDBRANCH   7  10
BRANCH   1  22
ATOM     22  C   UNL     1       3.514   4.194  18.406  0.00  0.00    +0.000 C 
BRANCH  22  23
ATOM     23  C   UNL     1       3.602   4.304  16.887  0.00  0.00    +0.000 C 
BRANCH  23  24
ATOM     24  C   UNL     1       5.054   4.402  16.420  0.00  0.00    +0.000 C 
BRANCH  24  25
ATOM     25  C   UNL     1       5.429   5.843  16.067  0.00  0.00    +0.000 C 
BRANCH  25  26
ATOM     26  C   UNL     1       6.116   6.546  17.239  0.00  0.00    +0.000 C 
BRANCH  26  27
ATOM     27  C   UNL     1       7.375   5.796  17.672  0.00  0.00    +0.000 C 
BRANCH  27  29
ATOM     28  O   UNL     1       6.364   4.726  19.618  0.00  0.00    +0.000 OA
ATOM     29  C   UNL     1       7.303   5.327  19.106  0.00  0.00    +0.000 C 
ATOM     30  N   UNL     1       8.413   5.618  19.849  0.00  0.00    +0.000 N 
ATOM     31  H   UNL     1       9.203   6.183  19.562  0.00  0.00    +0.000 HD
BRANCH  30  32
ATOM     32  O   UNL     1       8.332   5.211  21.197  0.00  0.00    +0.000 OA
ATOM     33  H   UNL     1       7.390   5.389  21.418  0.00  0.00    +0.000 HD
ENDBRANCH  30  32
ENDBRANCH  27  29
ENDBRANCH  26  27
ENDBRANCH  25  26
ENDBRANCH  24  25
ENDBRANCH  23  24
ENDBRANCH  22  23
ENDBRANCH   1  22
TORSDOF 10
ENDMDL
MODEL 4
REMARK VINA RESULT:      -7.5      2.085      3.150
REMARK  Name = 
REMARK  10 active torsions:
REMARK  status: ('A' for Active; 'I' for Inactive)
REMARK    1  A    between atoms: C_2  and  C_3
REMARK    2  A    between atoms: C_3  and  C_4
REMARK    3  A    between atoms: C_4  and  C_5
REMARK    4  A    between atoms: C_5  and  C_6
REMARK    5  A    between atoms: C_6  and  C_7
REMARK    6  A    between atoms: C_7  and  C_8
REMARK    7  A    between atoms: C_8  and  C_9
REMARK    8  A    between atoms: C_15  and  C_16
REMARK    9  A    between atoms: C_19  and  C_20
REMARK   10  A    between atoms: N_29  and  O_30
REMARK                            x       y       z     vdW  Elec       q    Type
REMARK                         _______ _______ _______ _____ _____    ______ ____
ROOT
ATOM      1  C   UNL     1       1.817   8.804  18.712  0.00  0.00    +0.000 C 
ATOM      2  O   UNL     1       1.478   9.848  18.164  0.00  0.00    +0.000 OA
ATOM      3  N   UNL     1       1.683   8.489  20.045  0.00  0.00    +0.000 N 
ATOM      4  C   UNL     1       1.020   9.246  20.980  0.00  0.00    +0.000 A 
ATOM      5  N   UNL     1       1.092   9.019  22.271  0.00  0.00    +0.000 NA
ATOM      6  N   UNL     1       0.339   9.926  22.998  0.00  0.00    +0.000 NA
ATOM      7  C   UNL     1      -0.287  10.794  22.222  0.00  0.00    +0.000 A 
ATOM      8  S   UNL     1      -0.042  10.498  20.546  0.00  0.00    +0.000 S 
ATOM      9  H   UNL     1       2.196   7.712  20.437  0.00  0.00    +0.000 HD
ENDROOT
BRANCH   7  10
ATOM     10  C   UNL     1      -1.155  11.885  22.680  0.00  0.00    +0.000 A 
ATOM     11  C   UNL     1      -2.383  11.646  23.312  0.00  0.00    +0.000 A 
ATOM     12  C   UNL     1      -3.192  12.704  23.743  0.00  0.00    +0.000 A 
ATOM     13  C   UNL     1      -2.807  14.043  23.572  0.00  0.00    +0.000 A 
ATOM     14  C   UNL     1      -1.576  14.272  22.932  0.00  0.00    +0.000 A 
ATOM     15  C   UNL     1      -0.770  13.215  22.483  0.00  0.00    +0.000 A 
BRANCH  13  16
ATOM     16  C   UNL     1      -3.674  15.153  24.034  0.00  0.00    +0.000 A 
ATOM     17  C   UNL     1      -5.044  15.200  23.712  0.00  0.00    +0.000 A 
ATOM     18  C   UNL     1      -5.857  16.265  24.115  0.00  0.00    +0.000 A 
ATOM     19  C   UNL     1      -5.321  17.303  24.868  0.00  0.00    +0.000 A 
ATOM     20  C   UNL     1      -3.975  17.277  25.215  0.00  0.00    +0.000 A 
ATOM     21  C   UNL     1      -3.161  16.218  24.798  0.00  0.00    +0.000 A 
ENDBRANCH  13  16
ENDBRANCH   7  10
BRANCH   1  22
ATOM     22  C   UNL     1       2.476   7.706  17.901  0.00  0.00    +0.000 C 
BRANCH  22  23
ATOM     23  C   UNL     1       2.832   6.509  18.779  0.00  0.00    +0.000 C 
BRANCH  23  24
ATOM     24  C   UNL     1       2.071   5.256  18.347  0.00  0.00    +0.000 C 
BRANCH  24  25
ATOM     25  C   UNL     1       3.004   4.237  17.689  0.00  0.00    +0.000 C 
BRANCH  25  26
ATOM     26  C   UNL     1       4.358   4.179  18.396  0.00  0.00    +0.000 C 
BRANCH  26  27
ATOM     27  C   UNL     1       5.499   4.500  17.432  0.00  0.00    +0.000 C 
BRANCH  27  29
ATOM     28  O   UNL     1       7.774   5.368  17.606  0.00  0.00    +0.000 OA
ATOM     29  C   UNL     1       6.737   4.991  18.145  0.00  0.00    +0.000 C 
ATOM     30  N   UNL     1       6.633   5.005  19.508  0.00  0.00    +0.000 N 
ATOM     31  H   UNL     1       5.869   4.636  20.060  0.00  0.00    +0.000 HD
BRANCH  30  32
ATOM     32  O   UNL     1       7.800   5.430  20.175  0.00  0.00    +0.000 OA
ATOM     33  H   UNL     1       7.929   4.727  20.851  0.00  0.00    +0.000 HD
ENDBRANCH  30  32
ENDBRANCH  27  29
ENDBRANCH  26  27
ENDBRANCH  25  26
ENDBRANCH  24  25
ENDBRANCH  23  24
ENDBRANCH  22  23
ENDBRANCH   1  22
TORSDOF 10
ENDMDL
MODEL 5
REMARK VINA RESULT:      -7.5      4.377     12.194
REMARK  Name = 
REMARK  10 active torsions:
REMARK  status: ('A' for Active; 'I' for Inactive)
REMARK    1  A    between atoms: C_2  and  C_3
REMARK    2  A    between atoms: C_3  and  C_4
REMARK    3  A    between atoms: C_4  and  C_5
REMARK    4  A    between atoms: C_5  and  C_6
REMARK    5  A    between atoms: C_6  and  C_7
REMARK    6  A    between atoms: C_7  and  C_8
REMARK    7  A    between atoms: C_8  and  C_9
REMARK    8  A    between atoms: C_15  and  C_16
REMARK    9  A    between atoms: C_19  and  C_20
REMARK   10  A    between atoms: N_29  and  O_30
REMARK                            x       y       z     vdW  Elec       q    Type
REMARK                         _______ _______ _______ _____ _____    ______ ____
ROOT
ATOM      1  C   UNL     1       0.410   9.391  21.110  0.00  0.00    +0.000 C 
ATOM      2  O   UNL     1       0.511   9.915  20.005  0.00  0.00    +0.000 OA
ATOM      3  N   UNL     1       0.815   8.125  21.465  0.00  0.00    +0.000 N 
ATOM      4  C   UNL     1       1.529   7.264  20.669  0.00  0.00    +0.000 A 
ATOM      5  N   UNL     1       1.714   5.998  20.963  0.00  0.00    +0.000 NA
ATOM      6  N   UNL     1       2.460   5.346  19.995  0.00  0.00    +0.000 NA
ATOM      7  C   UNL     1       2.824   6.153  19.014  0.00  0.00    +0.000 A 
ATOM      8  S   UNL     1       2.329   7.781  19.263  0.00  0.00    +0.000 S 
ATOM      9  H   UNL     1       0.482   7.707  22.323  0.00  0.00    +0.000 HD
ENDROOT
BRANCH   7  10
ATOM     10  C   UNL     1       3.612   5.772  17.836  0.00  0.00    +0.000 A 
ATOM     11  C   UNL     1       3.697   4.446  17.392  0.00  0.00    +0.000 A 
ATOM     12  C   UNL     1       4.452   4.107  16.263  0.00  0.00    +0.000 A 
ATOM     13  C   UNL     1       5.147   5.079  15.525  0.00  0.00    +0.000 A 
ATOM     14  C   UNL     1       5.060   6.406  15.981  0.00  0.00    +0.000 A 
ATOM     15  C   UNL     1       4.318   6.746  17.122  0.00  0.00    +0.000 A 
BRANCH  13  16
ATOM     16  C   UNL     1       5.944   4.707  14.331  0.00  0.00    +0.000 A 
ATOM     17  C   UNL     1       7.183   5.315  14.054  0.00  0.00    +0.000 A 
ATOM     18  C   UNL     1       7.920   4.994  12.909  0.00  0.00    +0.000 A 
ATOM     19  C   UNL     1       7.442   4.039  12.020  0.00  0.00    +0.000 A 
ATOM     20  C   UNL     1       6.228   3.408  12.274  0.00  0.00    +0.000 A 
ATOM     21  C   UNL     1       5.487   3.744  13.412  0.00  0.00    +0.000 A 
ENDBRANCH  13  16
ENDBRANCH   7  10
BRANCH   1  22
ATOM     22  C   UNL     1      -0.234  10.155  22.250  0.00  0.00    +0.000 C 
BRANCH  22  23
ATOM     23  C   UNL     1      -1.112  11.289  21.729  0.00  0.00    +0.000 C 
BRANCH  23  24
ATOM     24  C   UNL     1      -0.750  12.620  22.387  0.00  0.00    +0.000 C 
BRANCH  24  25
ATOM     25  C   UNL     1      -1.979  13.286  23.009  0.00  0.00    +0.000 C 
BRANCH  25  26
ATOM     26  C   UNL     1      -3.189  12.351  22.996  0.00  0.00    +0.000 C 
BRANCH  26  27
ATOM     27  C   UNL     1      -3.975  12.446  24.303  0.00  0.00    +0.000 C 
BRANCH  27  29
ATOM     28  O   UNL     1      -5.731  14.071  23.821  0.00  0.00    +0.000 OA
ATOM     29  C   UNL     1      -5.393  12.922  24.091  0.00  0.00    +0.000 C 
ATOM     30  N   UNL     1      -6.339  11.944  24.213  0.00  0.00    +0.000 N 
ATOM     31  H   UNL     1      -6.188  10.990  24.519  0.00  0.00    +0.000 HD
BRANCH  30  32
ATOM     32  O   UNL     1      -7.666  12.395  24.049  0.00  0.00    +0.000 OA
ATOM     33  H   UNL     1      -7.654  13.265  24.508  0.00  0.00    +0.000 HD
ENDBRANCH  30  32
ENDBRANCH  27  29
ENDBRANCH  26  27
ENDBRANCH  25  26
ENDBRANCH  24  25
ENDBRANCH  23  24
ENDBRANCH  22  23
ENDBRANCH   1  22
TORSDOF 10
ENDMDL
MODEL 6
REMARK VINA RESULT:      -7.5      2.365      3.240
REMARK  Name = 
REMARK  10 active torsions:
REMARK  status: ('A' for Active; 'I' for Inactive)
REMARK    1  A    between atoms: C_2  and  C_3
REMARK    2  A    between atoms: C_3  and  C_4
REMARK    3  A    between atoms: C_4  and  C_5
REMARK    4  A    between atoms: C_5  and  C_6
REMARK    5  A    between atoms: C_6  and  C_7
REMARK    6  A    between atoms: C_7  and  C_8
REMARK    7  A    between atoms: C_8  and  C_9
REMARK    8  A    between atoms: C_15  and  C_16
REMARK    9  A    between atoms: C_19  and  C_20
REMARK   10  A    between atoms: N_29  and  O_30
REMARK                            x       y       z     vdW  Elec       q    Type
REMARK                         _______ _______ _______ _____ _____    ______ ____
ROOT
ATOM      1  C   UNL     1       1.761   8.659  18.778  0.00  0.00    +0.000 C 
ATOM      2  O   UNL     1       1.406   9.683  18.203  0.00  0.00    +0.000 OA
ATOM      3  N   UNL     1       1.665   8.391  20.124  0.00  0.00    +0.000 N 
ATOM      4  C   UNL     1       1.028   9.180  21.050  0.00  0.00    +0.000 A 
ATOM      5  N   UNL     1       1.137   8.999  22.346  0.00  0.00    +0.000 NA
ATOM      6  N   UNL     1       0.404   9.932  23.061  0.00  0.00    +0.000 NA
ATOM      7  C   UNL     1      -0.244  10.771  22.273  0.00  0.00    +0.000 A 
ATOM      8  S   UNL     1      -0.047  10.416  20.603  0.00  0.00    +0.000 S 
ATOM      9  H   UNL     1       2.190   7.629  20.529  0.00  0.00    +0.000 HD
ENDROOT
BRANCH   7  10
ATOM     10  C   UNL     1      -1.100  11.877  22.717  0.00  0.00    +0.000 A 
ATOM     11  C   UNL     1      -0.705  13.218  22.608  0.00  0.00    +0.000 A 
ATOM     12  C   UNL     1      -1.541  14.256  23.035  0.00  0.00    +0.000 A 
ATOM     13  C   UNL     1      -2.810  14.002  23.580  0.00  0.00    +0.000 A 
ATOM     14  C   UNL     1      -3.196  12.655  23.690  0.00  0.00    +0.000 A 
ATOM     15  C   UNL     1      -2.353  11.610  23.279  0.00  0.00    +0.000 A 
BRANCH  13  16
ATOM     16  C   UNL     1      -3.686  15.112  24.028  0.00  0.00    +0.000 A 
ATOM     17  C   UNL     1      -5.030  15.199  23.618  0.00  0.00    +0.000 A 
ATOM     18  C   UNL     1      -5.849  16.264  24.009  0.00  0.00    +0.000 A 
ATOM     19  C   UNL     1      -5.347  17.261  24.837  0.00  0.00    +0.000 A 
ATOM     20  C   UNL     1      -4.027  17.193  25.271  0.00  0.00    +0.000 A 
ATOM     21  C   UNL     1      -3.207  16.136  24.866  0.00  0.00    +0.000 A 
ENDBRANCH  13  16
ENDBRANCH   7  10
BRANCH   1  22
ATOM     22  C   UNL     1       2.398   7.533  17.988  0.00  0.00    +0.000 C 
BRANCH  22  23
ATOM     23  C   UNL     1       3.084   6.529  18.911  0.00  0.00    +0.000 C 
BRANCH  23  24
ATOM     24  C   UNL     1       4.020   5.606  18.131  0.00  0.00    +0.000 C 
BRANCH  24  25
ATOM     25  C   UNL     1       4.930   4.813  19.071  0.00  0.00    +0.000 C 
BRANCH  25  26
ATOM     26  C   UNL     1       6.309   5.463  19.195  0.00  0.00    +0.000 C 
BRANCH  26  27
ATOM     27  C   UNL     1       7.313   4.814  18.243  0.00  0.00    +0.000 C 
BRANCH  27  29
ATOM     28  O   UNL     1       7.572   6.760  16.792  0.00  0.00    +0.000 OA
ATOM     29  C   UNL     1       7.419   5.549  16.928  0.00  0.00    +0.000 C 
ATOM     30  N   UNL     1       7.341   4.744  15.826  0.00  0.00    +0.000 N 
ATOM     31  H   UNL     1       7.127   3.755  15.813  0.00  0.00    +0.000 HD
BRANCH  30  32
ATOM     32  O   UNL     1       7.405   5.434  14.597  0.00  0.00    +0.000 OA
ATOM     33  H   UNL     1       8.318   5.238  14.289  0.00  0.00    +0.000 HD
ENDBRANCH  30  32
ENDBRANCH  27  29
ENDBRANCH  26  27
ENDBRANCH  25  26
ENDBRANCH  24  25
ENDBRANCH  23  24
ENDBRANCH  22  23
ENDBRANCH   1  22
TORSDOF 10
ENDMDL
MODEL 7
REMARK VINA RESULT:      -7.4      2.335      2.842
REMARK  Name = 
REMARK  10 active torsions:
REMARK  status: ('A' for Active; 'I' for Inactive)
REMARK    1  A    between atoms: C_2  and  C_3
REMARK    2  A    between atoms: C_3  and  C_4
REMARK    3  A    between atoms: C_4  and  C_5
REMARK    4  A    between atoms: C_5  and  C_6
REMARK    5  A    between atoms: C_6  and  C_7
REMARK    6  A    between atoms: C_7  and  C_8
REMARK    7  A    between atoms: C_8  and  C_9
REMARK    8  A    between atoms: C_15  and  C_16
REMARK    9  A    between atoms: C_19  and  C_20
REMARK   10  A    between atoms: N_29  and  O_30
REMARK                            x       y       z     vdW  Elec       q    Type
REMARK                         _______ _______ _______ _____ _____    ______ ____
ROOT
ATOM      1  C   UNL     1       2.541   4.237  20.317  0.00  0.00    +0.000 C 
ATOM      2  O   UNL     1       1.635   4.120  21.137  0.00  0.00    +0.000 OA
ATOM      3  N   UNL     1       2.856   5.361  19.589  0.00  0.00    +0.000 N 
ATOM      4  C   UNL     1       2.288   6.600  19.750  0.00  0.00    +0.000 A 
ATOM      5  N   UNL     1       2.464   7.588  18.903  0.00  0.00    +0.000 NA
ATOM      6  N   UNL     1       1.777   8.728  19.289  0.00  0.00    +0.000 NA
ATOM      7  C   UNL     1       1.123   8.559  20.424  0.00  0.00    +0.000 A 
ATOM      8  S   UNL     1       1.373   7.008  21.122  0.00  0.00    +0.000 S 
ATOM      9  H   UNL     1       3.460   5.290  18.782  0.00  0.00    +0.000 HD
ENDROOT
BRANCH   7  10
ATOM     10  C   UNL     1       0.296   9.568  21.096  0.00  0.00    +0.000 A 
ATOM     11  C   UNL     1       0.080   9.554  22.481  0.00  0.00    +0.000 A 
ATOM     12  C   UNL     1      -0.710  10.530  23.100  0.00  0.00    +0.000 A 
ATOM     13  C   UNL     1      -1.310  11.565  22.366  0.00  0.00    +0.000 A 
ATOM     14  C   UNL     1      -1.093  11.568  20.977  0.00  0.00    +0.000 A 
ATOM     15  C   UNL     1      -0.315  10.581  20.351  0.00  0.00    +0.000 A 
BRANCH  13  16
ATOM     16  C   UNL     1      -2.145  12.593  23.035  0.00  0.00    +0.000 A 
ATOM     17  C   UNL     1      -1.576  13.757  23.587  0.00  0.00    +0.000 A 
ATOM     18  C   UNL     1      -2.355  14.711  24.251  0.00  0.00    +0.000 A 
ATOM     19  C   UNL     1      -3.728  14.531  24.362  0.00  0.00    +0.000 A 
ATOM     20  C   UNL     1      -4.321  13.400  23.813  0.00  0.00    +0.000 A 
ATOM     21  C   UNL     1      -3.537  12.441  23.163  0.00  0.00    +0.000 A 
ENDBRANCH  13  16
ENDBRANCH   7  10
BRANCH   1  22
ATOM     22  C   UNL     1       3.438   3.054  20.010  0.00  0.00    +0.000 C 
BRANCH  22  23
ATOM     23  C   UNL     1       4.459   3.401  18.931  0.00  0.00    +0.000 C 
BRANCH  23  24
ATOM     24  C   UNL     1       3.922   3.085  17.535  0.00  0.00    +0.000 C 
BRANCH  24  25
ATOM     25  C   UNL     1       4.468   4.064  16.493  0.00  0.00    +0.000 C 
BRANCH  25  26
ATOM     26  C   UNL     1       5.884   3.684  16.056  0.00  0.00    +0.000 C 
BRANCH  26  27
ATOM     27  C   UNL     1       6.657   4.906  15.565  0.00  0.00    +0.000 C 
BRANCH  27  29
ATOM     28  O   UNL     1       7.896   5.490  13.545  0.00  0.00    +0.000 OA
ATOM     29  C   UNL     1       7.069   4.785  14.117  0.00  0.00    +0.000 C 
ATOM     30  N   UNL     1       6.442   3.780  13.436  0.00  0.00    +0.000 N 
ATOM     31  H   UNL     1       5.684   3.200  13.775  0.00  0.00    +0.000 HD
BRANCH  30  32
ATOM     32  O   UNL     1       6.801   3.689  12.075  0.00  0.00    +0.000 OA
ATOM     33  H   UNL     1       7.595   4.267  12.023  0.00  0.00    +0.000 HD
ENDBRANCH  30  32
ENDBRANCH  27  29
ENDBRANCH  26  27
ENDBRANCH  25  26
ENDBRANCH  24  25
ENDBRANCH  23  24
ENDBRANCH  22  23
ENDBRANCH   1  22
TORSDOF 10
ENDMDL
MODEL 8
REMARK VINA RESULT:      -7.4      3.048      3.585
REMARK  Name = 
REMARK  10 active torsions:
REMARK  status: ('A' for Active; 'I' for Inactive)
REMARK    1  A    between atoms: C_2  and  C_3
REMARK    2  A    between atoms: C_3  and  C_4
REMARK    3  A    between atoms: C_4  and  C_5
REMARK    4  A    between atoms: C_5  and  C_6
REMARK    5  A    between atoms: C_6  and  C_7
REMARK    6  A    between atoms: C_7  and  C_8
REMARK    7  A    between atoms: C_8  and  C_9
REMARK    8  A    between atoms: C_15  and  C_16
REMARK    9  A    between atoms: C_19  and  C_20
REMARK   10  A    between atoms: N_29  and  O_30
REMARK                            x       y       z     vdW  Elec       q    Type
REMARK                         _______ _______ _______ _____ _____    ______ ____
ROOT
ATOM      1  C   UNL     1       3.226   4.786  19.083  0.00  0.00    +0.000 C 
ATOM      2  O   UNL     1       2.569   4.563  20.095  0.00  0.00    +0.000 OA
ATOM      3  N   UNL     1       3.203   5.930  18.318  0.00  0.00    +0.000 N 
ATOM      4  C   UNL     1       2.530   7.085  18.632  0.00  0.00    +0.000 A 
ATOM      5  N   UNL     1       2.363   8.073  17.783  0.00  0.00    +0.000 NA
ATOM      6  N   UNL     1       1.644   9.117  18.341  0.00  0.00    +0.000 NA
ATOM      7  C   UNL     1       1.312   8.882  19.598  0.00  0.00    +0.000 A 
ATOM      8  S   UNL     1       1.927   7.390  20.190  0.00  0.00    +0.000 S 
ATOM      9  H   UNL     1       3.598   5.927  17.389  0.00  0.00    +0.000 HD
ENDROOT
BRANCH   7  10
ATOM     10  C   UNL     1       0.545   9.783  20.466  0.00  0.00    +0.000 A 
ATOM     11  C   UNL     1      -0.010   9.357  21.681  0.00  0.00    +0.000 A 
ATOM     12  C   UNL     1      -0.735  10.236  22.494  0.00  0.00    +0.000 A 
ATOM     13  C   UNL     1      -0.929  11.579  22.134  0.00  0.00    +0.000 A 
ATOM     14  C   UNL     1      -0.374  11.996  20.912  0.00  0.00    +0.000 A 
ATOM     15  C   UNL     1       0.339  11.113  20.086  0.00  0.00    +0.000 A 
BRANCH  13  16
ATOM     16  C   UNL     1      -1.699  12.500  23.005  0.00  0.00    +0.000 A 
ATOM     17  C   UNL     1      -1.190  13.760  23.375  0.00  0.00    +0.000 A 
ATOM     18  C   UNL     1      -1.897  14.616  24.227  0.00  0.00    +0.000 A 
ATOM     19  C   UNL     1      -3.142  14.239  24.714  0.00  0.00    +0.000 A 
ATOM     20  C   UNL     1      -3.679  13.008  24.353  0.00  0.00    +0.000 A 
ATOM     21  C   UNL     1      -2.962  12.148  23.515  0.00  0.00    +0.000 A 
ENDBRANCH  13  16
ENDBRANCH   7  10
BRANCH   1  22
ATOM     22  C   UNL     1       4.171   3.729  18.550  0.00  0.00    +0.000 C 
BRANCH  22  23
ATOM     23  C   UNL     1       4.515   3.983  17.085  0.00  0.00    +0.000 C 
BRANCH  23  24
ATOM     24  C   UNL     1       5.966   4.437  16.926  0.00  0.00    +0.000 C 
BRANCH  24  25
ATOM     25  C   UNL     1       6.124   5.390  15.739  0.00  0.00    +0.000 C 
BRANCH  25  26
ATOM     26  C   UNL     1       5.538   4.792  14.459  0.00  0.00    +0.000 C 
BRANCH  26  27
ATOM     27  C   UNL     1       6.613   4.079  13.640  0.00  0.00    +0.000 C 
BRANCH  27  29
ATOM     28  O   UNL     1       6.655   2.561  11.729  0.00  0.00    +0.000 OA
ATOM     29  C   UNL     1       6.038   3.328  12.462  0.00  0.00    +0.000 C 
ATOM     30  N   UNL     1       4.707   3.554  12.247  0.00  0.00    +0.000 N 
ATOM     31  H   UNL     1       4.122   4.228  12.725  0.00  0.00    +0.000 HD
BRANCH  30  32
ATOM     32  O   UNL     1       4.178   2.881  11.126  0.00  0.00    +0.000 OA
ATOM     33  H   UNL     1       3.837   3.620  10.573  0.00  0.00    +0.000 HD
ENDBRANCH  30  32
ENDBRANCH  27  29
ENDBRANCH  26  27
ENDBRANCH  25  26
ENDBRANCH  24  25
ENDBRANCH  23  24
ENDBRANCH  22  23
ENDBRANCH   1  22
TORSDOF 10
ENDMDL
MODEL 9
REMARK VINA RESULT:      -7.4      2.830      4.167
REMARK  Name = 
REMARK  10 active torsions:
REMARK  status: ('A' for Active; 'I' for Inactive)
REMARK    1  A    between atoms: C_2  and  C_3
REMARK    2  A    between atoms: C_3  and  C_4
REMARK    3  A    between atoms: C_4  and  C_5
REMARK    4  A    between atoms: C_5  and  C_6
REMARK    5  A    between atoms: C_6  and  C_7
REMARK    6  A    between atoms: C_7  and  C_8
REMARK    7  A    between atoms: C_8  and  C_9
REMARK    8  A    between atoms: C_15  and  C_16
REMARK    9  A    between atoms: C_19  and  C_20
REMARK   10  A    between atoms: N_29  and  O_30
REMARK                            x       y       z     vdW  Elec       q    Type
REMARK                         _______ _______ _______ _____ _____    ______ ____
ROOT
ATOM      1  C   UNL     1       1.972   7.561  19.879  0.00  0.00    +0.000 C 
ATOM      2  O   UNL     1       1.620   8.259  18.933  0.00  0.00    +0.000 OA
ATOM      3  N   UNL     1       1.763   7.816  21.216  0.00  0.00    +0.000 N 
ATOM      4  C   UNL     1       1.002   8.839  21.723  0.00  0.00    +0.000 A 
ATOM      5  N   UNL     1       0.997   9.171  22.993  0.00  0.00    +0.000 NA
ATOM      6  N   UNL     1       0.153  10.240  23.245  0.00  0.00    +0.000 NA
ATOM      7  C   UNL     1      -0.461  10.662  22.154  0.00  0.00    +0.000 A 
ATOM      8  S   UNL     1      -0.089   9.720  20.765  0.00  0.00    +0.000 S 
ATOM      9  H   UNL     1       2.286   7.309  21.916  0.00  0.00    +0.000 HD
ENDROOT
BRANCH   7  10
ATOM     10  C   UNL     1      -1.411  11.778  22.081  0.00  0.00    +0.000 A 
ATOM     11  C   UNL     1      -2.324  12.050  23.110  0.00  0.00    +0.000 A 
ATOM     12  C   UNL     1      -3.218  13.123  23.018  0.00  0.00    +0.000 A 
ATOM     13  C   UNL     1      -3.234  13.975  21.902  0.00  0.00    +0.000 A 
ATOM     14  C   UNL     1      -2.319  13.691  20.874  0.00  0.00    +0.000 A 
ATOM     15  C   UNL     1      -1.432  12.606  20.954  0.00  0.00    +0.000 A 
BRANCH  13  16
ATOM     16  C   UNL     1      -4.187  15.108  21.819  0.00  0.00    +0.000 A 
ATOM     17  C   UNL     1      -3.739  16.439  21.714  0.00  0.00    +0.000 A 
ATOM     18  C   UNL     1      -4.634  17.514  21.673  0.00  0.00    +0.000 A 
ATOM     19  C   UNL     1      -6.003  17.280  21.716  0.00  0.00    +0.000 A 
ATOM     20  C   UNL     1      -6.476  15.975  21.803  0.00  0.00    +0.000 A 
ATOM     21  C   UNL     1      -5.578  14.904  21.860  0.00  0.00    +0.000 A 
ENDBRANCH  13  16
ENDBRANCH   7  10
BRANCH   1  22
ATOM     22  C   UNL     1       2.737   6.278  19.626  0.00  0.00    +0.000 C 
BRANCH  22  23
ATOM     23  C   UNL     1       2.415   5.225  20.683  0.00  0.00    +0.000 C 
BRANCH  23  24
ATOM     24  C   UNL     1       1.121   4.482  20.350  0.00  0.00    +0.000 C 
BRANCH  24  25
ATOM     25  C   UNL     1       1.372   2.984  20.162  0.00  0.00    +0.000 C 
BRANCH  25  26
ATOM     26  C   UNL     1       1.793   2.663  18.727  0.00  0.00    +0.000 C 
BRANCH  26  27
ATOM     27  C   UNL     1       2.989   1.712  18.702  0.00  0.00    +0.000 C 
BRANCH  27  29
ATOM     28  O   UNL     1       4.777   2.083  20.321  0.00  0.00    +0.000 OA
ATOM     29  C   UNL     1       4.245   2.350  19.247  0.00  0.00    +0.000 C 
ATOM     30  N   UNL     1       4.799   3.292  18.427  0.00  0.00    +0.000 N 
ATOM     31  H   UNL     1       4.404   3.656  17.569  0.00  0.00    +0.000 HD
BRANCH  30  32
ATOM     32  O   UNL     1       5.953   3.913  18.951  0.00  0.00    +0.000 OA
ATOM     33  H   UNL     1       6.127   4.627  18.298  0.00  0.00    +0.000 HD
ENDBRANCH  30  32
ENDBRANCH  27  29
ENDBRANCH  26  27
ENDBRANCH  25  26
ENDBRANCH  24  25
ENDBRANCH  23  24
ENDBRANCH  22  23
ENDBRANCH   1  22
TORSDOF 10
ENDMDL
