MODEL 1
REMARK VINA RESULT:      -8.5      0.000      0.000
REMARK  Name = 
REMARK  9 active torsions:
REMARK  status: ('A' for Active; 'I' for Inactive)
REMARK    1  A    between atoms: N_1  and  CA_2
REMARK    2  A    between atoms: CA_2  and  CB_3
REMARK    3  A    between atoms: CA_2  and  C_13
REMARK    4  A    between atoms: CB_3  and  CG_4
REMARK    5  A    between atoms: N_15  and  CA_16
REMARK    6  A    between atoms: CA_16  and  CB_17
REMARK    7  A    between atoms: CA_16  and  C_27
REMARK    8  A    between atoms: CB_17  and  CG_18
REMARK    9  A    between atoms: C_27  and  OXT_29
REMARK                            x       y       z     vdW  Elec       q    Type
REMARK                         _______ _______ _______ _____ _____    ______ ____
ROOT
ATOM      1  C   TRP A   1       2.163   4.986  18.349  0.00  0.00    +0.000 C 
ATOM      2  O   TRP A   1       1.219   4.739  17.596  0.00  0.00    +0.000 OA
ATOM      3  N   TRP A   2       3.345   4.291  18.268  0.00  0.00    +0.000 N 
ATOM      4  H   TRP A   2       4.127   4.506  18.878  0.00  0.00    +0.000 HD
ENDROOT
BRANCH   1   5
ATOM      5  CA  TRP A   1       2.105   6.052  19.470  0.00  0.00    +0.000 C 
BRANCH   5   6
ATOM      6  N   TRP A   1       2.814   5.527  20.661  0.00  0.00    +0.000 NA
ATOM      7  H1  TRP A   1       3.639   6.094  20.845  0.00  0.00    +0.000 HD
ATOM      8  H2  TRP A   1       3.141   4.581  20.448  0.00  0.00    +0.000 HD
ENDBRANCH   5   6
BRANCH   5   9
ATOM      9  CB  TRP A   1       2.692   7.367  18.921  0.00  0.00    +0.000 C 
BRANCH   9  10
ATOM     10  CG  TRP A   1       1.771   8.543  18.947  0.00  0.00    +0.000 A 
ATOM     11  CD1 TRP A   1       1.474   9.384  17.890  0.00  0.00    +0.000 A 
ATOM     12  NE1 TRP A   1       0.651  10.377  18.347  0.00  0.00    +0.000 N 
ATOM     13  CE2 TRP A   1       0.404  10.208  19.688  0.00  0.00    +0.000 A 
ATOM     14  CZ2 TRP A   1      -0.346  10.991  20.571  0.00  0.00    +0.000 A 
ATOM     15  CH2 TRP A   1      -0.425  10.571  21.902  0.00  0.00    +0.000 A 
ATOM     16  CZ3 TRP A   1       0.217   9.411  22.329  0.00  0.00    +0.000 A 
ATOM     17  CE3 TRP A   1       0.970   8.645  21.434  0.00  0.00    +0.000 A 
ATOM     18  CD2 TRP A   1       1.072   9.052  20.089  0.00  0.00    +0.000 A 
ATOM     19  HE1 TRP A   1       0.296  11.139  17.789  0.00  0.00    +0.000 HD
ENDBRANCH   9  10
ENDBRANCH   5   9
ENDBRANCH   1   5
BRANCH   3  20
ATOM     20  CA  TRP A   2       3.526   3.179  17.345  0.00  0.00    +0.000 C 
BRANCH  20  21
ATOM     21  C   TRP A   2       3.156   1.872  18.063  0.00  0.00    +0.000 C 
ATOM     22  O   TRP A   2       3.980   1.072  18.492  0.00  0.00    +0.000 OA
BRANCH  21  23
ATOM     23  OXT TRP A   2       1.827   1.676  18.223  0.00  0.00    +0.000 OA
ATOM     24  HXT TRP A   2       1.435   0.999  17.640  0.00  0.00    +0.000 HD
ENDBRANCH  21  23
ENDBRANCH  20  21
BRANCH  20  25
ATOM     25  CB  TRP A   2       4.929   3.167  16.740  0.00  0.00    +0.000 C 
BRANCH  25  26
ATOM     26  CG  TRP A   2       5.549   4.512  16.499  0.00  0.00    +0.000 A 
ATOM     27  CD1 TRP A   2       5.286   5.351  15.432  0.00  0.00    +0.000 A 
ATOM     28  NE1 TRP A   2       5.892   6.553  15.670  0.00  0.00    +0.000 N 
ATOM     29  CE2 TRP A   2       6.625   6.493  16.830  0.00  0.00    +0.000 A 
ATOM     30  CZ2 TRP A   2       7.393   7.482  17.456  0.00  0.00    +0.000 A 
ATOM     31  CH2 TRP A   2       8.096   7.122  18.608  0.00  0.00    +0.000 A 
ATOM     32  CZ3 TRP A   2       8.015   5.830  19.119  0.00  0.00    +0.000 A 
ATOM     33  CE3 TRP A   2       7.195   4.868  18.512  0.00  0.00    +0.000 A 
ATOM     34  CD2 TRP A   2       6.482   5.203  17.342  0.00  0.00    +0.000 A 
ATOM     35  HE1 TRP A   2       5.817   7.370  15.080  0.00  0.00    +0.000 HD
ENDBRANCH  25  26
ENDBRANCH  20  25
ENDBRANCH   3  20
TORSDOF 9
ENDMDL
MODEL 2
REMARK VINA RESULT:      -8.1      2.455      4.065
REMARK  Name = 
REMARK  9 active torsions:
REMARK  status: ('A' for Active; 'I' for Inactive)
REMARK    1  A    between atoms: N_1  and  CA_2
REMARK    2  A    between atoms: CA_2  and  CB_3
REMARK    3  A    between atoms: CA_2  and  C_13
REMARK    4  A    between atoms: CB_3  and  CG_4
REMARK    5  A    between atoms: N_15  and  CA_16
REMARK    6  A    between atoms: CA_16  and  CB_17
REMARK    7  A    between atoms: CA_16  and  C_27
REMARK    8  A    between atoms: CB_17  and  CG_18
REMARK    9  A    between atoms: C_27  and  OXT_29
REMARK                            x       y       z     vdW  Elec       q    Type
REMARK                         _______ _______ _______ _____ _____    ______ ____
ROOT
ATOM      1  C   TRP A   1       1.553   8.103  20.211  0.00  0.00    +0.000 C 
ATOM      2  O   TRP A   1       1.851   8.314  19.035  0.00  0.00    +0.000 OA
ATOM      3  N   TRP A   2       1.714   6.863  20.780  0.00  0.00    +0.000 N 
ATOM      4  H   TRP A   2       1.482   6.694  21.753  0.00  0.00    +0.000 HD
ENDROOT
BRANCH   1   5
ATOM      5  CA  TRP A   1       0.936   9.176  21.142  0.00  0.00    +0.000 C 
BRANCH   5   6
ATOM      6  N   TRP A   1       1.672   9.167  22.428  0.00  0.00    +0.000 NA
ATOM      7  H1  TRP A   1       2.063  10.091  22.605  0.00  0.00    +0.000 HD
ATOM      8  H2  TRP A   1       2.459   8.519  22.343  0.00  0.00    +0.000 HD
ENDBRANCH   5   6
BRANCH   5   9
ATOM      9  CB  TRP A   1       0.970  10.532  20.410  0.00  0.00    +0.000 C 
BRANCH   9  10
ATOM     10  CG  TRP A   1      -0.364  11.131  20.105  0.00  0.00    +0.000 A 
ATOM     11  CD1 TRP A   1      -1.072  12.018  20.896  0.00  0.00    +0.000 A 
ATOM     12  NE1 TRP A   1      -2.276  12.265  20.295  0.00  0.00    +0.000 N 
ATOM     13  CE2 TRP A   1      -2.378  11.551  19.126  0.00  0.00    +0.000 A 
ATOM     14  CZ2 TRP A   1      -3.432  11.468  18.210  0.00  0.00    +0.000 A 
ATOM     15  CH2 TRP A   1      -3.253  10.651  17.090  0.00  0.00    +0.000 A 
ATOM     16  CZ3 TRP A   1      -2.066   9.951  16.893  0.00  0.00    +0.000 A 
ATOM     17  CE3 TRP A   1      -1.025  10.039  17.823  0.00  0.00    +0.000 A 
ATOM     18  CD2 TRP A   1      -1.184  10.850  18.965  0.00  0.00    +0.000 A 
ATOM     19  HE1 TRP A   1      -2.999  12.862  20.668  0.00  0.00    +0.000 HD
ENDBRANCH   9  10
ENDBRANCH   5   9
ENDBRANCH   1   5
BRANCH   3  20
ATOM     20  CA  TRP A   2       2.174   5.715  20.012  0.00  0.00    +0.000 C 
BRANCH  20  21
ATOM     21  C   TRP A   2       1.544   4.440  20.595  0.00  0.00    +0.000 C 
ATOM     22  O   TRP A   2       0.590   3.859  20.092  0.00  0.00    +0.000 OA
BRANCH  21  23
ATOM     23  OXT TRP A   2       2.153   3.973  21.710  0.00  0.00    +0.000 OA
ATOM     24  HXT TRP A   2       2.920   4.496  22.012  0.00  0.00    +0.000 HD
ENDBRANCH  21  23
ENDBRANCH  20  21
BRANCH  20  25
ATOM     25  CB  TRP A   2       3.699   5.660  19.933  0.00  0.00    +0.000 C 
BRANCH  25  26
ATOM     26  CG  TRP A   2       4.267   4.790  18.849  0.00  0.00    +0.000 A 
ATOM     27  CD1 TRP A   2       4.421   3.418  18.903  0.00  0.00    +0.000 A 
ATOM     28  NE1 TRP A   2       4.784   2.977  17.660  0.00  0.00    +0.000 N 
ATOM     29  CE2 TRP A   2       4.960   4.042  16.812  0.00  0.00    +0.000 A 
ATOM     30  CZ2 TRP A   2       5.321   4.059  15.460  0.00  0.00    +0.000 A 
ATOM     31  CH2 TRP A   2       5.496   5.305  14.853  0.00  0.00    +0.000 A 
ATOM     32  CZ3 TRP A   2       5.296   6.482  15.569  0.00  0.00    +0.000 A 
ATOM     33  CE3 TRP A   2       4.880   6.446  16.907  0.00  0.00    +0.000 A 
ATOM     34  CD2 TRP A   2       4.706   5.201  17.547  0.00  0.00    +0.000 A 
ATOM     35  HE1 TRP A   2       4.908   2.008  17.399  0.00  0.00    +0.000 HD
ENDBRANCH  25  26
ENDBRANCH  20  25
ENDBRANCH   3  20
TORSDOF 9
ENDMDL
MODEL 3
REMARK VINA RESULT:      -8.1      4.491      7.674
REMARK  Name = 
REMARK  9 active torsions:
REMARK  status: ('A' for Active; 'I' for Inactive)
REMARK    1  A    between atoms: N_1  and  CA_2
REMARK    2  A    between atoms: CA_2  and  CB_3
REMARK    3  A    between atoms: CA_2  and  C_13
REMARK    4  A    between atoms: CB_3  and  CG_4
REMARK    5  A    between atoms: N_15  and  CA_16
REMARK    6  A    between atoms: CA_16  and  CB_17
REMARK    7  A    between atoms: CA_16  and  C_27
REMARK    8  A    between atoms: CB_17  and  CG_18
REMARK    9  A    between atoms: C_27  and  OXT_29
REMARK                            x       y       z     vdW  Elec       q    Type
REMARK                         _______ _______ _______ _____ _____    ______ ____
ROOT
ATOM      1  C   TRP A   1       7.930   7.880  18.039  0.00  0.00    +0.000 C 
ATOM      2  O   TRP A   1       8.292   7.057  18.881  0.00  0.00    +0.000 OA
ATOM      3  N   TRP A   2       6.973   7.574  17.103  0.00  0.00    +0.000 N 
ATOM      4  H   TRP A   2       6.664   8.257  16.419  0.00  0.00    +0.000 HD
ENDROOT
BRANCH   1   5
ATOM      5  CA  TRP A   1       8.532   9.302  17.920  0.00  0.00    +0.000 C 
BRANCH   5   6
ATOM      6  N   TRP A   1       7.434  10.260  17.645  0.00  0.00    +0.000 NA
ATOM      7  H1  TRP A   1       6.759   9.834  17.014  0.00  0.00    +0.000 HD
ATOM      8  H2  TRP A   1       7.829  11.070  17.162  0.00  0.00    +0.000 HD
ENDBRANCH   5   6
BRANCH   5   9
ATOM      9  CB  TRP A   1       9.320   9.605  19.209  0.00  0.00    +0.000 C 
BRANCH   9  10
ATOM     10  CG  TRP A   1       9.526  11.053  19.511  0.00  0.00    +0.000 A 
ATOM     11  CD1 TRP A   1       9.027  11.750  20.597  0.00  0.00    +0.000 A 
ATOM     12  NE1 TRP A   1       9.379  13.065  20.464  0.00  0.00    +0.000 N 
ATOM     13  CE2 TRP A   1      10.095  13.250  19.306  0.00  0.00    +0.000 A 
ATOM     14  CZ2 TRP A   1      10.625  14.419  18.751  0.00  0.00    +0.000 A 
ATOM     15  CH2 TRP A   1      11.320  14.305  17.543  0.00  0.00    +0.000 A 
ATOM     16  CZ3 TRP A   1      11.482  13.070  16.920  0.00  0.00    +0.000 A 
ATOM     17  CE3 TRP A   1      10.939  11.912  17.485  0.00  0.00    +0.000 A 
ATOM     18  CD2 TRP A   1      10.226  12.002  18.698  0.00  0.00    +0.000 A 
ATOM     19  HE1 TRP A   1       9.128  13.801  21.107  0.00  0.00    +0.000 HD
ENDBRANCH   9  10
ENDBRANCH   5   9
ENDBRANCH   1   5
BRANCH   3  20
ATOM     20  CA  TRP A   2       6.387   6.244  17.003  0.00  0.00    +0.000 C 
BRANCH  20  21
ATOM     21  C   TRP A   2       7.324   5.348  16.178  0.00  0.00    +0.000 C 
ATOM     22  O   TRP A   2       7.938   4.393  16.641  0.00  0.00    +0.000 OA
BRANCH  21  23
ATOM     23  OXT TRP A   2       7.399   5.672  14.866  0.00  0.00    +0.000 OA
ATOM     24  HXT TRP A   2       6.730   5.245  14.296  0.00  0.00    +0.000 HD
ENDBRANCH  21  23
ENDBRANCH  20  21
BRANCH  20  25
ATOM     25  CB  TRP A   2       4.958   6.293  16.464  0.00  0.00    +0.000 C 
BRANCH  25  26
ATOM     26  CG  TRP A   2       3.876   5.961  17.448  0.00  0.00    +0.000 A 
ATOM     27  CD1 TRP A   2       3.212   6.858  18.263  0.00  0.00    +0.000 A 
ATOM     28  NE1 TRP A   2       2.172   6.206  18.866  0.00  0.00    +0.000 N 
ATOM     29  CE2 TRP A   2       2.193   4.873  18.533  0.00  0.00    +0.000 A 
ATOM     30  CZ2 TRP A   2       1.325   3.843  18.912  0.00  0.00    +0.000 A 
ATOM     31  CH2 TRP A   2       1.625   2.550  18.475  0.00  0.00    +0.000 A 
ATOM     32  CZ3 TRP A   2       2.739   2.308  17.676  0.00  0.00    +0.000 A 
ATOM     33  CE3 TRP A   2       3.567   3.361  17.260  0.00  0.00    +0.000 A 
ATOM     34  CD2 TRP A   2       3.290   4.674  17.695  0.00  0.00    +0.000 A 
ATOM     35  HE1 TRP A   2       1.487   6.635  19.471  0.00  0.00    +0.000 HD
ENDBRANCH  25  26
ENDBRANCH  20  25
ENDBRANCH   3  20
TORSDOF 9
ENDMDL
MODEL 4
REMARK VINA RESULT:      -8.1      4.499      7.345
REMARK  Name = 
REMARK  9 active torsions:
REMARK  status: ('A' for Active; 'I' for Inactive)
REMARK    1  A    between atoms: N_1  and  CA_2
REMARK    2  A    between atoms: CA_2  and  CB_3
REMARK    3  A    between atoms: CA_2  and  C_13
REMARK    4  A    between atoms: CB_3  and  CG_4
REMARK    5  A    between atoms: N_15  and  CA_16
REMARK    6  A    between atoms: CA_16  and  CB_17
REMARK    7  A    between atoms: CA_16  and  C_27
REMARK    8  A    between atoms: CB_17  and  CG_18
REMARK    9  A    between atoms: C_27  and  OXT_29
REMARK                            x       y       z     vdW  Elec       q    Type
REMARK                         _______ _______ _______ _____ _____    ______ ____
ROOT
ATOM      1  C   TRP A   1       7.919   7.835  18.008  0.00  0.00    +0.000 C 
ATOM      2  O   TRP A   1       8.358   7.056  18.855  0.00  0.00    +0.000 OA
ATOM      3  N   TRP A   2       6.917   7.463  17.144  0.00  0.00    +0.000 N 
ATOM      4  H   TRP A   2       6.545   8.110  16.456  0.00  0.00    +0.000 HD
ENDROOT
BRANCH   1   5
ATOM      5  CA  TRP A   1       8.464   9.269  17.800  0.00  0.00    +0.000 C 
BRANCH   5   6
ATOM      6  N   TRP A   1       7.336  10.157  17.430  0.00  0.00    +0.000 NA
ATOM      7  H1  TRP A   1       6.455   9.668  17.576  0.00  0.00    +0.000 HD
ATOM      8  H2  TRP A   1       7.404  10.363  16.431  0.00  0.00    +0.000 HD
ENDBRANCH   5   6
BRANCH   5   9
ATOM      9  CB  TRP A   1       9.204   9.698  19.082  0.00  0.00    +0.000 C 
BRANCH   9  10
ATOM     10  CG  TRP A   1       9.842  11.047  19.035  0.00  0.00    +0.000 A 
ATOM     11  CD1 TRP A   1      10.666  11.538  18.038  0.00  0.00    +0.000 A 
ATOM     12  NE1 TRP A   1      11.099  12.782  18.410  0.00  0.00    +0.000 N 
ATOM     13  CE2 TRP A   1      10.581  13.117  19.637  0.00  0.00    +0.000 A 
ATOM     14  CZ2 TRP A   1      10.777  14.263  20.415  0.00  0.00    +0.000 A 
ATOM     15  CH2 TRP A   1      10.111  14.334  21.641  0.00  0.00    +0.000 A 
ATOM     16  CZ3 TRP A   1       9.278  13.303  22.069  0.00  0.00    +0.000 A 
ATOM     17  CE3 TRP A   1       9.100  12.160  21.282  0.00  0.00    +0.000 A 
ATOM     18  CD2 TRP A   1       9.768  12.061  20.045  0.00  0.00    +0.000 A 
ATOM     19  HE1 TRP A   1      11.729  13.360  17.875  0.00  0.00    +0.000 HD
ENDBRANCH   9  10
ENDBRANCH   5   9
ENDBRANCH   1   5
BRANCH   3  20
ATOM     20  CA  TRP A   2       6.372   6.113  17.129  0.00  0.00    +0.000 C 
BRANCH  20  21
ATOM     21  C   TRP A   2       7.266   5.224  16.250  0.00  0.00    +0.000 C 
ATOM     22  O   TRP A   2       7.439   5.404  15.050  0.00  0.00    +0.000 OA
BRANCH  21  23
ATOM     23  OXT TRP A   2       7.892   4.226  16.916  0.00  0.00    +0.000 OA
ATOM     24  HXT TRP A   2       8.827   4.090  16.672  0.00  0.00    +0.000 HD
ENDBRANCH  21  23
ENDBRANCH  20  21
BRANCH  20  25
ATOM     25  CB  TRP A   2       4.902   6.100  16.713  0.00  0.00    +0.000 C 
BRANCH  25  26
ATOM     26  CG  TRP A   2       4.061   5.012  17.314  0.00  0.00    +0.000 A 
ATOM     27  CD1 TRP A   2       4.003   3.698  16.887  0.00  0.00    +0.000 A 
ATOM     28  NE1 TRP A   2       3.284   2.980  17.802  0.00  0.00    +0.000 N 
ATOM     29  CE2 TRP A   2       2.790   3.813  18.777  0.00  0.00    +0.000 A 
ATOM     30  CZ2 TRP A   2       2.015   3.513  19.902  0.00  0.00    +0.000 A 
ATOM     31  CH2 TRP A   2       1.591   4.579  20.699  0.00  0.00    +0.000 A 
ATOM     32  CZ3 TRP A   2       1.950   5.888  20.389  0.00  0.00    +0.000 A 
ATOM     33  CE3 TRP A   2       2.775   6.165  19.289  0.00  0.00    +0.000 A 
ATOM     34  CD2 TRP A   2       3.208   5.107  18.463  0.00  0.00    +0.000 A 
ATOM     35  HE1 TRP A   2       3.131   1.982  17.770  0.00  0.00    +0.000 HD
ENDBRANCH  25  26
ENDBRANCH  20  25
ENDBRANCH   3  20
TORSDOF 9
ENDMDL
MODEL 5
REMARK VINA RESULT:      -8.0      4.441      7.577
REMARK  Name = 
REMARK  9 active torsions:
REMARK  status: ('A' for Active; 'I' for Inactive)
REMARK    1  A    between atoms: N_1  and  CA_2
REMARK    2  A    between atoms: CA_2  and  CB_3
REMARK    3  A    between atoms: CA_2  and  C_13
REMARK    4  A    between atoms: CB_3  and  CG_4
REMARK    5  A    between atoms: N_15  and  CA_16
REMARK    6  A    between atoms: CA_16  and  CB_17
REMARK    7  A    between atoms: CA_16  and  C_27
REMARK    8  A    between atoms: CB_17  and  CG_18
REMARK    9  A    between atoms: C_27  and  OXT_29
REMARK                            x       y       z     vdW  Elec       q    Type
REMARK                         _______ _______ _______ _____ _____    ______ ____
ROOT
ATOM      1  C   TRP A   1       7.937   7.804  18.086  0.00  0.00    +0.000 C 
ATOM      2  O   TRP A   1       8.316   6.999  18.939  0.00  0.00    +0.000 OA
ATOM      3  N   TRP A   2       6.980   7.468  17.159  0.00  0.00    +0.000 N 
ATOM      4  H   TRP A   2       6.658   8.136  16.466  0.00  0.00    +0.000 HD
ENDROOT
BRANCH   1   5
ATOM      5  CA  TRP A   1       8.518   9.232  17.940  0.00  0.00    +0.000 C 
BRANCH   5   6
ATOM      6  N   TRP A   1       7.404  10.169  17.659  0.00  0.00    +0.000 NA
ATOM      7  H1  TRP A   1       7.432  10.942  18.321  0.00  0.00    +0.000 HD
ATOM      8  H2  TRP A   1       6.522   9.674  17.812  0.00  0.00    +0.000 HD
ENDBRANCH   5   6
BRANCH   5   9
ATOM      9  CB  TRP A   1       9.310   9.566  19.219  0.00  0.00    +0.000 C 
BRANCH   9  10
ATOM     10  CG  TRP A   1       9.478  11.022  19.509  0.00  0.00    +0.000 A 
ATOM     11  CD1 TRP A   1       8.952  11.717  20.583  0.00  0.00    +0.000 A 
ATOM     12  NE1 TRP A   1       9.274  13.039  20.440  0.00  0.00    +0.000 N 
ATOM     13  CE2 TRP A   1       9.997  13.229  19.287  0.00  0.00    +0.000 A 
ATOM     14  CZ2 TRP A   1      10.504  14.406  18.726  0.00  0.00    +0.000 A 
ATOM     15  CH2 TRP A   1      11.214  14.297  17.527  0.00  0.00    +0.000 A 
ATOM     16  CZ3 TRP A   1      11.412  13.060  16.918  0.00  0.00    +0.000 A 
ATOM     17  CE3 TRP A   1      10.891  11.895  17.489  0.00  0.00    +0.000 A 
ATOM     18  CD2 TRP A   1      10.164  11.980  18.694  0.00  0.00    +0.000 A 
ATOM     19  HE1 TRP A   1       8.999  13.775  21.073  0.00  0.00    +0.000 HD
ENDBRANCH   9  10
ENDBRANCH   5   9
ENDBRANCH   1   5
BRANCH   3  20
ATOM     20  CA  TRP A   2       6.414   6.128  17.084  0.00  0.00    +0.000 C 
BRANCH  20  21
ATOM     21  C   TRP A   2       7.315   5.256  16.195  0.00  0.00    +0.000 C 
ATOM     22  O   TRP A   2       7.547   5.496  15.015  0.00  0.00    +0.000 OA
BRANCH  21  23
ATOM     23  OXT TRP A   2       7.875   4.200  16.829  0.00  0.00    +0.000 OA
ATOM     24  HXT TRP A   2       8.232   4.393  17.717  0.00  0.00    +0.000 HD
ENDBRANCH  21  23
ENDBRANCH  20  21
BRANCH  20  25
ATOM     25  CB  TRP A   2       4.954   6.154  16.634  0.00  0.00    +0.000 C 
BRANCH  25  26
ATOM     26  CG  TRP A   2       4.061   5.117  17.249  0.00  0.00    +0.000 A 
ATOM     27  CD1 TRP A   2       3.955   3.796  16.854  0.00  0.00    +0.000 A 
ATOM     28  NE1 TRP A   2       3.194   3.132  17.776  0.00  0.00    +0.000 N 
ATOM     29  CE2 TRP A   2       2.722   4.009  18.723  0.00  0.00    +0.000 A 
ATOM     30  CZ2 TRP A   2       1.919   3.770  19.843  0.00  0.00    +0.000 A 
ATOM     31  CH2 TRP A   2       1.530   4.873  20.608  0.00  0.00    +0.000 A 
ATOM     32  CZ3 TRP A   2       1.946   6.157  20.270  0.00  0.00    +0.000 A 
ATOM     33  CE3 TRP A   2       2.797   6.372  19.176  0.00  0.00    +0.000 A 
ATOM     34  CD2 TRP A   2       3.197   5.276  18.383  0.00  0.00    +0.000 A 
ATOM     35  HE1 TRP A   2       3.001   2.140  17.767  0.00  0.00    +0.000 HD
ENDBRANCH  25  26
ENDBRANCH  20  25
ENDBRANCH   3  20
TORSDOF 9
ENDMDL
MODEL 6
REMARK VINA RESULT:      -8.0      4.164      7.168
REMARK  Name = 
REMARK  9 active torsions:
REMARK  status: ('A' for Active; 'I' for Inactive)
REMARK    1  A    between atoms: N_1  and  CA_2
REMARK    2  A    between atoms: CA_2  and  CB_3
REMARK    3  A    between atoms: CA_2  and  C_13
REMARK    4  A    between atoms: CB_3  and  CG_4
REMARK    5  A    between atoms: N_15  and  CA_16
REMARK    6  A    between atoms: CA_16  and  CB_17
REMARK    7  A    between atoms: CA_16  and  C_27
REMARK    8  A    between atoms: CB_17  and  CG_18
REMARK    9  A    between atoms: C_27  and  OXT_29
REMARK                            x       y       z     vdW  Elec       q    Type
REMARK                         _______ _______ _______ _____ _____    ______ ____
ROOT
ATOM      1  C   TRP A   1       7.612   7.291  17.816  0.00  0.00    +0.000 C 
ATOM      2  O   TRP A   1       7.970   6.539  18.724  0.00  0.00    +0.000 OA
ATOM      3  N   TRP A   2       6.709   6.885  16.864  0.00  0.00    +0.000 N 
ATOM      4  H   TRP A   2       6.402   7.509  16.124  0.00  0.00    +0.000 HD
ENDROOT
BRANCH   1   5
ATOM      5  CA  TRP A   1       8.162   8.725  17.627  0.00  0.00    +0.000 C 
BRANCH   5   6
ATOM      6  N   TRP A   1       7.043   9.613  17.231  0.00  0.00    +0.000 NA
ATOM      7  H1  TRP A   1       7.401  10.388  16.676  0.00  0.00    +0.000 HD
ATOM      8  H2  TRP A   1       6.636  10.014  18.080  0.00  0.00    +0.000 HD
ENDBRANCH   5   6
BRANCH   5   9
ATOM      9  CB  TRP A   1       8.868   9.150  18.930  0.00  0.00    +0.000 C 
BRANCH   9  10
ATOM     10  CG  TRP A   1       9.440  10.529  18.930  0.00  0.00    +0.000 A 
ATOM     11  CD1 TRP A   1      10.125  11.141  17.895  0.00  0.00    +0.000 A 
ATOM     12  NE1 TRP A   1      10.546  12.370  18.324  0.00  0.00    +0.000 N 
ATOM     13  CE2 TRP A   1      10.155  12.578  19.625  0.00  0.00    +0.000 A 
ATOM     14  CZ2 TRP A   1      10.389  13.666  20.473  0.00  0.00    +0.000 A 
ATOM     15  CH2 TRP A   1       9.862  13.604  21.766  0.00  0.00    +0.000 A 
ATOM     16  CZ3 TRP A   1       9.126  12.500  22.190  0.00  0.00    +0.000 A 
ATOM     17  CE3 TRP A   1       8.909  11.417  21.332  0.00  0.00    +0.000 A 
ATOM     18  CD2 TRP A   1       9.437  11.453  20.026  0.00  0.00    +0.000 A 
ATOM     19  HE1 TRP A   1      11.087  13.022  17.776  0.00  0.00    +0.000 HD
ENDBRANCH   9  10
ENDBRANCH   5   9
ENDBRANCH   1   5
BRANCH   3  20
ATOM     20  CA  TRP A   2       6.181   5.527  16.828  0.00  0.00    +0.000 C 
BRANCH  20  21
ATOM     21  C   TRP A   2       6.814   4.777  15.646  0.00  0.00    +0.000 C 
ATOM     22  O   TRP A   2       6.496   3.643  15.308  0.00  0.00    +0.000 OA
BRANCH  21  23
ATOM     23  OXT TRP A   2       7.745   5.486  14.966  0.00  0.00    +0.000 OA
ATOM     24  HXT TRP A   2       7.388   6.155  14.352  0.00  0.00    +0.000 HD
ENDBRANCH  21  23
ENDBRANCH  20  21
BRANCH  20  25
ATOM     25  CB  TRP A   2       4.653   5.513  16.811  0.00  0.00    +0.000 C 
BRANCH  25  26
ATOM     26  CG  TRP A   2       3.986   5.314  18.140  0.00  0.00    +0.000 A 
ATOM     27  CD1 TRP A   2       4.236   6.034  19.293  0.00  0.00    +0.000 A 
ATOM     28  NE1 TRP A   2       3.297   5.691  20.227  0.00  0.00    +0.000 N 
ATOM     29  CE2 TRP A   2       2.489   4.691  19.742  0.00  0.00    +0.000 A 
ATOM     30  CZ2 TRP A   2       1.405   4.045  20.345  0.00  0.00    +0.000 A 
ATOM     31  CH2 TRP A   2       0.797   3.004  19.639  0.00  0.00    +0.000 A 
ATOM     32  CZ3 TRP A   2       1.248   2.642  18.373  0.00  0.00    +0.000 A 
ATOM     33  CE3 TRP A   2       2.301   3.338  17.760  0.00  0.00    +0.000 A 
ATOM     34  CD2 TRP A   2       2.937   4.387  18.456  0.00  0.00    +0.000 A 
ATOM     35  HE1 TRP A   2       3.208   6.106  21.144  0.00  0.00    +0.000 HD
ENDBRANCH  25  26
ENDBRANCH  20  25
ENDBRANCH   3  20
TORSDOF 9
ENDMDL
MODEL 7
REMARK VINA RESULT:      -8.0      2.202      7.241
REMARK  Name = 
REMARK  9 active torsions:
REMARK  status: ('A' for Active; 'I' for Inactive)
REMARK    1  A    between atoms: N_1  and  CA_2
REMARK    2  A    between atoms: CA_2  and  CB_3
REMARK    3  A    between atoms: CA_2  and  C_13
REMARK    4  A    between atoms: CB_3  and  CG_4
REMARK    5  A    between atoms: N_15  and  CA_16
REMARK    6  A    between atoms: CA_16  and  CB_17
REMARK    7  A    between atoms: CA_16  and  C_27
REMARK    8  A    between atoms: CB_17  and  CG_18
REMARK    9  A    between atoms: C_27  and  OXT_29
REMARK                            x       y       z     vdW  Elec       q    Type
REMARK                         _______ _______ _______ _____ _____    ______ ____
ROOT
ATOM      1  C   TRP A   1       4.111   3.368  18.913  0.00  0.00    +0.000 C 
ATOM      2  O   TRP A   1       5.024   3.137  19.709  0.00  0.00    +0.000 OA
ATOM      3  N   TRP A   2       2.967   4.018  19.306  0.00  0.00    +0.000 N 
ATOM      4  H   TRP A   2       2.221   4.221  18.647  0.00  0.00    +0.000 HD
ENDROOT
BRANCH   1   5
ATOM      5  CA  TRP A   1       4.135   2.920  17.432  0.00  0.00    +0.000 C 
BRANCH   5   6
ATOM      6  N   TRP A   1       3.035   1.951  17.212  0.00  0.00    +0.000 NA
ATOM      7  H1  TRP A   1       2.157   2.452  17.094  0.00  0.00    +0.000 HD
ATOM      8  H2  TRP A   1       2.942   1.375  18.052  0.00  0.00    +0.000 HD
ENDBRANCH   5   6
BRANCH   5   9
ATOM      9  CB  TRP A   1       4.050   4.177  16.543  0.00  0.00    +0.000 C 
BRANCH   9  10
ATOM     10  CG  TRP A   1       5.329   4.593  15.895  0.00  0.00    +0.000 A 
ATOM     11  CD1 TRP A   1       6.315   5.390  16.449  0.00  0.00    +0.000 A 
ATOM     12  NE1 TRP A   1       7.284   5.595  15.504  0.00  0.00    +0.000 N 
ATOM     13  CE2 TRP A   1       6.951   4.953  14.336  0.00  0.00    +0.000 A 
ATOM     14  CZ2 TRP A   1       7.619   4.914  13.108  0.00  0.00    +0.000 A 
ATOM     15  CH2 TRP A   1       7.038   4.169  12.078  0.00  0.00    +0.000 A 
ATOM     16  CZ3 TRP A   1       5.840   3.485  12.273  0.00  0.00    +0.000 A 
ATOM     17  CE3 TRP A   1       5.181   3.542  13.505  0.00  0.00    +0.000 A 
ATOM     18  CD2 TRP A   1       5.743   4.295  14.556  0.00  0.00    +0.000 A 
ATOM     19  HE1 TRP A   1       8.111   6.158  15.634  0.00  0.00    +0.000 HD
ENDBRANCH   9  10
ENDBRANCH   5   9
ENDBRANCH   1   5
BRANCH   3  20
ATOM     20  CA  TRP A   2       2.734   4.406  20.690  0.00  0.00    +0.000 C 
BRANCH  20  21
ATOM     21  C   TRP A   2       2.236   3.181  21.473  0.00  0.00    +0.000 C 
ATOM     22  O   TRP A   2       1.055   2.871  21.579  0.00  0.00    +0.000 OA
BRANCH  21  23
ATOM     23  OXT TRP A   2       3.219   2.429  22.022  0.00  0.00    +0.000 OA
ATOM     24  HXT TRP A   2       4.065   2.894  22.165  0.00  0.00    +0.000 HD
ENDBRANCH  21  23
ENDBRANCH  20  21
BRANCH  20  25
ATOM     25  CB  TRP A   2       1.804   5.613  20.792  0.00  0.00    +0.000 C 
BRANCH  25  26
ATOM     26  CG  TRP A   2       2.100   6.748  19.856  0.00  0.00    +0.000 A 
ATOM     27  CD1 TRP A   2       2.885   6.683  18.720  0.00  0.00    +0.000 A 
ATOM     28  NE1 TRP A   2       2.751   7.860  18.037  0.00  0.00    +0.000 N 
ATOM     29  CE2 TRP A   2       1.965   8.734  18.747  0.00  0.00    +0.000 A 
ATOM     30  CZ2 TRP A   2       1.560  10.035  18.430  0.00  0.00    +0.000 A 
ATOM     31  CH2 TRP A   2       0.806  10.729  19.379  0.00  0.00    +0.000 A 
ATOM     32  CZ3 TRP A   2       0.456  10.132  20.587  0.00  0.00    +0.000 A 
ATOM     33  CE3 TRP A   2       0.822   8.806  20.865  0.00  0.00    +0.000 A 
ATOM     34  CD2 TRP A   2       1.592   8.088  19.926  0.00  0.00    +0.000 A 
ATOM     35  HE1 TRP A   2       3.170   8.065  17.141  0.00  0.00    +0.000 HD
ENDBRANCH  25  26
ENDBRANCH  20  25
ENDBRANCH   3  20
TORSDOF 9
ENDMDL
MODEL 8
REMARK VINA RESULT:      -7.9      4.392      7.189
REMARK  Name = 
REMARK  9 active torsions:
REMARK  status: ('A' for Active; 'I' for Inactive)
REMARK    1  A    between atoms: N_1  and  CA_2
REMARK    2  A    between atoms: CA_2  and  CB_3
REMARK    3  A    between atoms: CA_2  and  C_13
REMARK    4  A    between atoms: CB_3  and  CG_4
REMARK    5  A    between atoms: N_15  and  CA_16
REMARK    6  A    between atoms: CA_16  and  CB_17
REMARK    7  A    between atoms: CA_16  and  C_27
REMARK    8  A    between atoms: CB_17  and  CG_18
REMARK    9  A    between atoms: C_27  and  OXT_29
REMARK                            x       y       z     vdW  Elec       q    Type
REMARK                         _______ _______ _______ _____ _____    ______ ____
ROOT
ATOM      1  C   TRP A   1       7.862   7.552  18.065  0.00  0.00    +0.000 C 
ATOM      2  O   TRP A   1       8.325   6.815  18.938  0.00  0.00    +0.000 OA
ATOM      3  N   TRP A   2       6.871   7.123  17.217  0.00  0.00    +0.000 N 
ATOM      4  H   TRP A   2       6.479   7.735  16.508  0.00  0.00    +0.000 HD
ENDROOT
BRANCH   1   5
ATOM      5  CA  TRP A   1       8.366   8.993  17.807  0.00  0.00    +0.000 C 
BRANCH   5   6
ATOM      6  N   TRP A   1       7.212   9.836  17.414  0.00  0.00    +0.000 NA
ATOM      7  H1  TRP A   1       7.221   9.980  16.407  0.00  0.00    +0.000 HD
ATOM      8  H2  TRP A   1       7.322  10.754  17.851  0.00  0.00    +0.000 HD
ENDBRANCH   5   6
BRANCH   5   9
ATOM      9  CB  TRP A   1       9.099   9.484  19.071  0.00  0.00    +0.000 C 
BRANCH   9  10
ATOM     10  CG  TRP A   1       9.668  10.862  18.989  0.00  0.00    +0.000 A 
ATOM     11  CD1 TRP A   1      10.374  11.404  17.929  0.00  0.00    +0.000 A 
ATOM     12  NE1 TRP A   1      10.783  12.661  18.281  0.00  0.00    +0.000 N 
ATOM     13  CE2 TRP A   1      10.365  12.957  19.556  0.00  0.00    +0.000 A 
ATOM     14  CZ2 TRP A   1      10.578  14.101  20.331  0.00  0.00    +0.000 A 
ATOM     15  CH2 TRP A   1      10.025  14.126  21.614  0.00  0.00    +0.000 A 
ATOM     16  CZ3 TRP A   1       9.282  13.051  22.098  0.00  0.00    +0.000 A 
ATOM     17  CE3 TRP A   1       9.084  11.912  21.312  0.00  0.00    +0.000 A 
ATOM     18  CD2 TRP A   1       9.641  11.859  20.018  0.00  0.00    +0.000 A 
ATOM     19  HE1 TRP A   1      11.335  13.275  17.701  0.00  0.00    +0.000 HD
ENDBRANCH   9  10
ENDBRANCH   5   9
ENDBRANCH   1   5
BRANCH   3  20
ATOM     20  CA  TRP A   2       6.363   5.758  17.249  0.00  0.00    +0.000 C 
BRANCH  20  21
ATOM     21  C   TRP A   2       7.287   4.863  16.407  0.00  0.00    +0.000 C 
ATOM     22  O   TRP A   2       7.301   4.859  15.181  0.00  0.00    +0.000 OA
BRANCH  21  23
ATOM     23  OXT TRP A   2       8.129   4.088  17.129  0.00  0.00    +0.000 OA
ATOM     24  HXT TRP A   2       8.025   4.156  18.097  0.00  0.00    +0.000 HD
ENDBRANCH  21  23
ENDBRANCH  20  21
BRANCH  20  25
ATOM     25  CB  TRP A   2       4.897   5.687  16.827  0.00  0.00    +0.000 C 
BRANCH  25  26
ATOM     26  CG  TRP A   2       3.894   6.033  17.889  0.00  0.00    +0.000 A 
ATOM     27  CD1 TRP A   2       3.235   7.241  18.024  0.00  0.00    +0.000 A 
ATOM     28  NE1 TRP A   2       2.268   7.098  18.981  0.00  0.00    +0.000 N 
ATOM     29  CE2 TRP A   2       2.338   5.846  19.543  0.00  0.00    +0.000 A 
ATOM     30  CZ2 TRP A   2       1.548   5.269  20.543  0.00  0.00    +0.000 A 
ATOM     31  CH2 TRP A   2       1.888   3.984  20.975  0.00  0.00    +0.000 A 
ATOM     32  CZ3 TRP A   2       2.963   3.303  20.411  0.00  0.00    +0.000 A 
ATOM     33  CE3 TRP A   2       3.708   3.875  19.370  0.00  0.00    +0.000 A 
ATOM     34  CD2 TRP A   2       3.392   5.174  18.922  0.00  0.00    +0.000 A 
ATOM     35  HE1 TRP A   2       1.599   7.808  19.244  0.00  0.00    +0.000 HD
ENDBRANCH  25  26
ENDBRANCH  20  25
ENDBRANCH   3  20
TORSDOF 9
ENDMDL
MODEL 9
REMARK VINA RESULT:      -7.8      2.698      4.143
REMARK  Name = 
REMARK  9 active torsions:
REMARK  status: ('A' for Active; 'I' for Inactive)
REMARK    1  A    between atoms: N_1  and  CA_2
REMARK    2  A    between atoms: CA_2  and  CB_3
REMARK    3  A    between atoms: CA_2  and  C_13
REMARK    4  A    between atoms: CB_3  and  CG_4
REMARK    5  A    between atoms: N_15  and  CA_16
REMARK    6  A    between atoms: CA_16  and  CB_17
REMARK    7  A    between atoms: CA_16  and  C_27
REMARK    8  A    between atoms: CB_17  and  CG_18
REMARK    9  A    between atoms: C_27  and  OXT_29
REMARK                            x       y       z     vdW  Elec       q    Type
REMARK                         _______ _______ _______ _____ _____    ______ ____
ROOT
ATOM      1  C   TRP A   1       2.489   8.214  17.955  0.00  0.00    +0.000 C 
ATOM      2  O   TRP A   1       3.379   8.163  17.104  0.00  0.00    +0.000 OA
ATOM      3  N   TRP A   2       2.162   7.117  18.715  0.00  0.00    +0.000 N 
ATOM      4  H   TRP A   2       1.439   7.162  19.426  0.00  0.00    +0.000 HD
ENDROOT
BRANCH   1   5
ATOM      5  CA  TRP A   1       1.634   9.476  18.225  0.00  0.00    +0.000 C 
BRANCH   5   6
ATOM      6  N   TRP A   1       2.305  10.644  17.606  0.00  0.00    +0.000 NA
ATOM      7  H1  TRP A   1       3.140  10.881  18.139  0.00  0.00    +0.000 HD
ATOM      8  H2  TRP A   1       1.673  11.445  17.665  0.00  0.00    +0.000 HD
ENDBRANCH   5   6
BRANCH   5   9
ATOM      9  CB  TRP A   1       0.209   9.218  17.695  0.00  0.00    +0.000 C 
BRANCH   9  10
ATOM     10  CG  TRP A   1      -0.833  10.179  18.164  0.00  0.00    +0.000 A 
ATOM     11  CD1 TRP A   1      -0.844  10.867  19.365  0.00  0.00    +0.000 A 
ATOM     12  NE1 TRP A   1      -2.007  11.583  19.441  0.00  0.00    +0.000 N 
ATOM     13  CE2 TRP A   1      -2.767  11.375  18.315  0.00  0.00    +0.000 A 
ATOM     14  CZ2 TRP A   1      -4.031  11.869  17.978  0.00  0.00    +0.000 A 
ATOM     15  CH2 TRP A   1      -4.569  11.484  16.747  0.00  0.00    +0.000 A 
ATOM     16  CZ3 TRP A   1      -3.867  10.644  15.886  0.00  0.00    +0.000 A 
ATOM     17  CE3 TRP A   1      -2.607  10.153  16.243  0.00  0.00    +0.000 A 
ATOM     18  CD2 TRP A   1      -2.047  10.519  17.484  0.00  0.00    +0.000 A 
ATOM     19  HE1 TRP A   1      -2.283  12.160  20.221  0.00  0.00    +0.000 HD
ENDBRANCH   9  10
ENDBRANCH   5   9
ENDBRANCH   1   5
BRANCH   3  20
ATOM     20  CA  TRP A   2       2.790   5.819  18.509  0.00  0.00    +0.000 C 
BRANCH  20  21
ATOM     21  C   TRP A   2       1.719   4.723  18.623  0.00  0.00    +0.000 C 
ATOM     22  O   TRP A   2       1.229   4.355  19.685  0.00  0.00    +0.000 OA
BRANCH  21  23
ATOM     23  OXT TRP A   2       1.317   4.205  17.439  0.00  0.00    +0.000 OA
ATOM     24  HXT TRP A   2       1.744   4.594  16.652  0.00  0.00    +0.000 HD
ENDBRANCH  21  23
ENDBRANCH  20  21
BRANCH  20  25
ATOM     25  CB  TRP A   2       3.979   5.610  19.446  0.00  0.00    +0.000 C 
BRANCH  25  26
ATOM     26  CG  TRP A   2       5.309   5.413  18.781  0.00  0.00    +0.000 A 
ATOM     27  CD1 TRP A   2       6.541   5.408  19.408  0.00  0.00    +0.000 A 
ATOM     28  NE1 TRP A   2       7.484   5.006  18.502  0.00  0.00    +0.000 N 
ATOM     29  CE2 TRP A   2       6.910   4.833  17.266  0.00  0.00    +0.000 A 
ATOM     30  CZ2 TRP A   2       7.490   4.426  16.060  0.00  0.00    +0.000 A 
ATOM     31  CH2 TRP A   2       6.674   4.400  14.926  0.00  0.00    +0.000 A 
ATOM     32  CZ3 TRP A   2       5.329   4.749  15.007  0.00  0.00    +0.000 A 
ATOM     33  CE3 TRP A   2       4.751   5.101  16.235  0.00  0.00    +0.000 A 
ATOM     34  CD2 TRP A   2       5.556   5.144  17.394  0.00  0.00    +0.000 A 
ATOM     35  HE1 TRP A   2       8.462   4.859  18.706  0.00  0.00    +0.000 HD
ENDBRANCH  25  26
ENDBRANCH  20  25
ENDBRANCH   3  20
TORSDOF 9
ENDMDL
