MODEL 1
REMARK VINA RESULT:      -7.8      0.000      0.000
REMARK  Name = 
REMARK  1 active torsions:
REMARK  status: ('A' for Active; 'I' for Inactive)
REMARK    1  A    between atoms: C_3  and  C_4
REMARK                            x       y       z     vdW  Elec       q    Type
REMARK                         _______ _______ _______ _____ _____    ______ ____
ROOT
ATOM      1  C   UNL     1       5.360   5.660  17.565  0.00  0.00    +0.000 C 
ATOM      2  N   UNL     1       6.522   6.119  18.326  0.00  0.00    +0.000 N 
ATOM      3  C   UNL     1       7.429   6.816  17.578  0.00  0.00    +0.000 C 
ATOM      4  N   UNL     1       7.691   6.610  16.335  0.00  0.00    +0.000 NA
ATOM      5  C   UNL     1       6.978   5.571  15.699  0.00  0.00    +0.000 A 
ATOM      6  C   UNL     1       7.386   5.213  14.413  0.00  0.00    +0.000 A 
ATOM      7  C   UNL     1       6.637   4.311  13.666  0.00  0.00    +0.000 A 
ATOM      8  C   UNL     1       5.502   3.727  14.232  0.00  0.00    +0.000 A 
ATOM      9  C   UNL     1       5.102   4.043  15.542  0.00  0.00    +0.000 A 
ATOM     10  C   UNL     1       5.826   4.981  16.286  0.00  0.00    +0.000 A 
ATOM     11  H   UNL     1       6.970   5.327  18.775  0.00  0.00    +0.000 HD
ENDROOT
BRANCH   1  14
ATOM     12  F   UNL     1       5.599   3.426  19.384  0.00  0.00    +0.000 F 
ATOM     13  C   UNL     1       4.445   4.034  19.279  0.00  0.00    +0.000 A 
ATOM     14  C   UNL     1       4.267   5.125  18.461  0.00  0.00    +0.000 A 
ATOM     15  S   UNL     1       2.623   5.585  18.472  0.00  0.00    +0.000 S 
ATOM     16  C   UNL     1       2.198   4.371  19.657  0.00  0.00    +0.000 A 
ATOM     17  C   UNL     1       0.942   4.113  20.243  0.00  0.00    +0.000 A 
ATOM     18  C   UNL     1       0.838   3.096  21.216  0.00  0.00    +0.000 A 
ATOM     19  C   UNL     1       1.931   2.322  21.552  0.00  0.00    +0.000 A 
ATOM     20  C   UNL     1       3.163   2.548  20.941  0.00  0.00    +0.000 A 
ATOM     21  C   UNL     1       3.308   3.596  19.998  0.00  0.00    +0.000 A 
ENDBRANCH   1  14
TORSDOF 1
ENDMDL
MODEL 2
REMARK VINA RESULT:      -7.6      3.796      5.437
REMARK  Name = 
REMARK  1 active torsions:
REMARK  status: ('A' for Active; 'I' for Inactive)
REMARK    1  A    between atoms: C_3  and  C_4
REMARK                            x       y       z     vdW  Elec       q    Type
REMARK                         _______ _______ _______ _____ _____    ______ ____
ROOT
ATOM      1  C   UNL     1       3.425   5.833  18.855  0.00  0.00    +0.000 C 
ATOM      2  N   UNL     1       4.701   5.849  19.570  0.00  0.00    +0.000 N 
ATOM      3  C   UNL     1       5.527   4.811  19.243  0.00  0.00    +0.000 C 
ATOM      4  N   UNL     1       5.148   3.625  18.918  0.00  0.00    +0.000 NA
ATOM      5  C   UNL     1       3.757   3.385  18.902  0.00  0.00    +0.000 A 
ATOM      6  C   UNL     1       3.341   2.062  18.739  0.00  0.00    +0.000 A 
ATOM      7  C   UNL     1       1.994   1.768  18.558  0.00  0.00    +0.000 A 
ATOM      8  C   UNL     1       1.057   2.802  18.594  0.00  0.00    +0.000 A 
ATOM      9  C   UNL     1       1.453   4.134  18.801  0.00  0.00    +0.000 A 
ATOM     10  C   UNL     1       2.810   4.444  18.943  0.00  0.00    +0.000 A 
ATOM     11  H   UNL     1       4.531   5.862  20.570  0.00  0.00    +0.000 HD
ENDROOT
BRANCH   1  14
ATOM     12  F   UNL     1       1.830   6.531  21.163  0.00  0.00    +0.000 F 
ATOM     13  C   UNL     1       1.885   7.366  20.157  0.00  0.00    +0.000 A 
ATOM     14  C   UNL     1       2.650   7.117  19.043  0.00  0.00    +0.000 A 
ATOM     15  S   UNL     1       2.391   8.345  17.885  0.00  0.00    +0.000 S 
ATOM     16  C   UNL     1       1.331   9.245  18.946  0.00  0.00    +0.000 A 
ATOM     17  C   UNL     1       0.686  10.475  18.709  0.00  0.00    +0.000 A 
ATOM     18  C   UNL     1      -0.102  11.042  19.733  0.00  0.00    +0.000 A 
ATOM     19  C   UNL     1      -0.291  10.380  20.931  0.00  0.00    +0.000 A 
ATOM     20  C   UNL     1       0.312   9.143  21.149  0.00  0.00    +0.000 A 
ATOM     21  C   UNL     1       1.150   8.575  20.156  0.00  0.00    +0.000 A 
ENDBRANCH   1  14
TORSDOF 1
ENDMDL
MODEL 3
REMARK VINA RESULT:      -7.5      3.711      4.684
REMARK  Name = 
REMARK  1 active torsions:
REMARK  status: ('A' for Active; 'I' for Inactive)
REMARK    1  A    between atoms: C_3  and  C_4
REMARK                            x       y       z     vdW  Elec       q    Type
REMARK                         _______ _______ _______ _____ _____    ______ ____
ROOT
ATOM      1  C   UNL     1       3.172   5.628  18.299  0.00  0.00    +0.000 C 
ATOM      2  N   UNL     1       2.164   4.728  17.738  0.00  0.00    +0.000 N 
ATOM      3  C   UNL     1       2.642   3.483  17.442  0.00  0.00    +0.000 C 
ATOM      4  N   UNL     1       3.835   3.215  17.039  0.00  0.00    +0.000 NA
ATOM      5  C   UNL     1       4.717   4.306  16.892  0.00  0.00    +0.000 A 
ATOM      6  C   UNL     1       5.946   4.055  16.278  0.00  0.00    +0.000 A 
ATOM      7  C   UNL     1       6.924   5.042  16.240  0.00  0.00    +0.000 A 
ATOM      8  C   UNL     1       6.649   6.302  16.774  0.00  0.00    +0.000 A 
ATOM      9  C   UNL     1       5.401   6.586  17.356  0.00  0.00    +0.000 A 
ATOM     10  C   UNL     1       4.425   5.587  17.437  0.00  0.00    +0.000 A 
ATOM     11  H   UNL     1       1.749   5.152  16.915  0.00  0.00    +0.000 HD
ENDROOT
BRANCH   1  14
ATOM     12  F   UNL     1       2.031   5.955  20.934  0.00  0.00    +0.000 F 
ATOM     13  C   UNL     1       2.007   6.968  20.105  0.00  0.00    +0.000 A 
ATOM     14  C   UNL     1       2.562   6.895  18.849  0.00  0.00    +0.000 A 
ATOM     15  S   UNL     1       2.243   8.342  18.000  0.00  0.00    +0.000 S 
ATOM     16  C   UNL     1       1.453   9.080  19.374  0.00  0.00    +0.000 A 
ATOM     17  C   UNL     1       0.898  10.371  19.482  0.00  0.00    +0.000 A 
ATOM     18  C   UNL     1       0.337  10.773  20.713  0.00  0.00    +0.000 A 
ATOM     19  C   UNL     1       0.275   9.901  21.782  0.00  0.00    +0.000 A 
ATOM     20  C   UNL     1       0.784   8.609  21.661  0.00  0.00    +0.000 A 
ATOM     21  C   UNL     1       1.399   8.197  20.453  0.00  0.00    +0.000 A 
ENDBRANCH   1  14
TORSDOF 1
ENDMDL
MODEL 4
REMARK VINA RESULT:      -7.5      3.980      5.644
REMARK  Name = 
REMARK  1 active torsions:
REMARK  status: ('A' for Active; 'I' for Inactive)
REMARK    1  A    between atoms: C_3  and  C_4
REMARK                            x       y       z     vdW  Elec       q    Type
REMARK                         _______ _______ _______ _____ _____    ______ ____
ROOT
ATOM      1  C   UNL     1       3.278   5.776  18.983  0.00  0.00    +0.000 C 
ATOM      2  N   UNL     1       4.582   5.846  19.642  0.00  0.00    +0.000 N 
ATOM      3  C   UNL     1       5.463   4.890  19.223  0.00  0.00    +0.000 C 
ATOM      4  N   UNL     1       5.152   3.698  18.849  0.00  0.00    +0.000 NA
ATOM      5  C   UNL     1       3.783   3.358  18.880  0.00  0.00    +0.000 A 
ATOM      6  C   UNL     1       3.453   2.019  18.662  0.00  0.00    +0.000 A 
ATOM      7  C   UNL     1       2.124   1.639  18.523  0.00  0.00    +0.000 A 
ATOM      8  C   UNL     1       1.118   2.598  18.655  0.00  0.00    +0.000 A 
ATOM      9  C   UNL     1       1.430   3.943  18.919  0.00  0.00    +0.000 A 
ATOM     10  C   UNL     1       2.767   4.343  19.019  0.00  0.00    +0.000 A 
ATOM     11  H   UNL     1       4.458   5.796  20.648  0.00  0.00    +0.000 HD
ENDROOT
BRANCH   1  14
ATOM     12  F   UNL     1       2.904   8.047  17.234  0.00  0.00    +0.000 F 
ATOM     13  C   UNL     1       2.320   8.049  18.405  0.00  0.00    +0.000 A 
ATOM     14  C   UNL     1       2.425   6.988  19.274  0.00  0.00    +0.000 A 
ATOM     15  S   UNL     1       1.650   7.376  20.745  0.00  0.00    +0.000 S 
ATOM     16  C   UNL     1       1.099   8.926  20.150  0.00  0.00    +0.000 A 
ATOM     17  C   UNL     1       0.317   9.895  20.809  0.00  0.00    +0.000 A 
ATOM     18  C   UNL     1      -0.045  11.069  20.115  0.00  0.00    +0.000 A 
ATOM     19  C   UNL     1       0.406  11.300  18.830  0.00  0.00    +0.000 A 
ATOM     20  C   UNL     1       1.216  10.361  18.194  0.00  0.00    +0.000 A 
ATOM     21  C   UNL     1       1.552   9.150  18.849  0.00  0.00    +0.000 A 
ENDBRANCH   1  14
TORSDOF 1
ENDMDL
MODEL 5
REMARK VINA RESULT:      -7.4      1.276      1.669
REMARK  Name = 
REMARK  1 active torsions:
REMARK  status: ('A' for Active; 'I' for Inactive)
REMARK    1  A    between atoms: C_3  and  C_4
REMARK                            x       y       z     vdW  Elec       q    Type
REMARK                         _______ _______ _______ _____ _____    ______ ____
ROOT
ATOM      1  C   UNL     1       5.564   5.248  17.503  0.00  0.00    +0.000 C 
ATOM      2  N   UNL     1       6.725   5.766  18.226  0.00  0.00    +0.000 N 
ATOM      3  C   UNL     1       7.500   6.614  17.486  0.00  0.00    +0.000 C 
ATOM      4  N   UNL     1       7.692   6.537  16.216  0.00  0.00    +0.000 NA
ATOM      5  C   UNL     1       7.044   5.482  15.538  0.00  0.00    +0.000 A 
ATOM      6  C   UNL     1       7.394   5.273  14.202  0.00  0.00    +0.000 A 
ATOM      7  C   UNL     1       6.688   4.359  13.428  0.00  0.00    +0.000 A 
ATOM      8  C   UNL     1       5.662   3.614  14.012  0.00  0.00    +0.000 A 
ATOM      9  C   UNL     1       5.326   3.779  15.367  0.00  0.00    +0.000 A 
ATOM     10  C   UNL     1       6.003   4.727  16.143  0.00  0.00    +0.000 A 
ATOM     11  H   UNL     1       7.282   4.993  18.575  0.00  0.00    +0.000 HD
ENDROOT
BRANCH   1  14
ATOM     12  F   UNL     1       2.691   5.571  17.526  0.00  0.00    +0.000 F 
ATOM     13  C   UNL     1       3.242   4.759  18.392  0.00  0.00    +0.000 A 
ATOM     14  C   UNL     1       4.598   4.529  18.415  0.00  0.00    +0.000 A 
ATOM     15  S   UNL     1       4.983   3.523  19.740  0.00  0.00    +0.000 S 
ATOM     16  C   UNL     1       3.306   3.330  20.197  0.00  0.00    +0.000 A 
ATOM     17  C   UNL     1       2.763   2.568  21.250  0.00  0.00    +0.000 A 
ATOM     18  C   UNL     1       1.361   2.527  21.412  0.00  0.00    +0.000 A 
ATOM     19  C   UNL     1       0.531   3.267  20.592  0.00  0.00    +0.000 A 
ATOM     20  C   UNL     1       1.072   4.055  19.578  0.00  0.00    +0.000 A 
ATOM     21  C   UNL     1       2.473   4.074  19.361  0.00  0.00    +0.000 A 
ENDBRANCH   1  14
TORSDOF 1
ENDMDL
MODEL 6
REMARK VINA RESULT:      -7.1      4.283      5.542
REMARK  Name = 
REMARK  1 active torsions:
REMARK  status: ('A' for Active; 'I' for Inactive)
REMARK    1  A    between atoms: C_3  and  C_4
REMARK                            x       y       z     vdW  Elec       q    Type
REMARK                         _______ _______ _______ _____ _____    ______ ____
ROOT
ATOM      1  C   UNL     1       2.843   6.533  18.070  0.00  0.00    +0.000 C 
ATOM      2  N   UNL     1       4.250   6.903  17.916  0.00  0.00    +0.000 N 
ATOM      3  C   UNL     1       4.908   6.180  16.961  0.00  0.00    +0.000 C 
ATOM      4  N   UNL     1       4.675   4.950  16.660  0.00  0.00    +0.000 NA
ATOM      5  C   UNL     1       3.654   4.301  17.385  0.00  0.00    +0.000 A 
ATOM      6  C   UNL     1       3.521   2.923  17.204  0.00  0.00    +0.000 A 
ATOM      7  C   UNL     1       2.444   2.243  17.761  0.00  0.00    +0.000 A 
ATOM      8  C   UNL     1       1.525   2.941  18.547  0.00  0.00    +0.000 A 
ATOM      9  C   UNL     1       1.667   4.321  18.777  0.00  0.00    +0.000 A 
ATOM     10  C   UNL     1       2.725   5.021  18.186  0.00  0.00    +0.000 A 
ATOM     11  H   UNL     1       4.724   6.820  18.810  0.00  0.00    +0.000 HD
ENDROOT
BRANCH   1  14
ATOM     12  F   UNL     1       1.914   9.149  17.265  0.00  0.00    +0.000 F 
ATOM     13  C   UNL     1       1.705   8.756  18.495  0.00  0.00    +0.000 A 
ATOM     14  C   UNL     1       2.088   7.512  18.938  0.00  0.00    +0.000 A 
ATOM     15  S   UNL     1       1.778   7.381  20.612  0.00  0.00    +0.000 S 
ATOM     16  C   UNL     1       1.039   8.965  20.690  0.00  0.00    +0.000 A 
ATOM     17  C   UNL     1       0.466   9.616  21.801  0.00  0.00    +0.000 A 
ATOM     18  C   UNL     1      -0.113  10.891  21.623  0.00  0.00    +0.000 A 
ATOM     19  C   UNL     1      -0.070  11.523  20.395  0.00  0.00    +0.000 A 
ATOM     20  C   UNL     1       0.535  10.897  19.307  0.00  0.00    +0.000 A 
ATOM     21  C   UNL     1       1.079   9.596  19.446  0.00  0.00    +0.000 A 
ENDBRANCH   1  14
TORSDOF 1
ENDMDL
MODEL 7
REMARK VINA RESULT:      -7.0      1.708      2.097
REMARK  Name = 
REMARK  1 active torsions:
REMARK  status: ('A' for Active; 'I' for Inactive)
REMARK    1  A    between atoms: C_3  and  C_4
REMARK                            x       y       z     vdW  Elec       q    Type
REMARK                         _______ _______ _______ _____ _____    ______ ____
ROOT
ATOM      1  C   UNL     1       5.359   4.815  16.166  0.00  0.00    +0.000 C 
ATOM      2  N   UNL     1       6.592   5.034  16.922  0.00  0.00    +0.000 N 
ATOM      3  C   UNL     1       7.555   5.704  16.220  0.00  0.00    +0.000 C 
ATOM      4  N   UNL     1       7.751   5.622  14.951  0.00  0.00    +0.000 NA
ATOM      5  C   UNL     1       6.894   4.763  14.230  0.00  0.00    +0.000 A 
ATOM      6  C   UNL     1       7.215   4.518  12.893  0.00  0.00    +0.000 A 
ATOM      7  C   UNL     1       6.336   3.812  12.080  0.00  0.00    +0.000 A 
ATOM      8  C   UNL     1       5.156   3.303  12.625  0.00  0.00    +0.000 A 
ATOM      9  C   UNL     1       4.838   3.501  13.980  0.00  0.00    +0.000 A 
ATOM     10  C   UNL     1       5.696   4.247  14.796  0.00  0.00    +0.000 A 
ATOM     11  H   UNL     1       6.951   4.145  17.253  0.00  0.00    +0.000 HD
ENDROOT
BRANCH   1  14
ATOM     12  F   UNL     1       3.837   6.389  18.053  0.00  0.00    +0.000 F 
ATOM     13  C   UNL     1       3.577   5.111  17.942  0.00  0.00    +0.000 A 
ATOM     14  C   UNL     1       4.236   4.309  17.041  0.00  0.00    +0.000 A 
ATOM     15  S   UNL     1       3.741   2.688  17.251  0.00  0.00    +0.000 S 
ATOM     16  C   UNL     1       2.572   3.111  18.481  0.00  0.00    +0.000 A 
ATOM     17  C   UNL     1       1.682   2.268  19.177  0.00  0.00    +0.000 A 
ATOM     18  C   UNL     1       0.791   2.837  20.112  0.00  0.00    +0.000 A 
ATOM     19  C   UNL     1       0.824   4.190  20.389  0.00  0.00    +0.000 A 
ATOM     20  C   UNL     1       1.734   5.017  19.733  0.00  0.00    +0.000 A 
ATOM     21  C   UNL     1       2.605   4.479  18.752  0.00  0.00    +0.000 A 
ENDBRANCH   1  14
TORSDOF 1
ENDMDL
MODEL 8
REMARK VINA RESULT:      -7.0      2.128      6.379
REMARK  Name = 
REMARK  1 active torsions:
REMARK  status: ('A' for Active; 'I' for Inactive)
REMARK    1  A    between atoms: C_3  and  C_4
REMARK                            x       y       z     vdW  Elec       q    Type
REMARK                         _______ _______ _______ _____ _____    ______ ____
ROOT
ATOM      1  C   UNL     1       3.891   5.621  18.762  0.00  0.00    +0.000 C 
ATOM      2  N   UNL     1       2.819   6.602  18.585  0.00  0.00    +0.000 N 
ATOM      3  C   UNL     1       2.165   6.917  19.743  0.00  0.00    +0.000 C 
ATOM      4  N   UNL     1       1.954   6.113  20.726  0.00  0.00    +0.000 NA
ATOM      5  C   UNL     1       2.442   4.797  20.587  0.00  0.00    +0.000 A 
ATOM      6  C   UNL     1       2.056   3.868  21.556  0.00  0.00    +0.000 A 
ATOM      7  C   UNL     1       2.619   2.598  21.573  0.00  0.00    +0.000 A 
ATOM      8  C   UNL     1       3.535   2.240  20.581  0.00  0.00    +0.000 A 
ATOM      9  C   UNL     1       3.901   3.147  19.572  0.00  0.00    +0.000 A 
ATOM     10  C   UNL     1       3.371   4.442  19.571  0.00  0.00    +0.000 A 
ATOM     11  H   UNL     1       2.162   6.267  17.889  0.00  0.00    +0.000 HD
ENDROOT
BRANCH   1  14
ATOM     12  F   UNL     1       3.324   3.961  16.465  0.00  0.00    +0.000 F 
ATOM     13  C   UNL     1       4.435   4.652  16.486  0.00  0.00    +0.000 A 
ATOM     14  C   UNL     1       4.753   5.490  17.529  0.00  0.00    +0.000 A 
ATOM     15  S   UNL     1       6.317   6.132  17.289  0.00  0.00    +0.000 S 
ATOM     16  C   UNL     1       6.496   5.351  15.734  0.00  0.00    +0.000 A 
ATOM     17  C   UNL     1       7.579   5.420  14.834  0.00  0.00    +0.000 A 
ATOM     18  C   UNL     1       7.491   4.730  13.606  0.00  0.00    +0.000 A 
ATOM     19  C   UNL     1       6.390   3.951  13.307  0.00  0.00    +0.000 A 
ATOM     20  C   UNL     1       5.339   3.848  14.217  0.00  0.00    +0.000 A 
ATOM     21  C   UNL     1       5.379   4.571  15.435  0.00  0.00    +0.000 A 
ENDBRANCH   1  14
TORSDOF 1
ENDMDL
MODEL 9
REMARK VINA RESULT:      -6.9      3.996      5.078
REMARK  Name = 
REMARK  1 active torsions:
REMARK  status: ('A' for Active; 'I' for Inactive)
REMARK    1  A    between atoms: C_3  and  C_4
REMARK                            x       y       z     vdW  Elec       q    Type
REMARK                         _______ _______ _______ _____ _____    ______ ____
ROOT
ATOM      1  C   UNL     1       3.122   5.640  18.375  0.00  0.00    +0.000 C 
ATOM      2  N   UNL     1       2.209   4.720  17.696  0.00  0.00    +0.000 N 
ATOM      3  C   UNL     1       2.781   3.525  17.361  0.00  0.00    +0.000 C 
ATOM      4  N   UNL     1       4.011   3.352  17.024  0.00  0.00    +0.000 NA
ATOM      5  C   UNL     1       4.831   4.500  17.000  0.00  0.00    +0.000 A 
ATOM      6  C   UNL     1       6.110   4.360  16.456  0.00  0.00    +0.000 A 
ATOM      7  C   UNL     1       7.026   5.402  16.541  0.00  0.00    +0.000 A 
ATOM      8  C   UNL     1       6.640   6.608  17.128  0.00  0.00    +0.000 A 
ATOM      9  C   UNL     1       5.343   6.783  17.641  0.00  0.00    +0.000 A 
ATOM     10  C   UNL     1       4.427   5.725  17.597  0.00  0.00    +0.000 A 
ATOM     11  H   UNL     1       1.822   5.169  16.873  0.00  0.00    +0.000 HD
ENDROOT
BRANCH   1  14
ATOM     12  F   UNL     1       2.561   8.120  16.999  0.00  0.00    +0.000 F 
ATOM     13  C   UNL     1       2.198   7.995  18.250  0.00  0.00    +0.000 A 
ATOM     14  C   UNL     1       2.401   6.833  18.956  0.00  0.00    +0.000 A 
ATOM     15  S   UNL     1       1.925   7.061  20.580  0.00  0.00    +0.000 S 
ATOM     16  C   UNL     1       1.359   8.688  20.280  0.00  0.00    +0.000 A 
ATOM     17  C   UNL     1       0.760   9.593  21.180  0.00  0.00    +0.000 A 
ATOM     18  C   UNL     1       0.343  10.854  20.705  0.00  0.00    +0.000 A 
ATOM     19  C   UNL     1       0.567  11.228  19.394  0.00  0.00    +0.000 A 
ATOM     20  C   UNL     1       1.199  10.350  18.515  0.00  0.00    +0.000 A 
ATOM     21  C   UNL     1       1.582   9.057  18.953  0.00  0.00    +0.000 A 
ENDBRANCH   1  14
TORSDOF 1
ENDMDL
