MODEL 1
REMARK VINA RESULT:      -9.4      0.000      0.000
REMARK  Name = 
REMARK  9 active torsions:
REMARK  status: ('A' for Active; 'I' for Inactive)
REMARK    1  A    between atoms: C_1  and  N_2
REMARK    2  A    between atoms: C_7  and  C_8
REMARK    3  A    between atoms: C_13  and  O_14
REMARK    4  A    between atoms: O_14  and  C_15
REMARK    5  A    between atoms: C_18  and  N_19
REMARK    6  A    between atoms: N_22  and  C_23
REMARK    7  A    between atoms: C_23  and  C_24
REMARK    8  A    between atoms: C_23  and  C_25
REMARK    9  A    between atoms: C_23  and  C_26
REMARK                            x       y       z     vdW  Elec       q    Type
REMARK                         _______ _______ _______ _____ _____    ______ ____
ROOT
ATOM      1  C   UNL     1       2.376   7.686  19.125  0.00  0.00    +0.000 A 
ATOM      2  C   UNL     1       2.468   8.223  17.844  0.00  0.00    +0.000 A 
ATOM      3  C   UNL     1       1.876   9.443  17.549  0.00  0.00    +0.000 A 
ATOM      4  C   UNL     1       1.148  10.156  18.506  0.00  0.00    +0.000 A 
ATOM      5  C   UNL     1       0.840   9.514  19.745  0.00  0.00    +0.000 A 
ATOM      6  C   UNL     1      -0.065  10.041  20.701  0.00  0.00    +0.000 A 
ATOM      7  C   UNL     1      -0.356   9.372  21.894  0.00  0.00    +0.000 A 
ATOM      8  C   UNL     1       0.271   8.169  22.184  0.00  0.00    +0.000 A 
ATOM      9  C   UNL     1       1.188   7.631  21.282  0.00  0.00    +0.000 A 
ATOM     10  C   UNL     1       1.478   8.265  20.054  0.00  0.00    +0.000 A 
ENDROOT
BRANCH   4  11
ATOM     11  N   UNL     1       0.749  11.507  18.230  0.00  0.00    +0.000 N 
ATOM     12  C   UNL     1       1.346  12.620  18.804  0.00  0.00    +0.000 C 
ATOM     13  O   UNL     1       2.289  12.593  19.583  0.00  0.00    +0.000 OA
ATOM     14  N   UNL     1       0.782  13.817  18.405  0.00  0.00    +0.000 N 
ATOM     15  H   UNL     1      -0.155  11.648  17.814  0.00  0.00    +0.000 HD
ATOM     16  H   UNL     1      -0.157  13.785  18.037  0.00  0.00    +0.000 HD
BRANCH  14  17
ATOM     17  C   UNL     1       1.257  15.116  18.941  0.00  0.00    +0.000 C 
ATOM     18  C   UNL     1       2.619  15.505  18.329  0.00  0.00    +0.000 C 
ATOM     19  C   UNL     1       0.249  16.218  18.566  0.00  0.00    +0.000 C 
ATOM     20  C   UNL     1       1.365  15.084  20.478  0.00  0.00    +0.000 C 
ENDBRANCH  14  17
ENDBRANCH   4  11
BRANCH   1  21
ATOM     21  O   UNL     1       3.116   6.555  19.471  0.00  0.00    +0.000 OA
BRANCH  21  27
ATOM     22  C   UNL     1       3.703   4.781  17.913  0.00  0.00    +0.000 A 
ATOM     23  C   UNL     1       3.327   3.512  17.409  0.00  0.00    +0.000 A 
ATOM     24  C   UNL     1       2.138   2.891  17.782  0.00  0.00    +0.000 A 
ATOM     25  C   UNL     1       1.305   3.572  18.635  0.00  0.00    +0.000 A 
ATOM     26  N   UNL     1       1.598   4.786  19.136  0.00  0.00    +0.000 NA
ATOM     27  C   UNL     1       2.800   5.353  18.823  0.00  0.00    +0.000 A 
BRANCH  22  34
ATOM     28  C   UNL     1       6.276   4.005  13.785  0.00  0.00    +0.000 C 
ATOM     29  N   UNL     1       6.861   5.185  14.375  0.00  0.00    +0.000 N 
ATOM     30  C   UNL     1       6.478   5.485  15.672  0.00  0.00    +0.000 A 
ATOM     31  N   UNL     1       7.380   6.155  16.394  0.00  0.00    +0.000 NA
ATOM     32  C   UNL     1       7.047   6.437  17.664  0.00  0.00    +0.000 A 
ATOM     33  C   UNL     1       5.866   6.053  18.253  0.00  0.00    +0.000 A 
ATOM     34  C   UNL     1       4.986   5.357  17.453  0.00  0.00    +0.000 A 
ATOM     35  N   UNL     1       5.298   5.079  16.158  0.00  0.00    +0.000 NA
ATOM     36  H   UNL     1       7.874   5.241  14.357  0.00  0.00    +0.000 HD
ENDBRANCH  22  34
ENDBRANCH  21  27
ENDBRANCH   1  21
TORSDOF 5
ENDMDL
MODEL 2
REMARK VINA RESULT:      -8.7      0.959      1.600
REMARK  Name = 
REMARK  9 active torsions:
REMARK  status: ('A' for Active; 'I' for Inactive)
REMARK    1  A    between atoms: C_1  and  N_2
REMARK    2  A    between atoms: C_7  and  C_8
REMARK    3  A    between atoms: C_13  and  O_14
REMARK    4  A    between atoms: O_14  and  C_15
REMARK    5  A    between atoms: C_18  and  N_19
REMARK    6  A    between atoms: N_22  and  C_23
REMARK    7  A    between atoms: C_23  and  C_24
REMARK    8  A    between atoms: C_23  and  C_25
REMARK    9  A    between atoms: C_23  and  C_26
REMARK                            x       y       z     vdW  Elec       q    Type
REMARK                         _______ _______ _______ _____ _____    ______ ____
ROOT
ATOM      1  C   UNL     1       2.190   7.785  19.334  0.00  0.00    +0.000 A 
ATOM      2  C   UNL     1       2.275   8.266  18.030  0.00  0.00    +0.000 A 
ATOM      3  C   UNL     1       1.715   9.491  17.696  0.00  0.00    +0.000 A 
ATOM      4  C   UNL     1       1.026  10.265  18.634  0.00  0.00    +0.000 A 
ATOM      5  C   UNL     1       0.721   9.684  19.904  0.00  0.00    +0.000 A 
ATOM      6  C   UNL     1      -0.151  10.277  20.852  0.00  0.00    +0.000 A 
ATOM      7  C   UNL     1      -0.440   9.666  22.076  0.00  0.00    +0.000 A 
ATOM      8  C   UNL     1       0.155   8.457  22.405  0.00  0.00    +0.000 A 
ATOM      9  C   UNL     1       1.040   7.855  21.511  0.00  0.00    +0.000 A 
ATOM     10  C   UNL     1       1.327   8.429  20.253  0.00  0.00    +0.000 A 
ENDROOT
BRANCH   4  11
ATOM     11  N   UNL     1       0.663  11.615  18.309  0.00  0.00    +0.000 N 
ATOM     12  C   UNL     1       1.293  12.731  18.839  0.00  0.00    +0.000 C 
ATOM     13  O   UNL     1       2.238  12.707  19.615  0.00  0.00    +0.000 OA
ATOM     14  N   UNL     1       0.760  13.928  18.398  0.00  0.00    +0.000 N 
ATOM     15  H   UNL     1      -0.239  11.766  17.892  0.00  0.00    +0.000 HD
ATOM     16  H   UNL     1      -0.181  13.908  18.035  0.00  0.00    +0.000 HD
BRANCH  14  17
ATOM     17  C   UNL     1       1.273  15.233  18.883  0.00  0.00    +0.000 C 
ATOM     18  C   UNL     1       2.646  15.557  18.258  0.00  0.00    +0.000 C 
ATOM     19  C   UNL     1       0.299  16.348  18.463  0.00  0.00    +0.000 C 
ATOM     20  C   UNL     1       1.380  15.257  20.420  0.00  0.00    +0.000 C 
ENDBRANCH  14  17
ENDBRANCH   4  11
BRANCH   1  21
ATOM     21  O   UNL     1       2.902   6.647  19.714  0.00  0.00    +0.000 OA
BRANCH  21  27
ATOM     22  C   UNL     1       3.300   4.831  18.143  0.00  0.00    +0.000 A 
ATOM     23  C   UNL     1       2.874   3.547  17.729  0.00  0.00    +0.000 A 
ATOM     24  C   UNL     1       1.750   2.930  18.269  0.00  0.00    +0.000 A 
ATOM     25  C   UNL     1       1.027   3.630  19.203  0.00  0.00    +0.000 A 
ATOM     26  N   UNL     1       1.370   4.860  19.627  0.00  0.00    +0.000 NA
ATOM     27  C   UNL     1       2.516   5.425  19.146  0.00  0.00    +0.000 A 
BRANCH  22  34
ATOM     28  C   UNL     1       7.826   5.586  19.935  0.00  0.00    +0.000 C 
ATOM     29  N   UNL     1       7.957   5.744  18.507  0.00  0.00    +0.000 N 
ATOM     30  C   UNL     1       6.780   5.818  17.780  0.00  0.00    +0.000 A 
ATOM     31  N   UNL     1       6.854   6.514  16.642  0.00  0.00    +0.000 NA
ATOM     32  C   UNL     1       5.721   6.626  15.929  0.00  0.00    +0.000 A 
ATOM     33  C   UNL     1       4.513   6.099  16.318  0.00  0.00    +0.000 A 
ATOM     34  C   UNL     1       4.508   5.402  17.506  0.00  0.00    +0.000 A 
ATOM     35  N   UNL     1       5.649   5.261  18.233  0.00  0.00    +0.000 NA
ATOM     36  H   UNL     1       8.536   6.515  18.191  0.00  0.00    +0.000 HD
ENDBRANCH  22  34
ENDBRANCH  21  27
ENDBRANCH   1  21
TORSDOF 5
ENDMDL
MODEL 3
REMARK VINA RESULT:      -8.4      3.834      9.632
REMARK  Name = 
REMARK  9 active torsions:
REMARK  status: ('A' for Active; 'I' for Inactive)
REMARK    1  A    between atoms: C_1  and  N_2
REMARK    2  A    between atoms: C_7  and  C_8
REMARK    3  A    between atoms: C_13  and  O_14
REMARK    4  A    between atoms: O_14  and  C_15
REMARK    5  A    between atoms: C_18  and  N_19
REMARK    6  A    between atoms: N_22  and  C_23
REMARK    7  A    between atoms: C_23  and  C_24
REMARK    8  A    between atoms: C_23  and  C_25
REMARK    9  A    between atoms: C_23  and  C_26
REMARK                            x       y       z     vdW  Elec       q    Type
REMARK                         _______ _______ _______ _____ _____    ______ ____
ROOT
ATOM      1  C   UNL     1      -0.107  10.897  19.347  0.00  0.00    +0.000 A 
ATOM      2  C   UNL     1       0.841  10.366  18.477  0.00  0.00    +0.000 A 
ATOM      3  C   UNL     1       1.587   9.255  18.845  0.00  0.00    +0.000 A 
ATOM      4  C   UNL     1       1.441   8.654  20.098  0.00  0.00    +0.000 A 
ATOM      5  C   UNL     1       0.655   9.323  21.087  0.00  0.00    +0.000 A 
ATOM      6  C   UNL     1       0.605   8.933  22.450  0.00  0.00    +0.000 A 
ATOM      7  C   UNL     1      -0.160   9.627  23.391  0.00  0.00    +0.000 A 
ATOM      8  C   UNL     1      -0.925  10.716  22.997  0.00  0.00    +0.000 A 
ATOM      9  C   UNL     1      -0.924  11.114  21.660  0.00  0.00    +0.000 A 
ATOM     10  C   UNL     1      -0.136  10.455  20.692  0.00  0.00    +0.000 A 
ENDROOT
BRANCH   4  11
ATOM     11  N   UNL     1       2.060   7.384  20.352  0.00  0.00    +0.000 N 
ATOM     12  C   UNL     1       2.635   6.596  19.365  0.00  0.00    +0.000 C 
ATOM     13  O   UNL     1       2.710   6.891  18.180  0.00  0.00    +0.000 OA
ATOM     14  N   UNL     1       3.152   5.406  19.840  0.00  0.00    +0.000 N 
ATOM     15  H   UNL     1       1.844   6.927  21.220  0.00  0.00    +0.000 HD
ATOM     16  H   UNL     1       2.797   5.067  20.722  0.00  0.00    +0.000 HD
BRANCH  14  17
ATOM     17  C   UNL     1       3.772   4.410  18.932  0.00  0.00    +0.000 C 
ATOM     18  C   UNL     1       5.112   4.930  18.369  0.00  0.00    +0.000 C 
ATOM     19  C   UNL     1       4.070   3.121  19.719  0.00  0.00    +0.000 C 
ATOM     20  C   UNL     1       2.826   4.043  17.772  0.00  0.00    +0.000 C 
ENDBRANCH  14  17
ENDBRANCH   4  11
BRANCH   1  21
ATOM     21  O   UNL     1      -0.980  11.896  18.915  0.00  0.00    +0.000 OA
BRANCH  21  27
ATOM     22  C   UNL     1      -3.396  11.842  18.630  0.00  0.00    +0.000 A 
ATOM     23  C   UNL     1      -4.450  11.484  17.755  0.00  0.00    +0.000 A 
ATOM     24  C   UNL     1      -4.220  10.822  16.552  0.00  0.00    +0.000 A 
ATOM     25  C   UNL     1      -2.924  10.483  16.250  0.00  0.00    +0.000 A 
ATOM     26  N   UNL     1      -1.881  10.781  17.046  0.00  0.00    +0.000 NA
ATOM     27  C   UNL     1      -2.109  11.496  18.187  0.00  0.00    +0.000 A 
BRANCH  22  34
ATOM     28  C   UNL     1      -7.483  11.671  21.374  0.00  0.00    +0.000 C 
ATOM     29  N   UNL     1      -6.501  12.325  22.205  0.00  0.00    +0.000 N 
ATOM     30  C   UNL     1      -5.325  12.716  21.585  0.00  0.00    +0.000 A 
ATOM     31  N   UNL     1      -4.713  13.770  22.131  0.00  0.00    +0.000 NA
ATOM     32  C   UNL     1      -3.585  14.189  21.536  0.00  0.00    +0.000 A 
ATOM     33  C   UNL     1      -3.057  13.619  20.401  0.00  0.00    +0.000 A 
ATOM     34  C   UNL     1      -3.745  12.542  19.887  0.00  0.00    +0.000 A 
ATOM     35  N   UNL     1      -4.879  12.092  20.487  0.00  0.00    +0.000 NA
ATOM     36  H   UNL     1      -6.823  13.127  22.735  0.00  0.00    +0.000 HD
ENDBRANCH  22  34
ENDBRANCH  21  27
ENDBRANCH   1  21
TORSDOF 5
ENDMDL
MODEL 4
REMARK VINA RESULT:      -8.4      3.378      9.503
REMARK  Name = 
REMARK  9 active torsions:
REMARK  status: ('A' for Active; 'I' for Inactive)
REMARK    1  A    between atoms: C_1  and  N_2
REMARK    2  A    between atoms: C_7  and  C_8
REMARK    3  A    between atoms: C_13  and  O_14
REMARK    4  A    between atoms: O_14  and  C_15
REMARK    5  A    between atoms: C_18  and  N_19
REMARK    6  A    between atoms: N_22  and  C_23
REMARK    7  A    between atoms: C_23  and  C_24
REMARK    8  A    between atoms: C_23  and  C_25
REMARK    9  A    between atoms: C_23  and  C_26
REMARK                            x       y       z     vdW  Elec       q    Type
REMARK                         _______ _______ _______ _____ _____    ______ ____
ROOT
ATOM      1  C   UNL     1       0.402  10.455  18.989  0.00  0.00    +0.000 A 
ATOM      2  C   UNL     1       1.316   9.834  18.142  0.00  0.00    +0.000 A 
ATOM      3  C   UNL     1       1.992   8.694  18.554  0.00  0.00    +0.000 A 
ATOM      4  C   UNL     1       1.807   8.150  19.828  0.00  0.00    +0.000 A 
ATOM      5  C   UNL     1       1.064   8.903  20.789  0.00  0.00    +0.000 A 
ATOM      6  C   UNL     1       0.990   8.568  22.165  0.00  0.00    +0.000 A 
ATOM      7  C   UNL     1       0.269   9.343  23.079  0.00  0.00    +0.000 A 
ATOM      8  C   UNL     1      -0.427  10.461  22.641  0.00  0.00    +0.000 A 
ATOM      9  C   UNL     1      -0.401  10.808  21.291  0.00  0.00    +0.000 A 
ATOM     10  C   UNL     1       0.345  10.066  20.350  0.00  0.00    +0.000 A 
ENDROOT
BRANCH   4  11
ATOM     11  N   UNL     1       2.347   6.855  20.130  0.00  0.00    +0.000 N 
ATOM     12  C   UNL     1       2.456   5.829  19.202  0.00  0.00    +0.000 C 
ATOM     13  O   UNL     1       2.137   5.907  18.024  0.00  0.00    +0.000 OA
ATOM     14  N   UNL     1       2.986   4.665  19.725  0.00  0.00    +0.000 N 
ATOM     15  H   UNL     1       2.406   6.591  21.098  0.00  0.00    +0.000 HD
ATOM     16  H   UNL     1       2.933   4.542  20.725  0.00  0.00    +0.000 HD
BRANCH  14  17
ATOM     17  C   UNL     1       3.144   3.443  18.898  0.00  0.00    +0.000 C 
ATOM     18  C   UNL     1       3.981   3.732  17.634  0.00  0.00    +0.000 C 
ATOM     19  C   UNL     1       3.892   2.373  19.713  0.00  0.00    +0.000 C 
ATOM     20  C   UNL     1       1.777   2.857  18.497  0.00  0.00    +0.000 C 
ENDBRANCH  14  17
ENDBRANCH   4  11
BRANCH   1  21
ATOM     21  O   UNL     1      -0.407  11.490  18.518  0.00  0.00    +0.000 OA
BRANCH  21  27
ATOM     22  C   UNL     1      -2.822  11.746  18.668  0.00  0.00    +0.000 A 
ATOM     23  C   UNL     1      -4.060  11.416  18.065  0.00  0.00    +0.000 A 
ATOM     24  C   UNL     1      -4.146  10.553  16.976  0.00  0.00    +0.000 A 
ATOM     25  C   UNL     1      -2.981   9.987  16.520  0.00  0.00    +0.000 A 
ATOM     26  N   UNL     1      -1.776  10.247  17.059  0.00  0.00    +0.000 NA
ATOM     27  C   UNL     1      -1.694  11.152  18.078  0.00  0.00    +0.000 A 
BRANCH  22  34
ATOM     28  C   UNL     1      -6.351  12.708  21.966  0.00  0.00    +0.000 C 
ATOM     29  N   UNL     1      -5.152  13.290  22.520  0.00  0.00    +0.000 N 
ATOM     30  C   UNL     1      -4.056  13.370  21.677  0.00  0.00    +0.000 A 
ATOM     31  N   UNL     1      -3.205  14.365  21.939  0.00  0.00    +0.000 NA
ATOM     32  C   UNL     1      -2.145  14.485  21.123  0.00  0.00    +0.000 A 
ATOM     33  C   UNL     1      -1.915  13.672  20.038  0.00  0.00    +0.000 A 
ATOM     34  C   UNL     1      -2.838  12.672  19.823  0.00  0.00    +0.000 A 
ATOM     35  N   UNL     1      -3.907  12.523  20.650  0.00  0.00    +0.000 NA
ATOM     36  H   UNL     1      -5.252  14.205  22.946  0.00  0.00    +0.000 HD
ENDBRANCH  22  34
ENDBRANCH  21  27
ENDBRANCH   1  21
TORSDOF 5
ENDMDL
MODEL 5
REMARK VINA RESULT:      -8.2      2.756      9.111
REMARK  Name = 
REMARK  9 active torsions:
REMARK  status: ('A' for Active; 'I' for Inactive)
REMARK    1  A    between atoms: C_1  and  N_2
REMARK    2  A    between atoms: C_7  and  C_8
REMARK    3  A    between atoms: C_13  and  O_14
REMARK    4  A    between atoms: O_14  and  C_15
REMARK    5  A    between atoms: C_18  and  N_19
REMARK    6  A    between atoms: N_22  and  C_23
REMARK    7  A    between atoms: C_23  and  C_24
REMARK    8  A    between atoms: C_23  and  C_25
REMARK    9  A    between atoms: C_23  and  C_26
REMARK                            x       y       z     vdW  Elec       q    Type
REMARK                         _______ _______ _______ _____ _____    ______ ____
ROOT
ATOM      1  C   UNL     1       0.483  10.403  18.911  0.00  0.00    +0.000 A 
ATOM      2  C   UNL     1       1.389   9.772  18.062  0.00  0.00    +0.000 A 
ATOM      3  C   UNL     1       2.059   8.629  18.476  0.00  0.00    +0.000 A 
ATOM      4  C   UNL     1       1.878   8.093  19.754  0.00  0.00    +0.000 A 
ATOM      5  C   UNL     1       1.144   8.855  20.714  0.00  0.00    +0.000 A 
ATOM      6  C   UNL     1       1.075   8.527  22.093  0.00  0.00    +0.000 A 
ATOM      7  C   UNL     1       0.364   9.312  23.006  0.00  0.00    +0.000 A 
ATOM      8  C   UNL     1      -0.327  10.432  22.567  0.00  0.00    +0.000 A 
ATOM      9  C   UNL     1      -0.305  10.772  21.214  0.00  0.00    +0.000 A 
ATOM     10  C   UNL     1       0.431  10.021  20.273  0.00  0.00    +0.000 A 
ENDROOT
BRANCH   4  11
ATOM     11  N   UNL     1       2.410   6.795  20.059  0.00  0.00    +0.000 N 
ATOM     12  C   UNL     1       2.477   5.754  19.145  0.00  0.00    +0.000 C 
ATOM     13  O   UNL     1       2.122   5.817  17.976  0.00  0.00    +0.000 OA
ATOM     14  N   UNL     1       3.009   4.592  19.669  0.00  0.00    +0.000 N 
ATOM     15  H   UNL     1       2.497   6.546  21.029  0.00  0.00    +0.000 HD
ATOM     16  H   UNL     1       2.986   4.485  20.672  0.00  0.00    +0.000 HD
BRANCH  14  17
ATOM     17  C   UNL     1       3.125   3.355  18.857  0.00  0.00    +0.000 C 
ATOM     18  C   UNL     1       3.929   3.612  17.566  0.00  0.00    +0.000 C 
ATOM     19  C   UNL     1       3.881   2.286  19.668  0.00  0.00    +0.000 C 
ATOM     20  C   UNL     1       1.739   2.783  18.505  0.00  0.00    +0.000 C 
ENDBRANCH  14  17
ENDBRANCH   4  11
BRANCH   1  21
ATOM     21  O   UNL     1      -0.321  11.440  18.438  0.00  0.00    +0.000 OA
BRANCH  21  27
ATOM     22  C   UNL     1      -2.715  11.779  18.717  0.00  0.00    +0.000 A 
ATOM     23  C   UNL     1      -3.995  11.462  18.203  0.00  0.00    +0.000 A 
ATOM     24  C   UNL     1      -4.171  10.556  17.161  0.00  0.00    +0.000 A 
ATOM     25  C   UNL     1      -3.052   9.934  16.664  0.00  0.00    +0.000 A 
ATOM     26  N   UNL     1      -1.810  10.179  17.119  0.00  0.00    +0.000 NA
ATOM     27  C   UNL     1      -1.642  11.125  18.090  0.00  0.00    +0.000 A 
BRANCH  22  34
ATOM     28  C   UNL     1       0.742  15.108  19.823  0.00  0.00    +0.000 C 
ATOM     29  N   UNL     1      -0.395  15.465  20.637  0.00  0.00    +0.000 N 
ATOM     30  C   UNL     1      -1.428  14.544  20.696  0.00  0.00    +0.000 A 
ATOM     31  N   UNL     1      -2.152  14.567  21.819  0.00  0.00    +0.000 NA
ATOM     32  C   UNL     1      -3.144  13.667  21.916  0.00  0.00    +0.000 A 
ATOM     33  C   UNL     1      -3.426  12.726  20.955  0.00  0.00    +0.000 A 
ATOM     34  C   UNL     1      -2.635  12.754  19.827  0.00  0.00    +0.000 A 
ATOM     35  N   UNL     1      -1.637  13.670  19.702  0.00  0.00    +0.000 NA
ATOM     36  H   UNL     1      -0.196  15.731  21.595  0.00  0.00    +0.000 HD
ENDBRANCH  22  34
ENDBRANCH  21  27
ENDBRANCH   1  21
TORSDOF 5
ENDMDL
MODEL 6
REMARK VINA RESULT:      -8.1      3.459     10.027
REMARK  Name = 
REMARK  9 active torsions:
REMARK  status: ('A' for Active; 'I' for Inactive)
REMARK    1  A    between atoms: C_1  and  N_2
REMARK    2  A    between atoms: C_7  and  C_8
REMARK    3  A    between atoms: C_13  and  O_14
REMARK    4  A    between atoms: O_14  and  C_15
REMARK    5  A    between atoms: C_18  and  N_19
REMARK    6  A    between atoms: N_22  and  C_23
REMARK    7  A    between atoms: C_23  and  C_24
REMARK    8  A    between atoms: C_23  and  C_25
REMARK    9  A    between atoms: C_23  and  C_26
REMARK                            x       y       z     vdW  Elec       q    Type
REMARK                         _______ _______ _______ _____ _____    ______ ____
ROOT
ATOM      1  C   UNL     1      -0.400  10.735  19.433  0.00  0.00    +0.000 A 
ATOM      2  C   UNL     1       0.507  10.317  18.464  0.00  0.00    +0.000 A 
ATOM      3  C   UNL     1       1.404   9.294  18.738  0.00  0.00    +0.000 A 
ATOM      4  C   UNL     1       1.451   8.672  19.989  0.00  0.00    +0.000 A 
ATOM      5  C   UNL     1       0.701   9.245  21.062  0.00  0.00    +0.000 A 
ATOM      6  C   UNL     1       0.832   8.844  22.416  0.00  0.00    +0.000 A 
ATOM      7  C   UNL     1       0.095   9.444  23.441  0.00  0.00    +0.000 A 
ATOM      8  C   UNL     1      -0.820  10.444  23.143  0.00  0.00    +0.000 A 
ATOM      9  C   UNL     1      -0.998  10.847  21.820  0.00  0.00    +0.000 A 
ATOM     10  C   UNL     1      -0.245  10.285  20.767  0.00  0.00    +0.000 A 
ENDROOT
BRANCH   4  11
ATOM     11  N   UNL     1       2.228   7.477  20.157  0.00  0.00    +0.000 N 
ATOM     12  C   UNL     1       2.526   6.599  19.126  0.00  0.00    +0.000 C 
ATOM     13  O   UNL     1       2.193   6.743  17.957  0.00  0.00    +0.000 OA
ATOM     14  N   UNL     1       3.269   5.506  19.528  0.00  0.00    +0.000 N 
ATOM     15  H   UNL     1       2.341   7.125  21.091  0.00  0.00    +0.000 HD
ATOM     16  H   UNL     1       3.245   5.266  20.507  0.00  0.00    +0.000 HD
BRANCH  14  17
ATOM     17  C   UNL     1       3.652   4.434  18.576  0.00  0.00    +0.000 C 
ATOM     18  C   UNL     1       4.545   4.987  17.445  0.00  0.00    +0.000 C 
ATOM     19  C   UNL     1       4.465   3.360  19.322  0.00  0.00    +0.000 C 
ATOM     20  C   UNL     1       2.411   3.748  17.973  0.00  0.00    +0.000 C 
ENDBRANCH  14  17
ENDBRANCH   4  11
BRANCH   1  21
ATOM     21  O   UNL     1      -1.416  11.634  19.108  0.00  0.00    +0.000 OA
BRANCH  21  27
ATOM     22  C   UNL     1      -2.227  13.663  20.180  0.00  0.00    +0.000 A 
ATOM     23  C   UNL     1      -1.879  14.974  20.587  0.00  0.00    +0.000 A 
ATOM     24  C   UNL     1      -0.644  15.539  20.287  0.00  0.00    +0.000 A 
ATOM     25  C   UNL     1       0.231  14.794  19.535  0.00  0.00    +0.000 A 
ATOM     26  N   UNL     1      -0.044  13.549  19.105  0.00  0.00    +0.000 NA
ATOM     27  C   UNL     1      -1.230  12.977  19.468  0.00  0.00    +0.000 A 
BRANCH  22  34
ATOM     28  C   UNL     1      -4.142  12.540  24.576  0.00  0.00    +0.000 C 
ATOM     29  N   UNL     1      -5.269  12.580  23.676  0.00  0.00    +0.000 N 
ATOM     30  C   UNL     1      -4.979  12.641  22.322  0.00  0.00    +0.000 A 
ATOM     31  N   UNL     1      -5.902  12.109  21.516  0.00  0.00    +0.000 NA
ATOM     32  C   UNL     1      -5.637  12.129  20.199  0.00  0.00    +0.000 A 
ATOM     33  C   UNL     1      -4.478  12.630  19.656  0.00  0.00    +0.000 A 
ATOM     34  C   UNL     1      -3.567  13.154  20.547  0.00  0.00    +0.000 A 
ATOM     35  N   UNL     1      -3.826  13.160  21.882  0.00  0.00    +0.000 NA
ATOM     36  H   UNL     1      -5.959  11.845  23.787  0.00  0.00    +0.000 HD
ENDBRANCH  22  34
ENDBRANCH  21  27
ENDBRANCH   1  21
TORSDOF 5
ENDMDL
MODEL 7
REMARK VINA RESULT:      -8.0      3.499      9.476
REMARK  Name = 
REMARK  9 active torsions:
REMARK  status: ('A' for Active; 'I' for Inactive)
REMARK    1  A    between atoms: C_1  and  N_2
REMARK    2  A    between atoms: C_7  and  C_8
REMARK    3  A    between atoms: C_13  and  O_14
REMARK    4  A    between atoms: O_14  and  C_15
REMARK    5  A    between atoms: C_18  and  N_19
REMARK    6  A    between atoms: N_22  and  C_23
REMARK    7  A    between atoms: C_23  and  C_24
REMARK    8  A    between atoms: C_23  and  C_25
REMARK    9  A    between atoms: C_23  and  C_26
REMARK                            x       y       z     vdW  Elec       q    Type
REMARK                         _______ _______ _______ _____ _____    ______ ____
ROOT
ATOM      1  C   UNL     1      -0.318  10.911  19.389  0.00  0.00    +0.000 A 
ATOM      2  C   UNL     1       0.611  10.457  18.458  0.00  0.00    +0.000 A 
ATOM      3  C   UNL     1       1.438   9.384  18.757  0.00  0.00    +0.000 A 
ATOM      4  C   UNL     1       1.392   8.744  19.999  0.00  0.00    +0.000 A 
ATOM      5  C   UNL     1       0.623   9.342  21.045  0.00  0.00    +0.000 A 
ATOM      6  C   UNL     1       0.668   8.917  22.397  0.00  0.00    +0.000 A 
ATOM      7  C   UNL     1      -0.085   9.542  23.395  0.00  0.00    +0.000 A 
ATOM      8  C   UNL     1      -0.931  10.593  23.070  0.00  0.00    +0.000 A 
ATOM      9  C   UNL     1      -1.023  11.023  21.747  0.00  0.00    +0.000 A 
ATOM     10  C   UNL     1      -0.251  10.435  20.722  0.00  0.00    +0.000 A 
ENDROOT
BRANCH   4  11
ATOM     11  N   UNL     1       2.096   7.507  20.186  0.00  0.00    +0.000 N 
ATOM     12  C   UNL     1       2.433   6.648  19.150  0.00  0.00    +0.000 C 
ATOM     13  O   UNL     1       2.202   6.846  17.965  0.00  0.00    +0.000 OA
ATOM     14  N   UNL     1       3.089   5.507  19.570  0.00  0.00    +0.000 N 
ATOM     15  H   UNL     1       2.117   7.120  21.112  0.00  0.00    +0.000 HD
ATOM     16  H   UNL     1       2.975   5.237  20.535  0.00  0.00    +0.000 HD
BRANCH  14  17
ATOM     17  C   UNL     1       3.496   4.448  18.613  0.00  0.00    +0.000 C 
ATOM     18  C   UNL     1       4.527   4.983  17.597  0.00  0.00    +0.000 C 
ATOM     19  C   UNL     1       4.164   3.296  19.386  0.00  0.00    +0.000 C 
ATOM     20  C   UNL     1       2.279   3.868  17.867  0.00  0.00    +0.000 C 
ENDBRANCH  14  17
ENDBRANCH   4  11
BRANCH   1  21
ATOM     21  O   UNL     1      -1.268  11.867  19.030  0.00  0.00    +0.000 OA
BRANCH  21  27
ATOM     22  C   UNL     1      -3.630  11.760  18.450  0.00  0.00    +0.000 A 
ATOM     23  C   UNL     1      -4.557  11.409  17.440  0.00  0.00    +0.000 A 
ATOM     24  C   UNL     1      -4.162  10.806  16.249  0.00  0.00    +0.000 A 
ATOM     25  C   UNL     1      -2.829  10.515  16.095  0.00  0.00    +0.000 A 
ATOM     26  N   UNL     1      -1.900  10.808  17.023  0.00  0.00    +0.000 NA
ATOM     27  C   UNL     1      -2.288  11.467  18.155  0.00  0.00    +0.000 A 
BRANCH  22  34
ATOM     28  C   UNL     1      -1.437  14.743  21.698  0.00  0.00    +0.000 C 
ATOM     29  N   UNL     1      -2.846  14.836  21.996  0.00  0.00    +0.000 N 
ATOM     30  C   UNL     1      -3.672  13.909  21.382  0.00  0.00    +0.000 A 
ATOM     31  N   UNL     1      -4.788  13.606  22.050  0.00  0.00    +0.000 NA
ATOM     32  C   UNL     1      -5.597  12.690  21.492  0.00  0.00    +0.000 A 
ATOM     33  C   UNL     1      -5.323  12.041  20.311  0.00  0.00    +0.000 A 
ATOM     34  C   UNL     1      -4.150  12.396  19.681  0.00  0.00    +0.000 A 
ATOM     35  N   UNL     1      -3.328  13.335  20.221  0.00  0.00    +0.000 NA
ATOM     36  H   UNL     1      -3.098  14.835  22.979  0.00  0.00    +0.000 HD
ENDBRANCH  22  34
ENDBRANCH  21  27
ENDBRANCH   1  21
TORSDOF 5
ENDMDL
MODEL 8
REMARK VINA RESULT:      -8.0      2.855      9.406
REMARK  Name = 
REMARK  9 active torsions:
REMARK  status: ('A' for Active; 'I' for Inactive)
REMARK    1  A    between atoms: C_1  and  N_2
REMARK    2  A    between atoms: C_7  and  C_8
REMARK    3  A    between atoms: C_13  and  O_14
REMARK    4  A    between atoms: O_14  and  C_15
REMARK    5  A    between atoms: C_18  and  N_19
REMARK    6  A    between atoms: N_22  and  C_23
REMARK    7  A    between atoms: C_23  and  C_24
REMARK    8  A    between atoms: C_23  and  C_25
REMARK    9  A    between atoms: C_23  and  C_26
REMARK                            x       y       z     vdW  Elec       q    Type
REMARK                         _______ _______ _______ _____ _____    ______ ____
ROOT
ATOM      1  C   UNL     1       0.461  10.242  18.793  0.00  0.00    +0.000 A 
ATOM      2  C   UNL     1       1.419   9.667  17.962  0.00  0.00    +0.000 A 
ATOM      3  C   UNL     1       2.147   8.565  18.388  0.00  0.00    +0.000 A 
ATOM      4  C   UNL     1       1.971   8.015  19.661  0.00  0.00    +0.000 A 
ATOM      5  C   UNL     1       1.174   8.730  20.608  0.00  0.00    +0.000 A 
ATOM      6  C   UNL     1       1.096   8.395  21.984  0.00  0.00    +0.000 A 
ATOM      7  C   UNL     1       0.322   9.134  22.883  0.00  0.00    +0.000 A 
ATOM      8  C   UNL     1      -0.424  10.214  22.432  0.00  0.00    +0.000 A 
ATOM      9  C   UNL     1      -0.395  10.558  21.081  0.00  0.00    +0.000 A 
ATOM     10  C   UNL     1       0.403   9.853  20.154  0.00  0.00    +0.000 A 
ENDROOT
BRANCH   4  11
ATOM     11  N   UNL     1       2.572   6.750  19.976  0.00  0.00    +0.000 N 
ATOM     12  C   UNL     1       2.498   5.635  19.154  0.00  0.00    +0.000 C 
ATOM     13  O   UNL     1       1.944   5.597  18.064  0.00  0.00    +0.000 OA
ATOM     14  N   UNL     1       3.133   4.523  19.672  0.00  0.00    +0.000 N 
ATOM     15  H   UNL     1       2.831   6.584  20.932  0.00  0.00    +0.000 HD
ATOM     16  H   UNL     1       3.287   4.501  20.669  0.00  0.00    +0.000 HD
BRANCH  14  17
ATOM     17  C   UNL     1       3.129   3.222  18.958  0.00  0.00    +0.000 C 
ATOM     18  C   UNL     1       3.638   3.381  17.510  0.00  0.00    +0.000 C 
ATOM     19  C   UNL     1       4.079   2.246  19.677  0.00  0.00    +0.000 C 
ATOM     20  C   UNL     1       1.724   2.590  18.952  0.00  0.00    +0.000 C 
ENDBRANCH  14  17
ENDBRANCH   4  11
BRANCH   1  21
ATOM     21  O   UNL     1      -0.393  11.231  18.306  0.00  0.00    +0.000 OA
BRANCH  21  27
ATOM     22  C   UNL     1      -1.093  13.312  19.357  0.00  0.00    +0.000 A 
ATOM     23  C   UNL     1      -0.667  14.593  19.781  0.00  0.00    +0.000 A 
ATOM     24  C   UNL     1       0.616  15.069  19.526  0.00  0.00    +0.000 A 
ATOM     25  C   UNL     1       1.460  14.264  18.802  0.00  0.00    +0.000 A 
ATOM     26  N   UNL     1       1.112  13.043  18.357  0.00  0.00    +0.000 NA
ATOM     27  C   UNL     1      -0.123  12.556  18.677  0.00  0.00    +0.000 A 
BRANCH  22  34
ATOM     28  C   UNL     1      -4.555  11.232  16.538  0.00  0.00    +0.000 C 
ATOM     29  N   UNL     1      -5.038  11.091  17.890  0.00  0.00    +0.000 N 
ATOM     30  C   UNL     1      -4.365  11.806  18.867  0.00  0.00    +0.000 A 
ATOM     31  N   UNL     1      -5.096  12.148  19.932  0.00  0.00    +0.000 NA
ATOM     32  C   UNL     1      -4.477  12.864  20.884  0.00  0.00    +0.000 A 
ATOM     33  C   UNL     1      -3.169  13.280  20.805  0.00  0.00    +0.000 A 
ATOM     34  C   UNL     1      -2.478  12.899  19.676  0.00  0.00    +0.000 A 
ATOM     35  N   UNL     1      -3.082  12.157  18.710  0.00  0.00    +0.000 NA
ATOM     36  H   UNL     1      -6.026  11.271  18.035  0.00  0.00    +0.000 HD
ENDBRANCH  22  34
ENDBRANCH  21  27
ENDBRANCH   1  21
TORSDOF 5
ENDMDL
MODEL 9
REMARK VINA RESULT:      -8.0      3.768      9.830
REMARK  Name = 
REMARK  9 active torsions:
REMARK  status: ('A' for Active; 'I' for Inactive)
REMARK    1  A    between atoms: C_1  and  N_2
REMARK    2  A    between atoms: C_7  and  C_8
REMARK    3  A    between atoms: C_13  and  O_14
REMARK    4  A    between atoms: O_14  and  C_15
REMARK    5  A    between atoms: C_18  and  N_19
REMARK    6  A    between atoms: N_22  and  C_23
REMARK    7  A    between atoms: C_23  and  C_24
REMARK    8  A    between atoms: C_23  and  C_25
REMARK    9  A    between atoms: C_23  and  C_26
REMARK                            x       y       z     vdW  Elec       q    Type
REMARK                         _______ _______ _______ _____ _____    ______ ____
ROOT
ATOM      1  C   UNL     1      -0.261  11.180  19.519  0.00  0.00    +0.000 A 
ATOM      2  C   UNL     1       0.653  10.745  18.563  0.00  0.00    +0.000 A 
ATOM      3  C   UNL     1       1.434   9.622  18.799  0.00  0.00    +0.000 A 
ATOM      4  C   UNL     1       1.357   8.912  20.000  0.00  0.00    +0.000 A 
ATOM      5  C   UNL     1       0.609   9.477  21.079  0.00  0.00    +0.000 A 
ATOM      6  C   UNL     1       0.631   8.971  22.403  0.00  0.00    +0.000 A 
ATOM      7  C   UNL     1      -0.100   9.566  23.436  0.00  0.00    +0.000 A 
ATOM      8  C   UNL     1      -0.900  10.668  23.173  0.00  0.00    +0.000 A 
ATOM      9  C   UNL     1      -0.969  11.180  21.878  0.00  0.00    +0.000 A 
ATOM     10  C   UNL     1      -0.218  10.623  20.820  0.00  0.00    +0.000 A 
ENDROOT
BRANCH   4  11
ATOM     11  N   UNL     1       2.008   7.638  20.113  0.00  0.00    +0.000 N 
ATOM     12  C   UNL     1       2.387   6.866  19.025  0.00  0.00    +0.000 C 
ATOM     13  O   UNL     1       2.242   7.180  17.851  0.00  0.00    +0.000 OA
ATOM     14  N   UNL     1       2.979   5.668  19.376  0.00  0.00    +0.000 N 
ATOM     15  H   UNL     1       1.956   7.166  20.999  0.00  0.00    +0.000 HD
ATOM     16  H   UNL     1       2.793   5.315  20.302  0.00  0.00    +0.000 HD
BRANCH  14  17
ATOM     17  C   UNL     1       3.416   4.687  18.351  0.00  0.00    +0.000 C 
ATOM     18  C   UNL     1       4.190   3.518  18.995  0.00  0.00    +0.000 C 
ATOM     19  C   UNL     1       2.177   4.094  17.656  0.00  0.00    +0.000 C 
ATOM     20  C   UNL     1       4.285   5.357  17.269  0.00  0.00    +0.000 C 
ENDBRANCH  14  17
ENDBRANCH   4  11
BRANCH   1  21
ATOM     21  O   UNL     1      -1.169  12.194  19.216  0.00  0.00    +0.000 OA
BRANCH  21  27
ATOM     22  C   UNL     1      -3.551  12.386  19.680  0.00  0.00    +0.000 A 
ATOM     23  C   UNL     1      -4.847  12.016  19.248  0.00  0.00    +0.000 A 
ATOM     24  C   UNL     1      -5.050  11.139  18.186  0.00  0.00    +0.000 A 
ATOM     25  C   UNL     1      -3.939  10.600  17.585  0.00  0.00    +0.000 A 
ATOM     26  N   UNL     1      -2.682  10.899  17.959  0.00  0.00    +0.000 NA
ATOM     27  C   UNL     1      -2.493  11.817  18.952  0.00  0.00    +0.000 A 
BRANCH  22  34
ATOM     28  C   UNL     1      -6.243  12.781  23.786  0.00  0.00    +0.000 C 
ATOM     29  N   UNL     1      -5.069  13.584  24.029  0.00  0.00    +0.000 N 
ATOM     30  C   UNL     1      -4.255  13.838  22.938  0.00  0.00    +0.000 A 
ATOM     31  N   UNL     1      -3.560  14.978  22.996  0.00  0.00    +0.000 NA
ATOM     32  C   UNL     1      -2.782  15.266  21.940  0.00  0.00    +0.000 A 
ATOM     33  C   UNL     1      -2.691  14.479  20.816  0.00  0.00    +0.000 A 
ATOM     34  C   UNL     1      -3.441  13.324  20.820  0.00  0.00    +0.000 A 
ATOM     35  N   UNL     1      -4.220  13.006  21.889  0.00  0.00    +0.000 NA
ATOM     36  H   UNL     1      -5.222  14.477  24.485  0.00  0.00    +0.000 HD
ENDBRANCH  22  34
ENDBRANCH  21  27
ENDBRANCH   1  21
TORSDOF 5
ENDMDL
