MODEL 1
REMARK VINA RESULT:      -7.4      0.000      0.000
REMARK  Name = 
REMARK  4 active torsions:
REMARK  status: ('A' for Active; 'I' for Inactive)
REMARK    1  A    between atoms: C_1  and  C_2
REMARK    2  A    between atoms: C_7  and  O_8
REMARK    3  A    between atoms: O_8  and  C_9
REMARK    4  A    between atoms: C_9  and  C_10
REMARK                            x       y       z     vdW  Elec       q    Type
REMARK                         _______ _______ _______ _____ _____    ______ ____
ROOT
ATOM      1  C   UNL     1       4.998   4.057  17.336  0.00  0.00    +0.000 A 
ATOM      2  N   UNL     1       5.080   5.185  16.654  0.00  0.00    +0.000 NA
ATOM      3  C   UNL     1       6.100   5.895  17.237  0.00  0.00    +0.000 A 
ATOM      4  C   UNL     1       6.610   7.159  16.909  0.00  0.00    +0.000 A 
ATOM      5  C   UNL     1       7.671   7.669  17.668  0.00  0.00    +0.000 A 
ATOM      6  C   UNL     1       8.210   6.935  18.727  0.00  0.00    +0.000 A 
ATOM      7  C   UNL     1       7.712   5.671  19.068  0.00  0.00    +0.000 A 
ATOM      8  C   UNL     1       6.657   5.188  18.296  0.00  0.00    +0.000 A 
ATOM      9  N   UNL     1       5.936   4.022  18.338  0.00  0.00    +0.000 N 
ATOM     10  H   UNL     1       6.057   3.256  18.985  0.00  0.00    +0.000 HD
ENDROOT
BRANCH   1  11
ATOM     11  C   UNL     1       4.033   2.950  17.078  0.00  0.00    +0.000 C 
BRANCH  11  12
ATOM     12  O   UNL     1       2.713   3.429  17.301  0.00  0.00    +0.000 OA
BRANCH  12  19
ATOM     13  C   UNL     1       2.402   6.245  18.749  0.00  0.00    +0.000 C 
ATOM     14  C   UNL     1       2.119   4.867  19.283  0.00  0.00    +0.000 A 
ATOM     15  C   UNL     1       1.649   4.815  20.615  0.00  0.00    +0.000 A 
ATOM     16  C   UNL     1       1.350   3.608  21.244  0.00  0.00    +0.000 A 
ATOM     17  C   UNL     1       1.514   2.419  20.552  0.00  0.00    +0.000 A 
ATOM     18  C   UNL     1       1.974   2.447  19.236  0.00  0.00    +0.000 A 
ATOM     19  C   UNL     1       2.281   3.657  18.583  0.00  0.00    +0.000 A 
ENDBRANCH  12  19
ENDBRANCH  11  12
ENDBRANCH   1  11
TORSDOF 3
ENDMDL
MODEL 2
REMARK VINA RESULT:      -7.3      2.041      5.852
REMARK  Name = 
REMARK  4 active torsions:
REMARK  status: ('A' for Active; 'I' for Inactive)
REMARK    1  A    between atoms: C_1  and  C_2
REMARK    2  A    between atoms: C_7  and  O_8
REMARK    3  A    between atoms: O_8  and  C_9
REMARK    4  A    between atoms: C_9  and  C_10
REMARK                            x       y       z     vdW  Elec       q    Type
REMARK                         _______ _______ _______ _____ _____    ______ ____
ROOT
ATOM      1  C   UNL     1       2.926   6.215  18.407  0.00  0.00    +0.000 A 
ATOM      2  N   UNL     1       2.248   5.205  17.895  0.00  0.00    +0.000 NA
ATOM      3  C   UNL     1       1.950   4.386  18.955  0.00  0.00    +0.000 A 
ATOM      4  C   UNL     1       1.245   3.174  18.978  0.00  0.00    +0.000 A 
ATOM      5  C   UNL     1       1.072   2.524  20.206  0.00  0.00    +0.000 A 
ATOM      6  C   UNL     1       1.589   3.071  21.383  0.00  0.00    +0.000 A 
ATOM      7  C   UNL     1       2.296   4.279  21.379  0.00  0.00    +0.000 A 
ATOM      8  C   UNL     1       2.453   4.905  20.142  0.00  0.00    +0.000 A 
ATOM      9  N   UNL     1       3.071   6.069  19.764  0.00  0.00    +0.000 N 
ATOM     10  H   UNL     1       3.554   6.722  20.364  0.00  0.00    +0.000 HD
ENDROOT
BRANCH   1  11
ATOM     11  C   UNL     1       3.472   7.375  17.645  0.00  0.00    +0.000 C 
BRANCH  11  12
ATOM     12  O   UNL     1       4.890   7.367  17.749  0.00  0.00    +0.000 OA
BRANCH  12  19
ATOM     13  C   UNL     1       7.210   5.616  19.042  0.00  0.00    +0.000 C 
ATOM     14  C   UNL     1       6.642   5.559  17.652  0.00  0.00    +0.000 A 
ATOM     15  C   UNL     1       7.219   4.591  16.797  0.00  0.00    +0.000 A 
ATOM     16  C   UNL     1       6.797   4.427  15.480  0.00  0.00    +0.000 A 
ATOM     17  C   UNL     1       5.782   5.228  14.982  0.00  0.00    +0.000 A 
ATOM     18  C   UNL     1       5.197   6.188  15.808  0.00  0.00    +0.000 A 
ATOM     19  C   UNL     1       5.609   6.369  17.142  0.00  0.00    +0.000 A 
ENDBRANCH  12  19
ENDBRANCH  11  12
ENDBRANCH   1  11
TORSDOF 3
ENDMDL
MODEL 3
REMARK VINA RESULT:      -7.2      2.019      5.987
REMARK  Name = 
REMARK  4 active torsions:
REMARK  status: ('A' for Active; 'I' for Inactive)
REMARK    1  A    between atoms: C_1  and  C_2
REMARK    2  A    between atoms: C_7  and  O_8
REMARK    3  A    between atoms: O_8  and  C_9
REMARK    4  A    between atoms: C_9  and  C_10
REMARK                            x       y       z     vdW  Elec       q    Type
REMARK                         _______ _______ _______ _____ _____    ______ ____
ROOT
ATOM      1  C   UNL     1       2.989   6.195  18.355  0.00  0.00    +0.000 A 
ATOM      2  N   UNL     1       3.107   6.072  19.665  0.00  0.00    +0.000 NA
ATOM      3  C   UNL     1       2.439   4.918  19.988  0.00  0.00    +0.000 A 
ATOM      4  C   UNL     1       2.250   4.316  21.240  0.00  0.00    +0.000 A 
ATOM      5  C   UNL     1       1.521   3.122  21.304  0.00  0.00    +0.000 A 
ATOM      6  C   UNL     1       0.994   2.543  20.147  0.00  0.00    +0.000 A 
ATOM      7  C   UNL     1       1.172   3.132  18.889  0.00  0.00    +0.000 A 
ATOM      8  C   UNL     1       1.902   4.319  18.855  0.00  0.00    +0.000 A 
ATOM      9  N   UNL     1       2.266   5.154  17.829  0.00  0.00    +0.000 N 
ATOM     10  H   UNL     1       2.052   5.040  16.849  0.00  0.00    +0.000 HD
ENDROOT
BRANCH   1  11
ATOM     11  C   UNL     1       3.555   7.300  17.528  0.00  0.00    +0.000 C 
BRANCH  11  12
ATOM     12  O   UNL     1       4.970   7.297  17.663  0.00  0.00    +0.000 OA
BRANCH  12  19
ATOM     13  C   UNL     1       7.437   5.694  18.875  0.00  0.00    +0.000 C 
ATOM     14  C   UNL     1       6.804   5.575  17.516  0.00  0.00    +0.000 A 
ATOM     15  C   UNL     1       7.387   4.618  16.655  0.00  0.00    +0.000 A 
ATOM     16  C   UNL     1       6.911   4.402  15.363  0.00  0.00    +0.000 A 
ATOM     17  C   UNL     1       5.834   5.140  14.900  0.00  0.00    +0.000 A 
ATOM     18  C   UNL     1       5.242   6.089  15.734  0.00  0.00    +0.000 A 
ATOM     19  C   UNL     1       5.709   6.322  17.042  0.00  0.00    +0.000 A 
ENDBRANCH  12  19
ENDBRANCH  11  12
ENDBRANCH   1  11
TORSDOF 3
ENDMDL
MODEL 4
REMARK VINA RESULT:      -7.1      0.375      1.416
REMARK  Name = 
REMARK  4 active torsions:
REMARK  status: ('A' for Active; 'I' for Inactive)
REMARK    1  A    between atoms: C_1  and  C_2
REMARK    2  A    between atoms: C_7  and  O_8
REMARK    3  A    between atoms: O_8  and  C_9
REMARK    4  A    between atoms: C_9  and  C_10
REMARK                            x       y       z     vdW  Elec       q    Type
REMARK                         _______ _______ _______ _____ _____    ______ ____
ROOT
ATOM      1  C   UNL     1       4.965   4.425  17.344  0.00  0.00    +0.000 A 
ATOM      2  N   UNL     1       5.860   4.270  18.302  0.00  0.00    +0.000 NA
ATOM      3  C   UNL     1       6.620   5.413  18.285  0.00  0.00    +0.000 A 
ATOM      4  C   UNL     1       7.707   5.775  19.092  0.00  0.00    +0.000 A 
ATOM      5  C   UNL     1       8.318   7.016  18.873  0.00  0.00    +0.000 A 
ATOM      6  C   UNL     1       7.855   7.875  17.873  0.00  0.00    +0.000 A 
ATOM      7  C   UNL     1       6.770   7.528  17.057  0.00  0.00    +0.000 A 
ATOM      8  C   UNL     1       6.181   6.288  17.298  0.00  0.00    +0.000 A 
ATOM      9  N   UNL     1       5.127   5.633  16.713  0.00  0.00    +0.000 N 
ATOM     10  H   UNL     1       4.555   5.964  15.950  0.00  0.00    +0.000 HD
ENDROOT
BRANCH   1  11
ATOM     11  C   UNL     1       3.906   3.442  16.972  0.00  0.00    +0.000 C 
BRANCH  11  12
ATOM     12  O   UNL     1       2.640   3.963  17.357  0.00  0.00    +0.000 OA
BRANCH  12  19
ATOM     13  C   UNL     1       2.606   6.428  19.368  0.00  0.00    +0.000 C 
ATOM     14  C   UNL     1       2.233   4.993  19.620  0.00  0.00    +0.000 A 
ATOM     15  C   UNL     1       1.807   4.697  20.935  0.00  0.00    +0.000 A 
ATOM     16  C   UNL     1       1.436   3.409  21.316  0.00  0.00    +0.000 A 
ATOM     17  C   UNL     1       1.479   2.382  20.387  0.00  0.00    +0.000 A 
ATOM     18  C   UNL     1       1.894   2.653  19.083  0.00  0.00    +0.000 A 
ATOM     19  C   UNL     1       2.273   3.947  18.679  0.00  0.00    +0.000 A 
ENDBRANCH  12  19
ENDBRANCH  11  12
ENDBRANCH   1  11
TORSDOF 3
ENDMDL
MODEL 5
REMARK VINA RESULT:      -7.1      2.859      3.976
REMARK  Name = 
REMARK  4 active torsions:
REMARK  status: ('A' for Active; 'I' for Inactive)
REMARK    1  A    between atoms: C_1  and  C_2
REMARK    2  A    between atoms: C_7  and  O_8
REMARK    3  A    between atoms: O_8  and  C_9
REMARK    4  A    between atoms: C_9  and  C_10
REMARK                            x       y       z     vdW  Elec       q    Type
REMARK                         _______ _______ _______ _____ _____    ______ ____
ROOT
ATOM      1  C   UNL     1       6.350   4.957  16.479  0.00  0.00    +0.000 A 
ATOM      2  N   UNL     1       7.299   5.475  15.720  0.00  0.00    +0.000 NA
ATOM      3  C   UNL     1       7.089   4.962  14.465  0.00  0.00    +0.000 A 
ATOM      4  C   UNL     1       7.804   5.180  13.279  0.00  0.00    +0.000 A 
ATOM      5  C   UNL     1       7.380   4.529  12.114  0.00  0.00    +0.000 A 
ATOM      6  C   UNL     1       6.269   3.682  12.131  0.00  0.00    +0.000 A 
ATOM      7  C   UNL     1       5.544   3.452  13.307  0.00  0.00    +0.000 A 
ATOM      8  C   UNL     1       5.988   4.113  14.452  0.00  0.00    +0.000 A 
ATOM      9  N   UNL     1       5.537   4.128  15.747  0.00  0.00    +0.000 N 
ATOM     10  H   UNL     1       4.746   3.624  16.120  0.00  0.00    +0.000 HD
ENDROOT
BRANCH   1  11
ATOM     11  C   UNL     1       6.156   5.219  17.934  0.00  0.00    +0.000 C 
BRANCH  11  12
ATOM     12  O   UNL     1       5.611   4.055  18.542  0.00  0.00    +0.000 OA
BRANCH  12  19
ATOM     13  C   UNL     1       3.523   1.670  18.269  0.00  0.00    +0.000 C 
ATOM     14  C   UNL     1       3.328   3.038  18.861  0.00  0.00    +0.000 A 
ATOM     15  C   UNL     1       2.035   3.304  19.367  0.00  0.00    +0.000 A 
ATOM     16  C   UNL     1       1.705   4.530  19.939  0.00  0.00    +0.000 A 
ATOM     17  C   UNL     1       2.665   5.526  20.021  0.00  0.00    +0.000 A 
ATOM     18  C   UNL     1       3.948   5.285  19.530  0.00  0.00    +0.000 A 
ATOM     19  C   UNL     1       4.301   4.052  18.948  0.00  0.00    +0.000 A 
ENDBRANCH  12  19
ENDBRANCH  11  12
ENDBRANCH   1  11
TORSDOF 3
ENDMDL
MODEL 6
REMARK VINA RESULT:      -7.1      0.997      1.094
REMARK  Name = 
REMARK  4 active torsions:
REMARK  status: ('A' for Active; 'I' for Inactive)
REMARK    1  A    between atoms: C_1  and  C_2
REMARK    2  A    between atoms: C_7  and  O_8
REMARK    3  A    between atoms: O_8  and  C_9
REMARK    4  A    between atoms: C_9  and  C_10
REMARK                            x       y       z     vdW  Elec       q    Type
REMARK                         _______ _______ _______ _____ _____    ______ ____
ROOT
ATOM      1  C   UNL     1       5.080   4.159  17.364  0.00  0.00    +0.000 A 
ATOM      2  N   UNL     1       5.088   5.337  16.767  0.00  0.00    +0.000 NA
ATOM      3  C   UNL     1       6.125   6.032  17.337  0.00  0.00    +0.000 A 
ATOM      4  C   UNL     1       6.580   7.332  17.075  0.00  0.00    +0.000 A 
ATOM      5  C   UNL     1       7.676   7.815  17.802  0.00  0.00    +0.000 A 
ATOM      6  C   UNL     1       8.302   7.020  18.765  0.00  0.00    +0.000 A 
ATOM      7  C   UNL     1       7.860   5.720  19.039  0.00  0.00    +0.000 A 
ATOM      8  C   UNL     1       6.768   5.264  18.301  0.00  0.00    +0.000 A 
ATOM      9  N   UNL     1       6.081   4.077  18.298  0.00  0.00    +0.000 N 
ATOM     10  H   UNL     1       6.265   3.269  18.875  0.00  0.00    +0.000 HD
ENDROOT
BRANCH   1  11
ATOM     11  C   UNL     1       4.128   3.045  17.083  0.00  0.00    +0.000 C 
BRANCH  11  12
ATOM     12  O   UNL     1       3.892   2.328  18.288  0.00  0.00    +0.000 OA
BRANCH  12  19
ATOM     13  C   UNL     1       1.305   4.063  17.644  0.00  0.00    +0.000 C 
ATOM     14  C   UNL     1       1.803   3.560  18.970  0.00  0.00    +0.000 A 
ATOM     15  C   UNL     1       1.011   3.906  20.089  0.00  0.00    +0.000 A 
ATOM     16  C   UNL     1       1.351   3.514  21.382  0.00  0.00    +0.000 A 
ATOM     17  C   UNL     1       2.496   2.761  21.588  0.00  0.00    +0.000 A 
ATOM     18  C   UNL     1       3.291   2.406  20.498  0.00  0.00    +0.000 A 
ATOM     19  C   UNL     1       2.964   2.793  19.185  0.00  0.00    +0.000 A 
ENDBRANCH  12  19
ENDBRANCH  11  12
ENDBRANCH   1  11
TORSDOF 3
ENDMDL
MODEL 7
REMARK VINA RESULT:      -7.0      1.171      1.686
REMARK  Name = 
REMARK  4 active torsions:
REMARK  status: ('A' for Active; 'I' for Inactive)
REMARK    1  A    between atoms: C_1  and  C_2
REMARK    2  A    between atoms: C_7  and  O_8
REMARK    3  A    between atoms: O_8  and  C_9
REMARK    4  A    between atoms: C_9  and  C_10
REMARK                            x       y       z     vdW  Elec       q    Type
REMARK                         _______ _______ _______ _____ _____    ______ ____
ROOT
ATOM      1  C   UNL     1       4.617   4.309  17.156  0.00  0.00    +0.000 A 
ATOM      2  N   UNL     1       4.722   5.533  16.673  0.00  0.00    +0.000 NA
ATOM      3  C   UNL     1       5.846   6.064  17.252  0.00  0.00    +0.000 A 
ATOM      4  C   UNL     1       6.421   7.332  17.092  0.00  0.00    +0.000 A 
ATOM      5  C   UNL     1       7.588   7.632  17.805  0.00  0.00    +0.000 A 
ATOM      6  C   UNL     1       8.168   6.689  18.657  0.00  0.00    +0.000 A 
ATOM      7  C   UNL     1       7.607   5.418  18.830  0.00  0.00    +0.000 A 
ATOM      8  C   UNL     1       6.446   5.146  18.108  0.00  0.00    +0.000 A 
ATOM      9  N   UNL     1       5.642   4.038  18.028  0.00  0.00    +0.000 N 
ATOM     10  H   UNL     1       5.764   3.163  18.517  0.00  0.00    +0.000 HD
ENDROOT
BRANCH   1  11
ATOM     11  C   UNL     1       3.546   3.326  16.820  0.00  0.00    +0.000 C 
BRANCH  11  12
ATOM     12  O   UNL     1       3.524   2.312  17.816  0.00  0.00    +0.000 OA
BRANCH  12  19
ATOM     13  C   UNL     1       4.745   1.896  20.725  0.00  0.00    +0.000 C 
ATOM     14  C   UNL     1       3.382   2.393  20.331  0.00  0.00    +0.000 A 
ATOM     15  C   UNL     1       2.521   2.721  21.403  0.00  0.00    +0.000 A 
ATOM     16  C   UNL     1       1.226   3.189  21.190  0.00  0.00    +0.000 A 
ATOM     17  C   UNL     1       0.759   3.342  19.894  0.00  0.00    +0.000 A 
ATOM     18  C   UNL     1       1.592   3.026  18.822  0.00  0.00    +0.000 A 
ATOM     19  C   UNL     1       2.904   2.552  19.016  0.00  0.00    +0.000 A 
ENDBRANCH  12  19
ENDBRANCH  11  12
ENDBRANCH   1  11
TORSDOF 3
ENDMDL
MODEL 8
REMARK VINA RESULT:      -7.0      2.816      3.916
REMARK  Name = 
REMARK  4 active torsions:
REMARK  status: ('A' for Active; 'I' for Inactive)
REMARK    1  A    between atoms: C_1  and  C_2
REMARK    2  A    between atoms: C_7  and  O_8
REMARK    3  A    between atoms: O_8  and  C_9
REMARK    4  A    between atoms: C_9  and  C_10
REMARK                            x       y       z     vdW  Elec       q    Type
REMARK                         _______ _______ _______ _____ _____    ______ ____
ROOT
ATOM      1  C   UNL     1       5.988   5.041  16.415  0.00  0.00    +0.000 A 
ATOM      2  N   UNL     1       5.253   4.228  15.679  0.00  0.00    +0.000 NA
ATOM      3  C   UNL     1       5.857   4.197  14.448  0.00  0.00    +0.000 A 
ATOM      4  C   UNL     1       5.494   3.493  13.291  0.00  0.00    +0.000 A 
ATOM      5  C   UNL     1       6.290   3.631  12.147  0.00  0.00    +0.000 A 
ATOM      6  C   UNL     1       7.422   4.451  12.158  0.00  0.00    +0.000 A 
ATOM      7  C   UNL     1       7.798   5.162  13.304  0.00  0.00    +0.000 A 
ATOM      8  C   UNL     1       6.988   5.006  14.428  0.00  0.00    +0.000 A 
ATOM      9  N   UNL     1       7.047   5.531  15.693  0.00  0.00    +0.000 N 
ATOM     10  H   UNL     1       7.741   6.170  16.053  0.00  0.00    +0.000 HD
ENDROOT
BRANCH   1  11
ATOM     11  C   UNL     1       5.733   5.397  17.841  0.00  0.00    +0.000 C 
BRANCH  11  12
ATOM     12  O   UNL     1       5.341   4.225  18.545  0.00  0.00    +0.000 OA
BRANCH  12  19
ATOM     13  C   UNL     1       3.427   1.708  18.193  0.00  0.00    +0.000 C 
ATOM     14  C   UNL     1       3.150   3.023  18.869  0.00  0.00    +0.000 A 
ATOM     15  C   UNL     1       1.858   3.161  19.426  0.00  0.00    +0.000 A 
ATOM     16  C   UNL     1       1.458   4.326  20.078  0.00  0.00    +0.000 A 
ATOM     17  C   UNL     1       2.345   5.385  20.190  0.00  0.00    +0.000 A 
ATOM     18  C   UNL     1       3.625   5.269  19.650  0.00  0.00    +0.000 A 
ATOM     19  C   UNL     1       4.048   4.101  18.987  0.00  0.00    +0.000 A 
ENDBRANCH  12  19
ENDBRANCH  11  12
ENDBRANCH   1  11
TORSDOF 3
ENDMDL
MODEL 9
REMARK VINA RESULT:      -6.9      2.744      3.783
REMARK  Name = 
REMARK  4 active torsions:
REMARK  status: ('A' for Active; 'I' for Inactive)
REMARK    1  A    between atoms: C_1  and  C_2
REMARK    2  A    between atoms: C_7  and  O_8
REMARK    3  A    between atoms: O_8  and  C_9
REMARK    4  A    between atoms: C_9  and  C_10
REMARK                            x       y       z     vdW  Elec       q    Type
REMARK                         _______ _______ _______ _____ _____    ______ ____
ROOT
ATOM      1  C   UNL     1       5.736   4.974  16.340  0.00  0.00    +0.000 A 
ATOM      2  N   UNL     1       6.750   5.583  15.752  0.00  0.00    +0.000 NA
ATOM      3  C   UNL     1       6.826   5.042  14.494  0.00  0.00    +0.000 A 
ATOM      4  C   UNL     1       7.719   5.325  13.450  0.00  0.00    +0.000 A 
ATOM      5  C   UNL     1       7.583   4.626  12.245  0.00  0.00    +0.000 A 
ATOM      6  C   UNL     1       6.580   3.666  12.084  0.00  0.00    +0.000 A 
ATOM      7  C   UNL     1       5.680   3.370  13.116  0.00  0.00    +0.000 A 
ATOM      8  C   UNL     1       5.838   4.082  14.304  0.00  0.00    +0.000 A 
ATOM      9  N   UNL     1       5.160   4.058  15.496  0.00  0.00    +0.000 N 
ATOM     10  H   UNL     1       4.369   3.476  15.733  0.00  0.00    +0.000 HD
ENDROOT
BRANCH   1  11
ATOM     11  C   UNL     1       5.255   5.224  17.729  0.00  0.00    +0.000 C 
BRANCH  11  12
ATOM     12  O   UNL     1       3.890   5.618  17.679  0.00  0.00    +0.000 OA
BRANCH  12  19
ATOM     13  C   UNL     1       2.587   2.723  17.464  0.00  0.00    +0.000 C 
ATOM     14  C   UNL     1       2.376   3.783  18.510  0.00  0.00    +0.000 A 
ATOM     15  C   UNL     1       1.471   3.447  19.543  0.00  0.00    +0.000 A 
ATOM     16  C   UNL     1       1.172   4.332  20.576  0.00  0.00    +0.000 A 
ATOM     17  C   UNL     1       1.775   5.579  20.604  0.00  0.00    +0.000 A 
ATOM     18  C   UNL     1       2.673   5.930  19.596  0.00  0.00    +0.000 A 
ATOM     19  C   UNL     1       2.988   5.050  18.543  0.00  0.00    +0.000 A 
ENDBRANCH  12  19
ENDBRANCH  11  12
ENDBRANCH   1  11
TORSDOF 3
ENDMDL
