MODEL 1
REMARK VINA RESULT:      -7.3      0.000      0.000
REMARK  Name = 
REMARK  7 active torsions:
REMARK  status: ('A' for Active; 'I' for Inactive)
REMARK    1  A    between atoms: C_1  and  N_2
REMARK    2  A    between atoms: C_7  and  C_8
REMARK    3  A    between atoms: C_10  and  C_11
REMARK    4  A    between atoms: N_13  and  C_14
REMARK    5  A    between atoms: C_14  and  C_15
REMARK    6  A    between atoms: C_22  and  O_23
REMARK    7  A    between atoms: N_26  and  C_27
REMARK                            x       y       z     vdW  Elec       q    Type
REMARK                         _______ _______ _______ _____ _____    ______ ____
ROOT
ATOM      1  C   UNL     1       0.375  12.190  21.085  0.00  0.00    +0.000 A 
ATOM      2  N   UNL     1       0.990  11.502  20.141  0.00  0.00    +0.000 NA
ATOM      3  C   UNL     1       0.951  10.107  20.231  0.00  0.00    +0.000 A 
ATOM      4  C   UNL     1       0.568   9.444  21.343  0.00  0.00    +0.000 A 
ATOM      5  C   UNL     1       0.015  10.260  22.434  0.00  0.00    +0.000 A 
ATOM      6  O   UNL     1      -0.208   9.771  23.523  0.00  0.00    +0.000 OA
ATOM      7  N   UNL     1      -0.300  11.562  22.107  0.00  0.00    +0.000 N 
ATOM      8  C   UNL     1      -1.411  12.108  22.859  0.00  0.00    +0.000 C 
ENDROOT
BRANCH   1  15
ATOM      9  C   UNL     1      -1.608  15.356  20.517  0.00  0.00    +0.000 C 
ATOM     10  N   UNL     1      -0.631  14.356  20.076  0.00  0.00    +0.000 NA
ATOM     11  C   UNL     1      -0.081  14.886  18.810  0.00  0.00    +0.000 C 
ATOM     12  C   UNL     1       1.331  15.472  18.902  0.00  0.00    +0.000 C 
ATOM     13  O   UNL     1       2.240  14.584  19.546  0.00  0.00    +0.000 OA
ATOM     14  C   UNL     1       1.846  14.328  20.893  0.00  0.00    +0.000 C 
ATOM     15  C   UNL     1       0.405  13.780  21.014  0.00  0.00    +0.000 C 
ENDBRANCH   1  15
BRANCH   3  16
ATOM     16  C   UNL     1       1.343   9.174  19.085  0.00  0.00    +0.000 C 
ATOM     17  O   UNL     1       0.873   9.340  17.955  0.00  0.00    +0.000 OA
ATOM     18  N   UNL     1       2.201   8.135  19.334  0.00  0.00    +0.000 N 
ATOM     19  H   UNL     1       2.582   8.020  20.262  0.00  0.00    +0.000 HD
BRANCH  18  20
ATOM     20  C   UNL     1       2.465   7.150  18.294  0.00  0.00    +0.000 C 
BRANCH  20  21
ATOM     21  C   UNL     1       2.156   5.733  18.719  0.00  0.00    +0.000 A 
ATOM     22  C   UNL     1       1.967   5.430  20.075  0.00  0.00    +0.000 A 
ATOM     23  C   UNL     1       1.669   4.125  20.475  0.00  0.00    +0.000 A 
ATOM     24  C   UNL     1       1.560   3.120  19.522  0.00  0.00    +0.000 A 
ATOM     25  F   UNL     1       1.280   1.869  19.913  0.00  0.00    +0.000 F 
ATOM     26  C   UNL     1       1.737   3.395  18.172  0.00  0.00    +0.000 A 
ATOM     27  C   UNL     1       2.035   4.701  17.770  0.00  0.00    +0.000 A 
ENDBRANCH  20  21
ENDBRANCH  18  20
ENDBRANCH   3  16
BRANCH   4  28
ATOM     28  O   UNL     1       0.570   8.068  21.539  0.00  0.00    +0.000 OA
ATOM     29  H   UNL     1       1.452   7.713  21.295  0.00  0.00    +0.000 HD
ENDBRANCH   4  28
TORSDOF 5
ENDMDL
MODEL 2
REMARK VINA RESULT:      -7.1      0.821      1.047
REMARK  Name = 
REMARK  7 active torsions:
REMARK  status: ('A' for Active; 'I' for Inactive)
REMARK    1  A    between atoms: C_1  and  N_2
REMARK    2  A    between atoms: C_7  and  C_8
REMARK    3  A    between atoms: C_10  and  C_11
REMARK    4  A    between atoms: N_13  and  C_14
REMARK    5  A    between atoms: C_14  and  C_15
REMARK    6  A    between atoms: C_22  and  O_23
REMARK    7  A    between atoms: N_26  and  C_27
REMARK                            x       y       z     vdW  Elec       q    Type
REMARK                         _______ _______ _______ _____ _____    ______ ____
ROOT
ATOM      1  C   UNL     1       0.134  12.157  21.058  0.00  0.00    +0.000 A 
ATOM      2  N   UNL     1       0.787  11.496  20.119  0.00  0.00    +0.000 NA
ATOM      3  C   UNL     1       0.843  10.104  20.232  0.00  0.00    +0.000 A 
ATOM      4  C   UNL     1       0.517   9.434  21.358  0.00  0.00    +0.000 A 
ATOM      5  C   UNL     1      -0.081  10.229  22.441  0.00  0.00    +0.000 A 
ATOM      6  O   UNL     1      -0.261   9.744  23.541  0.00  0.00    +0.000 OA
ATOM      7  N   UNL     1      -0.488  11.501  22.096  0.00  0.00    +0.000 N 
ATOM      8  C   UNL     1      -1.627  11.983  22.851  0.00  0.00    +0.000 C 
ENDROOT
BRANCH   1  15
ATOM      9  C   UNL     1      -0.172  15.162  18.788  0.00  0.00    +0.000 C 
ATOM     10  N   UNL     1       0.614  14.292  19.667  0.00  0.00    +0.000 NA
ATOM     11  C   UNL     1       1.924  14.963  19.806  0.00  0.00    +0.000 C 
ATOM     12  C   UNL     1       2.163  15.667  21.144  0.00  0.00    +0.000 C 
ATOM     13  O   UNL     1       1.881  14.819  22.254  0.00  0.00    +0.000 OA
ATOM     14  C   UNL     1       0.510  14.428  22.271  0.00  0.00    +0.000 C 
ATOM     15  C   UNL     1       0.055  13.743  20.961  0.00  0.00    +0.000 C 
ENDBRANCH   1  15
BRANCH   3  16
ATOM     16  C   UNL     1       1.289   9.180  19.097  0.00  0.00    +0.000 C 
ATOM     17  O   UNL     1       0.847   9.337  17.954  0.00  0.00    +0.000 OA
ATOM     18  N   UNL     1       2.162   8.160  19.370  0.00  0.00    +0.000 N 
ATOM     19  H   UNL     1       2.518   8.052  20.309  0.00  0.00    +0.000 HD
BRANCH  18  20
ATOM     20  C   UNL     1       2.477   7.182  18.338  0.00  0.00    +0.000 C 
BRANCH  20  21
ATOM     21  C   UNL     1       2.217   5.755  18.765  0.00  0.00    +0.000 A 
ATOM     22  C   UNL     1       2.309   5.397  20.119  0.00  0.00    +0.000 A 
ATOM     23  C   UNL     1       2.058   4.085  20.523  0.00  0.00    +0.000 A 
ATOM     24  C   UNL     1       1.716   3.125  19.578  0.00  0.00    +0.000 A 
ATOM     25  F   UNL     1       1.483   1.866  19.972  0.00  0.00    +0.000 F 
ATOM     26  C   UNL     1       1.613   3.455  18.233  0.00  0.00    +0.000 A 
ATOM     27  C   UNL     1       1.864   4.769  17.826  0.00  0.00    +0.000 A 
ENDBRANCH  20  21
ENDBRANCH  18  20
ENDBRANCH   3  16
BRANCH   4  28
ATOM     28  O   UNL     1       0.614   8.066  21.577  0.00  0.00    +0.000 OA
ATOM     29  H   UNL     1       0.031   7.600  20.938  0.00  0.00    +0.000 HD
ENDBRANCH   4  28
TORSDOF 5
ENDMDL
MODEL 3
REMARK VINA RESULT:      -7.0      4.098      8.195
REMARK  Name = 
REMARK  7 active torsions:
REMARK  status: ('A' for Active; 'I' for Inactive)
REMARK    1  A    between atoms: C_1  and  N_2
REMARK    2  A    between atoms: C_7  and  C_8
REMARK    3  A    between atoms: C_10  and  C_11
REMARK    4  A    between atoms: N_13  and  C_14
REMARK    5  A    between atoms: C_14  and  C_15
REMARK    6  A    between atoms: C_22  and  O_23
REMARK    7  A    between atoms: N_26  and  C_27
REMARK                            x       y       z     vdW  Elec       q    Type
REMARK                         _______ _______ _______ _____ _____    ______ ____
ROOT
ATOM      1  C   UNL     1       4.287   5.512  18.452  0.00  0.00    +0.000 A 
ATOM      2  N   UNL     1       3.636   6.630  18.713  0.00  0.00    +0.000 NA
ATOM      3  C   UNL     1       2.511   6.544  19.538  0.00  0.00    +0.000 A 
ATOM      4  C   UNL     1       1.906   5.379  19.852  0.00  0.00    +0.000 A 
ATOM      5  C   UNL     1       2.590   4.150  19.422  0.00  0.00    +0.000 A 
ATOM      6  O   UNL     1       2.045   3.069  19.522  0.00  0.00    +0.000 OA
ATOM      7  N   UNL     1       3.890   4.309  18.990  0.00  0.00    +0.000 N 
ATOM      8  C   UNL     1       4.740   3.163  19.241  0.00  0.00    +0.000 C 
ENDROOT
BRANCH   1  15
ATOM      9  C   UNL     1       7.837   4.347  17.883  0.00  0.00    +0.000 C 
ATOM     10  N   UNL     1       6.869   5.382  18.260  0.00  0.00    +0.000 NA
ATOM     11  C   UNL     1       7.668   6.616  18.424  0.00  0.00    +0.000 C 
ATOM     12  C   UNL     1       7.540   7.637  17.289  0.00  0.00    +0.000 C 
ATOM     13  O   UNL     1       6.180   7.922  16.975  0.00  0.00    +0.000 OA
ATOM     14  C   UNL     1       5.500   6.756  16.515  0.00  0.00    +0.000 C 
ATOM     15  C   UNL     1       5.570   5.576  17.512  0.00  0.00    +0.000 C 
ENDBRANCH   1  15
BRANCH   3  16
ATOM     16  C   UNL     1       1.833   7.759  20.174  0.00  0.00    +0.000 C 
ATOM     17  O   UNL     1       1.566   7.765  21.380  0.00  0.00    +0.000 OA
ATOM     18  N   UNL     1       1.499   8.827  19.384  0.00  0.00    +0.000 N 
ATOM     19  H   UNL     1       1.732   8.807  18.401  0.00  0.00    +0.000 HD
BRANCH  18  20
ATOM     20  C   UNL     1       0.719   9.923  19.942  0.00  0.00    +0.000 C 
BRANCH  20  21
ATOM     21  C   UNL     1      -0.453  10.326  19.075  0.00  0.00    +0.000 A 
ATOM     22  C   UNL     1      -1.287  11.383  19.467  0.00  0.00    +0.000 A 
ATOM     23  C   UNL     1      -2.364  11.770  18.667  0.00  0.00    +0.000 A 
ATOM     24  C   UNL     1      -2.612  11.102  17.473  0.00  0.00    +0.000 A 
ATOM     25  F   UNL     1      -3.650  11.474  16.713  0.00  0.00    +0.000 F 
ATOM     26  C   UNL     1      -1.797  10.056  17.061  0.00  0.00    +0.000 A 
ATOM     27  C   UNL     1      -0.718   9.667  17.861  0.00  0.00    +0.000 A 
ENDBRANCH  20  21
ENDBRANCH  18  20
ENDBRANCH   3  16
BRANCH   4  28
ATOM     28  O   UNL     1       0.748   5.212  20.601  0.00  0.00    +0.000 OA
ATOM     29  H   UNL     1       0.910   4.531  21.289  0.00  0.00    +0.000 HD
ENDBRANCH   4  28
TORSDOF 5
ENDMDL
MODEL 4
REMARK VINA RESULT:      -6.9      3.890      8.861
REMARK  Name = 
REMARK  7 active torsions:
REMARK  status: ('A' for Active; 'I' for Inactive)
REMARK    1  A    between atoms: C_1  and  N_2
REMARK    2  A    between atoms: C_7  and  C_8
REMARK    3  A    between atoms: C_10  and  C_11
REMARK    4  A    between atoms: N_13  and  C_14
REMARK    5  A    between atoms: C_14  and  C_15
REMARK    6  A    between atoms: C_22  and  O_23
REMARK    7  A    between atoms: N_26  and  C_27
REMARK                            x       y       z     vdW  Elec       q    Type
REMARK                         _______ _______ _______ _____ _____    ______ ____
ROOT
ATOM      1  C   UNL     1       3.464   4.348  18.426  0.00  0.00    +0.000 A 
ATOM      2  N   UNL     1       2.833   5.485  18.650  0.00  0.00    +0.000 NA
ATOM      3  C   UNL     1       3.381   6.647  18.098  0.00  0.00    +0.000 A 
ATOM      4  C   UNL     1       4.632   6.714  17.596  0.00  0.00    +0.000 A 
ATOM      5  C   UNL     1       5.363   5.442  17.491  0.00  0.00    +0.000 A 
ATOM      6  O   UNL     1       6.542   5.426  17.199  0.00  0.00    +0.000 OA
ATOM      7  N   UNL     1       4.607   4.301  17.659  0.00  0.00    +0.000 N 
ATOM      8  C   UNL     1       5.084   3.158  16.907  0.00  0.00    +0.000 C 
ENDROOT
BRANCH   1  15
ATOM      9  C   UNL     1       0.471   2.056  18.681  0.00  0.00    +0.000 C 
ATOM     10  N   UNL     1       1.372   3.060  19.254  0.00  0.00    +0.000 NA
ATOM     11  C   UNL     1       0.959   3.188  20.668  0.00  0.00    +0.000 C 
ATOM     12  C   UNL     1       1.889   2.523  21.687  0.00  0.00    +0.000 C 
ATOM     13  O   UNL     1       3.250   2.897  21.496  0.00  0.00    +0.000 OA
ATOM     14  C   UNL     1       3.726   2.479  20.217  0.00  0.00    +0.000 C 
ATOM     15  C   UNL     1       2.868   3.008  19.044  0.00  0.00    +0.000 C 
ENDBRANCH   1  15
BRANCH   3  16
ATOM     16  C   UNL     1       2.630   7.976  18.006  0.00  0.00    +0.000 C 
ATOM     17  O   UNL     1       2.711   8.670  16.988  0.00  0.00    +0.000 OA
ATOM     18  N   UNL     1       1.890   8.401  19.078  0.00  0.00    +0.000 N 
ATOM     19  H   UNL     1       1.830   7.816  19.900  0.00  0.00    +0.000 HD
BRANCH  18  20
ATOM     20  C   UNL     1       1.295   9.730  19.066  0.00  0.00    +0.000 C 
BRANCH  20  21
ATOM     21  C   UNL     1       0.510  10.047  20.318  0.00  0.00    +0.000 A 
ATOM     22  C   UNL     1      -0.276  11.207  20.382  0.00  0.00    +0.000 A 
ATOM     23  C   UNL     1      -1.013  11.501  21.530  0.00  0.00    +0.000 A 
ATOM     24  C   UNL     1      -0.968  10.639  22.619  0.00  0.00    +0.000 A 
ATOM     25  F   UNL     1      -1.674  10.930  23.720  0.00  0.00    +0.000 F 
ATOM     26  C   UNL     1      -0.202   9.481  22.579  0.00  0.00    +0.000 A 
ATOM     27  C   UNL     1       0.537   9.185  21.430  0.00  0.00    +0.000 A 
ENDBRANCH  20  21
ENDBRANCH  18  20
ENDBRANCH   3  16
BRANCH   4  28
ATOM     28  O   UNL     1       5.276   7.839  17.099  0.00  0.00    +0.000 OA
ATOM     29  H   UNL     1       4.626   8.572  17.027  0.00  0.00    +0.000 HD
ENDBRANCH   4  28
TORSDOF 5
ENDMDL
MODEL 5
REMARK VINA RESULT:      -6.9      3.972      8.345
REMARK  Name = 
REMARK  7 active torsions:
REMARK  status: ('A' for Active; 'I' for Inactive)
REMARK    1  A    between atoms: C_1  and  N_2
REMARK    2  A    between atoms: C_7  and  C_8
REMARK    3  A    between atoms: C_10  and  C_11
REMARK    4  A    between atoms: N_13  and  C_14
REMARK    5  A    between atoms: C_14  and  C_15
REMARK    6  A    between atoms: C_22  and  O_23
REMARK    7  A    between atoms: N_26  and  C_27
REMARK                            x       y       z     vdW  Elec       q    Type
REMARK                         _______ _______ _______ _____ _____    ______ ____
ROOT
ATOM      1  C   UNL     1       4.088   4.703  18.889  0.00  0.00    +0.000 A 
ATOM      2  N   UNL     1       3.580   5.900  19.112  0.00  0.00    +0.000 NA
ATOM      3  C   UNL     1       2.358   5.966  19.788  0.00  0.00    +0.000 A 
ATOM      4  C   UNL     1       1.553   4.899  19.977  0.00  0.00    +0.000 A 
ATOM      5  C   UNL     1       2.099   3.591  19.585  0.00  0.00    +0.000 A 
ATOM      6  O   UNL     1       1.394   2.602  19.573  0.00  0.00    +0.000 OA
ATOM      7  N   UNL     1       3.453   3.561  19.324  0.00  0.00    +0.000 N 
ATOM      8  C   UNL     1       4.087   2.296  19.632  0.00  0.00    +0.000 C 
ENDROOT
BRANCH   1  15
ATOM      9  C   UNL     1       7.723   5.729  18.785  0.00  0.00    +0.000 C 
ATOM     10  N   UNL     1       6.349   5.817  18.282  0.00  0.00    +0.000 NA
ATOM     11  C   UNL     1       6.432   6.673  17.079  0.00  0.00    +0.000 C 
ATOM     12  C   UNL     1       6.327   5.936  15.740  0.00  0.00    +0.000 C 
ATOM     13  O   UNL     1       5.202   5.063  15.694  0.00  0.00    +0.000 OA
ATOM     14  C   UNL     1       5.301   4.041  16.684  0.00  0.00    +0.000 C 
ATOM     15  C   UNL     1       5.476   4.594  18.118  0.00  0.00    +0.000 C 
ENDBRANCH   1  15
BRANCH   3  16
ATOM     16  C   UNL     1       1.788   7.255  20.384  0.00  0.00    +0.000 C 
ATOM     17  O   UNL     1       1.406   7.284  21.559  0.00  0.00    +0.000 OA
ATOM     18  N   UNL     1       1.681   8.367  19.591  0.00  0.00    +0.000 N 
ATOM     19  H   UNL     1       2.005   8.326  18.636  0.00  0.00    +0.000 HD
BRANCH  18  20
ATOM     20  C   UNL     1       1.004   9.553  20.097  0.00  0.00    +0.000 C 
BRANCH  20  21
ATOM     21  C   UNL     1      -0.134  10.015  19.214  0.00  0.00    +0.000 A 
ATOM     22  C   UNL     1      -1.017  11.007  19.665  0.00  0.00    +0.000 A 
ATOM     23  C   UNL     1      -2.062  11.448  18.851  0.00  0.00    +0.000 A 
ATOM     24  C   UNL     1      -2.230  10.900  17.586  0.00  0.00    +0.000 A 
ATOM     25  F   UNL     1      -3.238  11.324  16.812  0.00  0.00    +0.000 F 
ATOM     26  C   UNL     1      -1.366   9.921  17.114  0.00  0.00    +0.000 A 
ATOM     27  C   UNL     1      -0.318   9.477  17.927  0.00  0.00    +0.000 A 
ENDBRANCH  20  21
ENDBRANCH  18  20
ENDBRANCH   3  16
BRANCH   4  28
ATOM     28  O   UNL     1       0.297   4.891  20.570  0.00  0.00    +0.000 OA
ATOM     29  H   UNL     1      -0.379   5.093  19.886  0.00  0.00    +0.000 HD
ENDBRANCH   4  28
TORSDOF 5
ENDMDL
MODEL 6
REMARK VINA RESULT:      -6.9      4.376      6.118
REMARK  Name = 
REMARK  7 active torsions:
REMARK  status: ('A' for Active; 'I' for Inactive)
REMARK    1  A    between atoms: C_1  and  N_2
REMARK    2  A    between atoms: C_7  and  C_8
REMARK    3  A    between atoms: C_10  and  C_11
REMARK    4  A    between atoms: N_13  and  C_14
REMARK    5  A    between atoms: C_14  and  C_15
REMARK    6  A    between atoms: C_22  and  O_23
REMARK    7  A    between atoms: N_26  and  C_27
REMARK                            x       y       z     vdW  Elec       q    Type
REMARK                         _______ _______ _______ _____ _____    ______ ____
ROOT
ATOM      1  C   UNL     1      -5.192  12.420  19.068  0.00  0.00    +0.000 A 
ATOM      2  N   UNL     1      -4.050  12.206  19.694  0.00  0.00    +0.000 NA
ATOM      3  C   UNL     1      -2.950  11.830  18.917  0.00  0.00    +0.000 A 
ATOM      4  C   UNL     1      -3.051  11.414  17.637  0.00  0.00    +0.000 A 
ATOM      5  C   UNL     1      -4.377  11.535  17.012  0.00  0.00    +0.000 A 
ATOM      6  O   UNL     1      -4.597  11.045  15.923  0.00  0.00    +0.000 OA
ATOM      7  N   UNL     1      -5.295  12.300  17.701  0.00  0.00    +0.000 N 
ATOM      8  C   UNL     1      -6.252  12.981  16.853  0.00  0.00    +0.000 C 
ENDROOT
BRANCH   1  15
ATOM      9  C   UNL     1      -7.381  15.261  20.260  0.00  0.00    +0.000 C 
ATOM     10  N   UNL     1      -6.358  14.239  20.502  0.00  0.00    +0.000 NA
ATOM     11  C   UNL     1      -6.109  14.279  21.959  0.00  0.00    +0.000 C 
ATOM     12  C   UNL     1      -6.716  13.124  22.760  0.00  0.00    +0.000 C 
ATOM     13  O   UNL     1      -6.393  11.854  22.201  0.00  0.00    +0.000 OA
ATOM     14  C   UNL     1      -6.921  11.721  20.883  0.00  0.00    +0.000 C 
ATOM     15  C   UNL     1      -6.464  12.846  19.925  0.00  0.00    +0.000 C 
ENDBRANCH   1  15
BRANCH   3  16
ATOM     16  C   UNL     1      -1.509  11.838  19.429  0.00  0.00    +0.000 C 
ATOM     17  O   UNL     1      -0.898  12.903  19.560  0.00  0.00    +0.000 OA
ATOM     18  N   UNL     1      -0.895  10.647  19.715  0.00  0.00    +0.000 N 
ATOM     19  H   UNL     1      -1.413   9.786  19.609  0.00  0.00    +0.000 HD
BRANCH  18  20
ATOM     20  C   UNL     1       0.520  10.626  20.057  0.00  0.00    +0.000 C 
BRANCH  20  21
ATOM     21  C   UNL     1       1.241   9.396  19.553  0.00  0.00    +0.000 A 
ATOM     22  C   UNL     1       1.703   9.344  18.229  0.00  0.00    +0.000 A 
ATOM     23  C   UNL     1       2.380   8.216  17.760  0.00  0.00    +0.000 A 
ATOM     24  C   UNL     1       2.598   7.138  18.609  0.00  0.00    +0.000 A 
ATOM     25  F   UNL     1       3.243   6.058  18.151  0.00  0.00    +0.000 F 
ATOM     26  C   UNL     1       2.155   7.168  19.925  0.00  0.00    +0.000 A 
ATOM     27  C   UNL     1       1.477   8.296  20.398  0.00  0.00    +0.000 A 
ENDBRANCH  20  21
ENDBRANCH  18  20
ENDBRANCH   3  16
BRANCH   4  28
ATOM     28  O   UNL     1      -2.024  10.955  16.822  0.00  0.00    +0.000 OA
ATOM     29  H   UNL     1      -1.349  11.663  16.732  0.00  0.00    +0.000 HD
ENDBRANCH   4  28
TORSDOF 5
ENDMDL
MODEL 7
REMARK VINA RESULT:      -6.9      4.415      6.168
REMARK  Name = 
REMARK  7 active torsions:
REMARK  status: ('A' for Active; 'I' for Inactive)
REMARK    1  A    between atoms: C_1  and  N_2
REMARK    2  A    between atoms: C_7  and  C_8
REMARK    3  A    between atoms: C_10  and  C_11
REMARK    4  A    between atoms: N_13  and  C_14
REMARK    5  A    between atoms: C_14  and  C_15
REMARK    6  A    between atoms: C_22  and  O_23
REMARK    7  A    between atoms: N_26  and  C_27
REMARK                            x       y       z     vdW  Elec       q    Type
REMARK                         _______ _______ _______ _____ _____    ______ ____
ROOT
ATOM      1  C   UNL     1      -5.150  12.465  18.998  0.00  0.00    +0.000 A 
ATOM      2  N   UNL     1      -4.007  12.266  19.628  0.00  0.00    +0.000 NA
ATOM      3  C   UNL     1      -2.912  11.856  18.861  0.00  0.00    +0.000 A 
ATOM      4  C   UNL     1      -3.019  11.398  17.596  0.00  0.00    +0.000 A 
ATOM      5  C   UNL     1      -4.346  11.506  16.971  0.00  0.00    +0.000 A 
ATOM      6  O   UNL     1      -4.572  10.981  15.899  0.00  0.00    +0.000 OA
ATOM      7  N   UNL     1      -5.257  12.300  17.636  0.00  0.00    +0.000 N 
ATOM      8  C   UNL     1      -6.213  12.958  16.768  0.00  0.00    +0.000 C 
ENDROOT
BRANCH   1  15
ATOM      9  C   UNL     1      -6.814  15.276  20.898  0.00  0.00    +0.000 C 
ATOM     10  N   UNL     1      -6.097  13.998  20.862  0.00  0.00    +0.000 NA
ATOM     11  C   UNL     1      -6.086  13.522  22.262  0.00  0.00    +0.000 C 
ATOM     12  C   UNL     1      -7.057  12.381  22.576  0.00  0.00    +0.000 C 
ATOM     13  O   UNL     1      -6.939  11.305  21.649  0.00  0.00    +0.000 OA
ATOM     14  C   UNL     1      -7.262  11.726  20.326  0.00  0.00    +0.000 C 
ATOM     15  C   UNL     1      -6.417  12.928  19.843  0.00  0.00    +0.000 C 
ENDBRANCH   1  15
BRANCH   3  16
ATOM     16  C   UNL     1      -1.469  11.872  19.369  0.00  0.00    +0.000 C 
ATOM     17  O   UNL     1      -0.770  12.881  19.233  0.00  0.00    +0.000 OA
ATOM     18  N   UNL     1      -0.954  10.745  19.952  0.00  0.00    +0.000 N 
ATOM     19  H   UNL     1      -1.543   9.931  20.061  0.00  0.00    +0.000 HD
BRANCH  18  20
ATOM     20  C   UNL     1       0.459  10.692  20.302  0.00  0.00    +0.000 C 
BRANCH  20  21
ATOM     21  C   UNL     1       1.192   9.535  19.664  0.00  0.00    +0.000 A 
ATOM     22  C   UNL     1       1.483   8.386  20.414  0.00  0.00    +0.000 A 
ATOM     23  C   UNL     1       2.149   7.307  19.829  0.00  0.00    +0.000 A 
ATOM     24  C   UNL     1       2.527   7.372  18.493  0.00  0.00    +0.000 A 
ATOM     25  F   UNL     1       3.171   6.336  17.939  0.00  0.00    +0.000 F 
ATOM     26  C   UNL     1       2.245   8.496  17.727  0.00  0.00    +0.000 A 
ATOM     27  C   UNL     1       1.579   9.577  18.311  0.00  0.00    +0.000 A 
ENDBRANCH  20  21
ENDBRANCH  18  20
ENDBRANCH   3  16
BRANCH   4  28
ATOM     28  O   UNL     1      -1.997  10.905  16.794  0.00  0.00    +0.000 OA
ATOM     29  H   UNL     1      -1.489  10.236  17.302  0.00  0.00    +0.000 HD
ENDBRANCH   4  28
TORSDOF 5
ENDMDL
MODEL 8
REMARK VINA RESULT:      -6.8      0.941      1.297
REMARK  Name = 
REMARK  7 active torsions:
REMARK  status: ('A' for Active; 'I' for Inactive)
REMARK    1  A    between atoms: C_1  and  N_2
REMARK    2  A    between atoms: C_7  and  C_8
REMARK    3  A    between atoms: C_10  and  C_11
REMARK    4  A    between atoms: N_13  and  C_14
REMARK    5  A    between atoms: C_14  and  C_15
REMARK    6  A    between atoms: C_22  and  O_23
REMARK    7  A    between atoms: N_26  and  C_27
REMARK                            x       y       z     vdW  Elec       q    Type
REMARK                         _______ _______ _______ _____ _____    ______ ____
ROOT
ATOM      1  C   UNL     1       0.197  12.408  21.163  0.00  0.00    +0.000 A 
ATOM      2  N   UNL     1       0.771  11.763  20.165  0.00  0.00    +0.000 NA
ATOM      3  C   UNL     1       0.731  10.366  20.193  0.00  0.00    +0.000 A 
ATOM      4  C   UNL     1       0.392   9.652  21.288  0.00  0.00    +0.000 A 
ATOM      5  C   UNL     1      -0.113  10.419  22.437  0.00  0.00    +0.000 A 
ATOM      6  O   UNL     1      -0.293   9.881  23.511  0.00  0.00    +0.000 OA
ATOM      7  N   UNL     1      -0.438  11.734  22.182  0.00  0.00    +0.000 N 
ATOM      8  C   UNL     1      -1.516  12.247  23.004  0.00  0.00    +0.000 C 
ENDROOT
BRANCH   1  15
ATOM      9  C   UNL     1      -1.739  15.598  20.561  0.00  0.00    +0.000 C 
ATOM     10  N   UNL     1      -0.724  14.616  20.165  0.00  0.00    +0.000 NA
ATOM     11  C   UNL     1      -0.067  15.199  18.975  0.00  0.00    +0.000 C 
ATOM     12  C   UNL     1       1.330  15.780  19.215  0.00  0.00    +0.000 C 
ATOM     13  O   UNL     1       2.182  14.864  19.896  0.00  0.00    +0.000 OA
ATOM     14  C   UNL     1       1.673  14.550  21.192  0.00  0.00    +0.000 C 
ATOM     15  C   UNL     1       0.228  13.999  21.163  0.00  0.00    +0.000 C 
ENDBRANCH   1  15
BRANCH   3  16
ATOM     16  C   UNL     1       1.074   9.485  18.990  0.00  0.00    +0.000 C 
ATOM     17  O   UNL     1       0.466   9.621  17.923  0.00  0.00    +0.000 OA
ATOM     18  N   UNL     1       2.043   8.525  19.120  0.00  0.00    +0.000 N 
ATOM     19  H   UNL     1       2.533   8.434  19.998  0.00  0.00    +0.000 HD
BRANCH  18  20
ATOM     20  C   UNL     1       2.274   7.581  18.036  0.00  0.00    +0.000 C 
BRANCH  20  21
ATOM     21  C   UNL     1       2.717   6.216  18.515  0.00  0.00    +0.000 A 
ATOM     22  C   UNL     1       3.554   5.426  17.712  0.00  0.00    +0.000 A 
ATOM     23  C   UNL     1       3.978   4.171  18.152  0.00  0.00    +0.000 A 
ATOM     24  C   UNL     1       3.568   3.700  19.394  0.00  0.00    +0.000 A 
ATOM     25  F   UNL     1       3.973   2.492  19.807  0.00  0.00    +0.000 F 
ATOM     26  C   UNL     1       2.744   4.465  20.209  0.00  0.00    +0.000 A 
ATOM     27  C   UNL     1       2.319   5.723  19.770  0.00  0.00    +0.000 A 
ENDBRANCH  20  21
ENDBRANCH  18  20
ENDBRANCH   3  16
BRANCH   4  28
ATOM     28  O   UNL     1       0.398   8.270  21.422  0.00  0.00    +0.000 OA
ATOM     29  H   UNL     1      -0.295   8.010  22.067  0.00  0.00    +0.000 HD
ENDBRANCH   4  28
TORSDOF 5
ENDMDL
MODEL 9
REMARK VINA RESULT:      -6.8      4.157      8.733
REMARK  Name = 
REMARK  7 active torsions:
REMARK  status: ('A' for Active; 'I' for Inactive)
REMARK    1  A    between atoms: C_1  and  N_2
REMARK    2  A    between atoms: C_7  and  C_8
REMARK    3  A    between atoms: C_10  and  C_11
REMARK    4  A    between atoms: N_13  and  C_14
REMARK    5  A    between atoms: C_14  and  C_15
REMARK    6  A    between atoms: C_22  and  O_23
REMARK    7  A    between atoms: N_26  and  C_27
REMARK                            x       y       z     vdW  Elec       q    Type
REMARK                         _______ _______ _______ _____ _____    ______ ____
ROOT
ATOM      1  C   UNL     1       4.017   3.945  18.193  0.00  0.00    +0.000 A 
ATOM      2  N   UNL     1       3.608   5.089  18.710  0.00  0.00    +0.000 NA
ATOM      3  C   UNL     1       2.426   5.072  19.457  0.00  0.00    +0.000 A 
ATOM      4  C   UNL     1       1.556   4.040  19.451  0.00  0.00    +0.000 A 
ATOM      5  C   UNL     1       1.987   2.825  18.743  0.00  0.00    +0.000 A 
ATOM      6  O   UNL     1       1.212   1.910  18.553  0.00  0.00    +0.000 OA
ATOM      7  N   UNL     1       3.322   2.775  18.400  0.00  0.00    +0.000 N 
ATOM      8  C   UNL     1       3.876   1.436  18.376  0.00  0.00    +0.000 C 
ENDROOT
BRANCH   1  15
ATOM      9  C   UNL     1       7.724   4.675  18.125  0.00  0.00    +0.000 C 
ATOM     10  N   UNL     1       6.344   4.998  17.748  0.00  0.00    +0.000 NA
ATOM     11  C   UNL     1       6.456   6.126  16.800  0.00  0.00    +0.000 C 
ATOM     12  C   UNL     1       6.230   5.772  15.327  0.00  0.00    +0.000 C 
ATOM     13  O   UNL     1       5.028   5.032  15.132  0.00  0.00    +0.000 OA
ATOM     14  C   UNL     1       5.073   3.784  15.821  0.00  0.00    +0.000 C 
ATOM     15  C   UNL     1       5.357   3.931  17.334  0.00  0.00    +0.000 C 
ENDBRANCH   1  15
BRANCH   3  16
ATOM     16  C   UNL     1       1.980   6.223  20.360  0.00  0.00    +0.000 C 
ATOM     17  O   UNL     1       1.404   5.991  21.428  0.00  0.00    +0.000 OA
ATOM     18  N   UNL     1       2.202   7.513  19.957  0.00  0.00    +0.000 N 
ATOM     19  H   UNL     1       2.681   7.683  19.084  0.00  0.00    +0.000 HD
BRANCH  18  20
ATOM     20  C   UNL     1       1.649   8.617  20.729  0.00  0.00    +0.000 C 
BRANCH  20  21
ATOM     21  C   UNL     1       0.663   9.458  19.952  0.00  0.00    +0.000 A 
ATOM     22  C   UNL     1      -0.211  10.324  20.627  0.00  0.00    +0.000 A 
ATOM     23  C   UNL     1      -1.117  11.113  19.915  0.00  0.00    +0.000 A 
ATOM     24  C   UNL     1      -1.154  11.040  18.528  0.00  0.00    +0.000 A 
ATOM     25  F   UNL     1      -2.030  11.796  17.852  0.00  0.00    +0.000 F 
ATOM     26  C   UNL     1      -0.296  10.196  17.836  0.00  0.00    +0.000 A 
ATOM     27  C   UNL     1       0.612   9.405  18.546  0.00  0.00    +0.000 A 
ENDBRANCH  20  21
ENDBRANCH  18  20
ENDBRANCH   3  16
BRANCH   4  28
ATOM     28  O   UNL     1       0.331   3.974  20.103  0.00  0.00    +0.000 OA
ATOM     29  H   UNL     1      -0.382   3.889  19.432  0.00  0.00    +0.000 HD
ENDBRANCH   4  28
TORSDOF 5
ENDMDL
