MODEL 1
REMARK VINA RESULT:      -6.9      0.000      0.000
REMARK  Name = 
REMARK  7 active torsions:
REMARK  status: ('A' for Active; 'I' for Inactive)
REMARK    1  A    between atoms: N_6  and  C_7
REMARK    2  A    between atoms: C_7  and  C_8
REMARK    3  A    between atoms: C_8  and  C_9
REMARK    4  A    between atoms: C_9  and  O_10
REMARK    5  A    between atoms: C_12  and  C_13
REMARK    6  A    between atoms: C_13  and  O_14
REMARK    7  A    between atoms: C_16  and  C_17
REMARK                            x       y       z     vdW  Elec       q    Type
REMARK                         _______ _______ _______ _____ _____    ______ ____
ROOT
ATOM      1  O   UNL     1       7.710   5.963  15.599  0.00  0.00    +0.000 OA
ATOM      2  C   UNL     1       6.824   5.587  16.362  0.00  0.00    +0.000 A 
ATOM      3  N   UNL     1       6.866   5.937  17.681  0.00  0.00    +0.000 N 
ATOM      4  C   UNL     1       6.237   5.249  18.681  0.00  0.00    +0.000 A 
ATOM      5  O   UNL     1       6.625   5.354  19.845  0.00  0.00    +0.000 OA
ATOM      6  N   UNL     1       5.218   4.400  18.281  0.00  0.00    +0.000 N 
ATOM      7  C   UNL     1       4.947   4.191  16.937  0.00  0.00    +0.000 A 
ATOM      8  C   UNL     1       5.680   4.719  15.942  0.00  0.00    +0.000 A 
ATOM      9  H   UNL     1       7.679   6.461  17.964  0.00  0.00    +0.000 HD
ENDROOT
BRANCH   8  10
ATOM     10  C   UNL     1       5.393   4.378  14.550  0.00  0.00    +0.000 C 
ATOM     11  C   UNL     1       6.150   3.649  13.718  0.00  0.00    +0.000 C 
ATOM     12  I   UNL     1       5.576   3.218  11.795  0.00  0.00    +0.000 I 
ENDBRANCH   8  10
BRANCH   6  13
ATOM     13  C   UNL     1       4.545   3.578  19.298  0.00  0.00    +0.000 C 
BRANCH  13  14
ATOM     14  C   UNL     1       3.085   3.988  19.439  0.00  0.00    +0.000 C 
ATOM     15  C   UNL     1       1.991   3.430  18.534  0.00  0.00    +0.000 C 
ATOM     16  C   UNL     1       2.177   2.845  19.903  0.00  0.00    +0.000 C 
BRANCH  14  17
ATOM     17  C   UNL     1       2.863   5.446  19.799  0.00  0.00    +0.000 C 
BRANCH  17  18
ATOM     18  O   UNL     1       2.353   6.143  18.666  0.00  0.00    +0.000 OA
ATOM     19  H   UNL     1       2.561   5.607  17.873  0.00  0.00    +0.000 HD
ENDBRANCH  17  18
ENDBRANCH  14  17
BRANCH  16  20
ATOM     20  C   UNL     1       1.233   3.012  21.039  0.00  0.00    +0.000 C 
BRANCH  20  21
ATOM     21  O   UNL     1       1.896   2.574  22.220  0.00  0.00    +0.000 OA
ATOM     22  H   UNL     1       1.943   1.603  22.173  0.00  0.00    +0.000 HD
ENDBRANCH  20  21
ENDBRANCH  16  20
ENDBRANCH  13  14
ENDBRANCH   6  13
TORSDOF 7
ENDMDL
MODEL 2
REMARK VINA RESULT:      -6.5      1.203      1.509
REMARK  Name = 
REMARK  7 active torsions:
REMARK  status: ('A' for Active; 'I' for Inactive)
REMARK    1  A    between atoms: N_6  and  C_7
REMARK    2  A    between atoms: C_7  and  C_8
REMARK    3  A    between atoms: C_8  and  C_9
REMARK    4  A    between atoms: C_9  and  O_10
REMARK    5  A    between atoms: C_12  and  C_13
REMARK    6  A    between atoms: C_13  and  O_14
REMARK    7  A    between atoms: C_16  and  C_17
REMARK                            x       y       z     vdW  Elec       q    Type
REMARK                         _______ _______ _______ _____ _____    ______ ____
ROOT
ATOM      1  O   UNL     1       8.219   4.159  16.918  0.00  0.00    +0.000 OA
ATOM      2  C   UNL     1       7.080   4.577  17.107  0.00  0.00    +0.000 A 
ATOM      3  N   UNL     1       6.797   5.304  18.227  0.00  0.00    +0.000 N 
ATOM      4  C   UNL     1       5.549   5.432  18.768  0.00  0.00    +0.000 A 
ATOM      5  O   UNL     1       5.415   5.739  19.953  0.00  0.00    +0.000 OA
ATOM      6  N   UNL     1       4.492   5.125  17.926  0.00  0.00    +0.000 N 
ATOM      7  C   UNL     1       4.714   4.614  16.657  0.00  0.00    +0.000 A 
ATOM      8  C   UNL     1       5.933   4.310  16.182  0.00  0.00    +0.000 A 
ATOM      9  H   UNL     1       7.561   5.415  18.875  0.00  0.00    +0.000 HD
ENDROOT
BRANCH   8  10
ATOM     10  C   UNL     1       6.083   3.685  14.870  0.00  0.00    +0.000 C 
ATOM     11  C   UNL     1       5.594   4.121  13.700  0.00  0.00    +0.000 C 
ATOM     12  I   UNL     1       5.940   3.145  11.928  0.00  0.00    +0.000 I 
ENDBRANCH   8  10
BRANCH   6  13
ATOM     13  C   UNL     1       3.124   5.175  18.465  0.00  0.00    +0.000 C 
BRANCH  13  14
ATOM     14  C   UNL     1       2.675   3.791  18.916  0.00  0.00    +0.000 C 
ATOM     15  C   UNL     1       3.591   2.848  19.689  0.00  0.00    +0.000 C 
ATOM     16  C   UNL     1       2.571   3.654  20.438  0.00  0.00    +0.000 C 
BRANCH  14  17
ATOM     17  C   UNL     1       1.773   3.062  17.936  0.00  0.00    +0.000 C 
BRANCH  17  18
ATOM     18  O   UNL     1       1.044   4.014  17.165  0.00  0.00    +0.000 OA
ATOM     19  H   UNL     1       0.625   3.532  16.422  0.00  0.00    +0.000 HD
ENDBRANCH  17  18
ENDBRANCH  14  17
BRANCH  16  20
ATOM     20  C   UNL     1       1.355   3.099  21.089  0.00  0.00    +0.000 C 
BRANCH  20  21
ATOM     21  O   UNL     1       1.779   2.328  22.209  0.00  0.00    +0.000 OA
ATOM     22  H   UNL     1       2.245   1.550  21.856  0.00  0.00    +0.000 HD
ENDBRANCH  20  21
ENDBRANCH  16  20
ENDBRANCH  13  14
ENDBRANCH   6  13
TORSDOF 7
ENDMDL
MODEL 3
REMARK VINA RESULT:      -6.4      1.198      1.887
REMARK  Name = 
REMARK  7 active torsions:
REMARK  status: ('A' for Active; 'I' for Inactive)
REMARK    1  A    between atoms: N_6  and  C_7
REMARK    2  A    between atoms: C_7  and  C_8
REMARK    3  A    between atoms: C_8  and  C_9
REMARK    4  A    between atoms: C_9  and  O_10
REMARK    5  A    between atoms: C_12  and  C_13
REMARK    6  A    between atoms: C_13  and  O_14
REMARK    7  A    between atoms: C_16  and  C_17
REMARK                            x       y       z     vdW  Elec       q    Type
REMARK                         _______ _______ _______ _____ _____    ______ ____
ROOT
ATOM      1  O   UNL     1       7.436   6.202  15.876  0.00  0.00    +0.000 OA
ATOM      2  C   UNL     1       6.596   5.645  16.577  0.00  0.00    +0.000 A 
ATOM      3  N   UNL     1       6.535   5.917  17.914  0.00  0.00    +0.000 N 
ATOM      4  C   UNL     1       5.991   5.080  18.846  0.00  0.00    +0.000 A 
ATOM      5  O   UNL     1       6.316   5.174  20.030  0.00  0.00    +0.000 OA
ATOM      6  N   UNL     1       5.136   4.105  18.357  0.00  0.00    +0.000 N 
ATOM      7  C   UNL     1       4.949   3.937  16.994  0.00  0.00    +0.000 A 
ATOM      8  C   UNL     1       5.621   4.633  16.061  0.00  0.00    +0.000 A 
ATOM      9  H   UNL     1       7.243   6.545  18.260  0.00  0.00    +0.000 HD
ENDROOT
BRANCH   8  10
ATOM     10  C   UNL     1       5.442   4.336  14.642  0.00  0.00    +0.000 C 
ATOM     11  C   UNL     1       6.265   3.640  13.845  0.00  0.00    +0.000 C 
ATOM     12  I   UNL     1       5.838   3.268  11.872  0.00  0.00    +0.000 I 
ENDBRANCH   8  10
BRANCH   6  13
ATOM     13  C   UNL     1       4.569   3.127  19.298  0.00  0.00    +0.000 C 
BRANCH  13  14
ATOM     14  C   UNL     1       3.085   3.391  19.516  0.00  0.00    +0.000 C 
ATOM     15  C   UNL     1       2.373   3.022  20.814  0.00  0.00    +0.000 C 
ATOM     16  C   UNL     1       2.809   4.440  20.598  0.00  0.00    +0.000 C 
BRANCH  14  17
ATOM     17  C   UNL     1       2.214   3.191  18.289  0.00  0.00    +0.000 C 
BRANCH  17  18
ATOM     18  O   UNL     1       2.219   1.814  17.924  0.00  0.00    +0.000 OA
ATOM     19  H   UNL     1       3.153   1.522  17.887  0.00  0.00    +0.000 HD
ENDBRANCH  17  18
ENDBRANCH  14  17
BRANCH  16  20
ATOM     20  C   UNL     1       1.895   5.588  20.356  0.00  0.00    +0.000 C 
BRANCH  20  21
ATOM     21  O   UNL     1       2.701   6.734  20.099  0.00  0.00    +0.000 OA
ATOM     22  H   UNL     1       2.246   7.494  20.501  0.00  0.00    +0.000 HD
ENDBRANCH  20  21
ENDBRANCH  16  20
ENDBRANCH  13  14
ENDBRANCH   6  13
TORSDOF 7
ENDMDL
MODEL 4
REMARK VINA RESULT:      -6.4      3.396      6.350
REMARK  Name = 
REMARK  7 active torsions:
REMARK  status: ('A' for Active; 'I' for Inactive)
REMARK    1  A    between atoms: N_6  and  C_7
REMARK    2  A    between atoms: C_7  and  C_8
REMARK    3  A    between atoms: C_8  and  C_9
REMARK    4  A    between atoms: C_9  and  O_10
REMARK    5  A    between atoms: C_12  and  C_13
REMARK    6  A    between atoms: C_13  and  O_14
REMARK    7  A    between atoms: C_16  and  C_17
REMARK                            x       y       z     vdW  Elec       q    Type
REMARK                         _______ _______ _______ _____ _____    ______ ____
ROOT
ATOM      1  O   UNL     1       2.019   3.323  22.181  0.00  0.00    +0.000 OA
ATOM      2  C   UNL     1       2.145   3.388  20.961  0.00  0.00    +0.000 A 
ATOM      3  N   UNL     1       2.472   2.270  20.249  0.00  0.00    +0.000 N 
ATOM      4  C   UNL     1       3.064   2.287  19.017  0.00  0.00    +0.000 A 
ATOM      5  O   UNL     1       3.688   1.304  18.615  0.00  0.00    +0.000 OA
ATOM      6  N   UNL     1       2.972   3.480  18.319  0.00  0.00    +0.000 N 
ATOM      7  C   UNL     1       2.411   4.607  18.900  0.00  0.00    +0.000 A 
ATOM      8  C   UNL     1       1.992   4.654  20.176  0.00  0.00    +0.000 A 
ATOM      9  H   UNL     1       2.642   1.442  20.797  0.00  0.00    +0.000 HD
ENDROOT
BRANCH   8  10
ATOM     10  C   UNL     1       1.498   5.903  20.749  0.00  0.00    +0.000 C 
ATOM     11  C   UNL     1       1.850   7.151  20.407  0.00  0.00    +0.000 C 
ATOM     12  I   UNL     1       1.019   8.811  21.282  0.00  0.00    +0.000 I 
ENDBRANCH   8  10
BRANCH   6  13
ATOM     13  C   UNL     1       3.647   3.589  17.017  0.00  0.00    +0.000 C 
BRANCH  13  14
ATOM     14  C   UNL     1       4.933   4.396  17.146  0.00  0.00    +0.000 C 
ATOM     15  C   UNL     1       5.919   4.548  15.992  0.00  0.00    +0.000 C 
ATOM     16  C   UNL     1       4.946   5.655  16.273  0.00  0.00    +0.000 C 
BRANCH  14  17
ATOM     17  C   UNL     1       5.618   4.295  18.497  0.00  0.00    +0.000 C 
BRANCH  17  18
ATOM     18  O   UNL     1       7.017   4.104  18.305  0.00  0.00    +0.000 OA
ATOM     19  H   UNL     1       7.177   4.048  17.341  0.00  0.00    +0.000 HD
ENDBRANCH  17  18
ENDBRANCH  14  17
BRANCH  16  20
ATOM     20  C   UNL     1       5.305   6.986  16.830  0.00  0.00    +0.000 C 
BRANCH  20  21
ATOM     21  O   UNL     1       6.697   7.188  16.603  0.00  0.00    +0.000 OA
ATOM     22  H   UNL     1       6.969   7.933  17.166  0.00  0.00    +0.000 HD
ENDBRANCH  20  21
ENDBRANCH  16  20
ENDBRANCH  13  14
ENDBRANCH   6  13
TORSDOF 7
ENDMDL
MODEL 5
REMARK VINA RESULT:      -6.3      1.279      1.408
REMARK  Name = 
REMARK  7 active torsions:
REMARK  status: ('A' for Active; 'I' for Inactive)
REMARK    1  A    between atoms: N_6  and  C_7
REMARK    2  A    between atoms: C_7  and  C_8
REMARK    3  A    between atoms: C_8  and  C_9
REMARK    4  A    between atoms: C_9  and  O_10
REMARK    5  A    between atoms: C_12  and  C_13
REMARK    6  A    between atoms: C_13  and  O_14
REMARK    7  A    between atoms: C_16  and  C_17
REMARK                            x       y       z     vdW  Elec       q    Type
REMARK                         _______ _______ _______ _____ _____    ______ ____
ROOT
ATOM      1  O   UNL     1       7.794   6.307  15.998  0.00  0.00    +0.000 OA
ATOM      2  C   UNL     1       6.814   5.760  16.499  0.00  0.00    +0.000 A 
ATOM      3  N   UNL     1       6.370   6.151  17.729  0.00  0.00    +0.000 N 
ATOM      4  C   UNL     1       5.620   5.369  18.561  0.00  0.00    +0.000 A 
ATOM      5  O   UNL     1       5.595   5.596  19.771  0.00  0.00    +0.000 OA
ATOM      6  N   UNL     1       4.978   4.295  17.966  0.00  0.00    +0.000 N 
ATOM      7  C   UNL     1       5.189   3.987  16.630  0.00  0.00    +0.000 A 
ATOM      8  C   UNL     1       6.066   4.639  15.848  0.00  0.00    +0.000 A 
ATOM      9  H   UNL     1       6.925   6.857  18.185  0.00  0.00    +0.000 HD
ENDROOT
BRANCH   8  10
ATOM     10  C   UNL     1       6.305   4.198  14.476  0.00  0.00    +0.000 C 
ATOM     11  C   UNL     1       5.424   3.636  13.636  0.00  0.00    +0.000 C 
ATOM     12  I   UNL     1       5.911   3.118  11.710  0.00  0.00    +0.000 I 
ENDBRANCH   8  10
BRANCH   6  13
ATOM     13  C   UNL     1       4.210   3.372  18.816  0.00  0.00    +0.000 C 
BRANCH  13  14
ATOM     14  C   UNL     1       2.822   3.932  19.097  0.00  0.00    +0.000 C 
ATOM     15  C   UNL     1       2.075   4.803  18.092  0.00  0.00    +0.000 C 
ATOM     16  C   UNL     1       1.738   3.345  18.189  0.00  0.00    +0.000 C 
BRANCH  14  17
ATOM     17  C   UNL     1       2.584   4.356  20.535  0.00  0.00    +0.000 C 
BRANCH  17  18
ATOM     18  O   UNL     1       2.683   5.774  20.634  0.00  0.00    +0.000 OA
ATOM     19  H   UNL     1       1.954   6.157  20.102  0.00  0.00    +0.000 HD
ENDBRANCH  17  18
ENDBRANCH  14  17
BRANCH  16  20
ATOM     20  C   UNL     1       0.471   2.797  18.741  0.00  0.00    +0.000 C 
BRANCH  20  21
ATOM     21  O   UNL     1       0.565   1.376  18.707  0.00  0.00    +0.000 OA
ATOM     22  H   UNL     1      -0.239   1.051  18.266  0.00  0.00    +0.000 HD
ENDBRANCH  20  21
ENDBRANCH  16  20
ENDBRANCH  13  14
ENDBRANCH   6  13
TORSDOF 7
ENDMDL
MODEL 6
REMARK VINA RESULT:      -6.2      1.142      1.182
REMARK  Name = 
REMARK  7 active torsions:
REMARK  status: ('A' for Active; 'I' for Inactive)
REMARK    1  A    between atoms: N_6  and  C_7
REMARK    2  A    between atoms: C_7  and  C_8
REMARK    3  A    between atoms: C_8  and  C_9
REMARK    4  A    between atoms: C_9  and  O_10
REMARK    5  A    between atoms: C_12  and  C_13
REMARK    6  A    between atoms: C_13  and  O_14
REMARK    7  A    between atoms: C_16  and  C_17
REMARK                            x       y       z     vdW  Elec       q    Type
REMARK                         _______ _______ _______ _____ _____    ______ ____
ROOT
ATOM      1  O   UNL     1       7.139   6.745  16.381  0.00  0.00    +0.000 OA
ATOM      2  C   UNL     1       6.246   5.987  16.750  0.00  0.00    +0.000 A 
ATOM      3  N   UNL     1       5.753   6.080  18.020  0.00  0.00    +0.000 N 
ATOM      4  C   UNL     1       5.121   5.063  18.677  0.00  0.00    +0.000 A 
ATOM      5  O   UNL     1       5.067   5.058  19.908  0.00  0.00    +0.000 OA
ATOM      6  N   UNL     1       4.633   4.039  17.881  0.00  0.00    +0.000 N 
ATOM      7  C   UNL     1       4.882   4.015  16.517  0.00  0.00    +0.000 A 
ATOM      8  C   UNL     1       5.660   4.912  15.888  0.00  0.00    +0.000 A 
ATOM      9  H   UNL     1       6.206   6.759  18.611  0.00  0.00    +0.000 HD
ENDROOT
BRANCH   8  10
ATOM     10  C   UNL     1       5.955   4.769  14.465  0.00  0.00    +0.000 C 
ATOM     11  C   UNL     1       6.256   3.640  13.805  0.00  0.00    +0.000 C 
ATOM     12  I   UNL     1       6.597   3.603  11.781  0.00  0.00    +0.000 I 
ENDBRANCH   8  10
BRANCH   6  13
ATOM     13  C   UNL     1       4.003   2.880  18.530  0.00  0.00    +0.000 C 
BRANCH  13  14
ATOM     14  C   UNL     1       2.532   3.157  18.810  0.00  0.00    +0.000 C 
ATOM     15  C   UNL     1       1.472   2.061  18.761  0.00  0.00    +0.000 C 
ATOM     16  C   UNL     1       2.023   2.486  20.090  0.00  0.00    +0.000 C 
BRANCH  14  17
ATOM     17  C   UNL     1       2.024   4.491  18.294  0.00  0.00    +0.000 C 
BRANCH  17  18
ATOM     18  O   UNL     1       1.104   4.268  17.229  0.00  0.00    +0.000 OA
ATOM     19  H   UNL     1       1.338   4.882  16.503  0.00  0.00    +0.000 HD
ENDBRANCH  17  18
ENDBRANCH  14  17
BRANCH  16  20
ATOM     20  C   UNL     1       1.271   3.246  21.122  0.00  0.00    +0.000 C 
BRANCH  20  21
ATOM     21  O   UNL     1       1.996   3.147  22.344  0.00  0.00    +0.000 OA
ATOM     22  H   UNL     1       1.707   2.326  22.778  0.00  0.00    +0.000 HD
ENDBRANCH  20  21
ENDBRANCH  16  20
ENDBRANCH  13  14
ENDBRANCH   6  13
TORSDOF 7
ENDMDL
MODEL 7
REMARK VINA RESULT:      -6.1      1.478      1.737
REMARK  Name = 
REMARK  7 active torsions:
REMARK  status: ('A' for Active; 'I' for Inactive)
REMARK    1  A    between atoms: N_6  and  C_7
REMARK    2  A    between atoms: C_7  and  C_8
REMARK    3  A    between atoms: C_8  and  C_9
REMARK    4  A    between atoms: C_9  and  O_10
REMARK    5  A    between atoms: C_12  and  C_13
REMARK    6  A    between atoms: C_13  and  O_14
REMARK    7  A    between atoms: C_16  and  C_17
REMARK                            x       y       z     vdW  Elec       q    Type
REMARK                         _______ _______ _______ _____ _____    ______ ____
ROOT
ATOM      1  O   UNL     1       7.883   4.727  17.546  0.00  0.00    +0.000 OA
ATOM      2  C   UNL     1       6.698   4.405  17.594  0.00  0.00    +0.000 A 
ATOM      3  N   UNL     1       6.110   4.149  18.799  0.00  0.00    +0.000 N 
ATOM      4  C   UNL     1       4.994   3.379  18.963  0.00  0.00    +0.000 A 
ATOM      5  O   UNL     1       4.753   2.859  20.053  0.00  0.00    +0.000 OA
ATOM      6  N   UNL     1       4.227   3.177  17.826  0.00  0.00    +0.000 N 
ATOM      7  C   UNL     1       4.647   3.641  16.589  0.00  0.00    +0.000 A 
ATOM      8  C   UNL     1       5.833   4.239  16.384  0.00  0.00    +0.000 A 
ATOM      9  H   UNL     1       6.722   4.195  19.598  0.00  0.00    +0.000 HD
ENDROOT
BRANCH   8  10
ATOM     10  C   UNL     1       6.249   4.617  15.036  0.00  0.00    +0.000 C 
ATOM     11  C   UNL     1       6.403   3.811  13.975  0.00  0.00    +0.000 C 
ATOM     12  I   UNL     1       6.950   4.514  12.125  0.00  0.00    +0.000 I 
ENDBRANCH   8  10
BRANCH   6  13
ATOM     13  C   UNL     1       3.049   2.301  17.916  0.00  0.00    +0.000 C 
BRANCH  13  14
ATOM     14  C   UNL     1       1.857   3.062  18.483  0.00  0.00    +0.000 C 
ATOM     15  C   UNL     1       0.537   2.377  18.818  0.00  0.00    +0.000 C 
ATOM     16  C   UNL     1       1.512   2.663  19.920  0.00  0.00    +0.000 C 
BRANCH  14  17
ATOM     17  C   UNL     1       1.669   4.460  17.922  0.00  0.00    +0.000 C 
BRANCH  17  18
ATOM     18  O   UNL     1       2.379   5.394  18.731  0.00  0.00    +0.000 OA
ATOM     19  H   UNL     1       1.726   6.031  19.089  0.00  0.00    +0.000 HD
ENDBRANCH  17  18
ENDBRANCH  14  17
BRANCH  16  20
ATOM     20  C   UNL     1       1.321   3.682  20.987  0.00  0.00    +0.000 C 
BRANCH  20  21
ATOM     21  O   UNL     1       2.243   3.391  22.032  0.00  0.00    +0.000 OA
ATOM     22  H   UNL     1       2.859   2.722  21.686  0.00  0.00    +0.000 HD
ENDBRANCH  20  21
ENDBRANCH  16  20
ENDBRANCH  13  14
ENDBRANCH   6  13
TORSDOF 7
ENDMDL
MODEL 8
REMARK VINA RESULT:      -6.1      1.182      1.215
REMARK  Name = 
REMARK  7 active torsions:
REMARK  status: ('A' for Active; 'I' for Inactive)
REMARK    1  A    between atoms: N_6  and  C_7
REMARK    2  A    between atoms: C_7  and  C_8
REMARK    3  A    between atoms: C_8  and  C_9
REMARK    4  A    between atoms: C_9  and  O_10
REMARK    5  A    between atoms: C_12  and  C_13
REMARK    6  A    between atoms: C_13  and  O_14
REMARK    7  A    between atoms: C_16  and  C_17
REMARK                            x       y       z     vdW  Elec       q    Type
REMARK                         _______ _______ _______ _____ _____    ______ ____
ROOT
ATOM      1  O   UNL     1       7.788   6.149  15.688  0.00  0.00    +0.000 OA
ATOM      2  C   UNL     1       6.864   5.623  16.302  0.00  0.00    +0.000 A 
ATOM      3  N   UNL     1       6.560   6.039  17.565  0.00  0.00    +0.000 N 
ATOM      4  C   UNL     1       5.898   5.280  18.489  0.00  0.00    +0.000 A 
ATOM      5  O   UNL     1       6.008   5.529  19.690  0.00  0.00    +0.000 OA
ATOM      6  N   UNL     1       5.184   4.204  17.986  0.00  0.00    +0.000 N 
ATOM      7  C   UNL     1       5.245   3.871  16.642  0.00  0.00    +0.000 A 
ATOM      8  C   UNL     1       6.039   4.499  15.757  0.00  0.00    +0.000 A 
ATOM      9  H   UNL     1       7.169   6.746  17.946  0.00  0.00    +0.000 HD
ENDROOT
BRANCH   8  10
ATOM     10  C   UNL     1       6.122   4.032  14.375  0.00  0.00    +0.000 C 
ATOM     11  C   UNL     1       5.111   3.643  13.585  0.00  0.00    +0.000 C 
ATOM     12  I   UNL     1       5.395   3.059  11.637  0.00  0.00    +0.000 I 
ENDBRANCH   8  10
BRANCH   6  13
ATOM     13  C   UNL     1       4.505   3.305  18.932  0.00  0.00    +0.000 C 
BRANCH  13  14
ATOM     14  C   UNL     1       3.002   3.305  18.685  0.00  0.00    +0.000 C 
ATOM     15  C   UNL     1       2.279   2.117  18.058  0.00  0.00    +0.000 C 
ATOM     16  C   UNL     1       2.248   2.288  19.548  0.00  0.00    +0.000 C 
BRANCH  14  17
ATOM     17  C   UNL     1       2.426   4.640  18.251  0.00  0.00    +0.000 C 
BRANCH  17  18
ATOM     18  O   UNL     1       1.363   4.421  17.328  0.00  0.00    +0.000 OA
ATOM     19  H   UNL     1       1.720   3.885  16.590  0.00  0.00    +0.000 HD
ENDBRANCH  17  18
ENDBRANCH  14  17
BRANCH  16  20
ATOM     20  C   UNL     1       1.049   2.675  20.338  0.00  0.00    +0.000 C 
BRANCH  20  21
ATOM     21  O   UNL     1      -0.080   2.603  19.472  0.00  0.00    +0.000 OA
ATOM     22  H   UNL     1      -0.222   3.498  19.120  0.00  0.00    +0.000 HD
ENDBRANCH  20  21
ENDBRANCH  16  20
ENDBRANCH  13  14
ENDBRANCH   6  13
TORSDOF 7
ENDMDL
MODEL 9
REMARK VINA RESULT:      -6.1      1.528      1.845
REMARK  Name = 
REMARK  7 active torsions:
REMARK  status: ('A' for Active; 'I' for Inactive)
REMARK    1  A    between atoms: N_6  and  C_7
REMARK    2  A    between atoms: C_7  and  C_8
REMARK    3  A    between atoms: C_8  and  C_9
REMARK    4  A    between atoms: C_9  and  O_10
REMARK    5  A    between atoms: C_12  and  C_13
REMARK    6  A    between atoms: C_13  and  O_14
REMARK    7  A    between atoms: C_16  and  C_17
REMARK                            x       y       z     vdW  Elec       q    Type
REMARK                         _______ _______ _______ _____ _____    ______ ____
ROOT
ATOM      1  O   UNL     1       8.178   4.151  17.139  0.00  0.00    +0.000 OA
ATOM      2  C   UNL     1       7.046   4.627  17.182  0.00  0.00    +0.000 A 
ATOM      3  N   UNL     1       6.628   5.291  18.299  0.00  0.00    +0.000 N 
ATOM      4  C   UNL     1       5.318   5.462  18.648  0.00  0.00    +0.000 A 
ATOM      5  O   UNL     1       5.014   5.694  19.819  0.00  0.00    +0.000 OA
ATOM      6  N   UNL     1       4.394   5.284  17.632  0.00  0.00    +0.000 N 
ATOM      7  C   UNL     1       4.788   4.849  16.376  0.00  0.00    +0.000 A 
ATOM      8  C   UNL     1       6.050   4.500  16.073  0.00  0.00    +0.000 A 
ATOM      9  H   UNL     1       7.284   5.307  19.064  0.00  0.00    +0.000 HD
ENDROOT
BRANCH   8  10
ATOM     10  C   UNL     1       6.373   3.959  14.755  0.00  0.00    +0.000 C 
ATOM     11  C   UNL     1       5.580   3.919  13.674  0.00  0.00    +0.000 C 
ATOM     12  I   UNL     1       6.210   3.166  11.871  0.00  0.00    +0.000 I 
ENDBRANCH   8  10
BRANCH   6  13
ATOM     13  C   UNL     1       2.962   5.384  17.955  0.00  0.00    +0.000 C 
BRANCH  13  14
ATOM     14  C   UNL     1       2.487   4.131  18.679  0.00  0.00    +0.000 C 
ATOM     15  C   UNL     1       1.958   2.910  17.933  0.00  0.00    +0.000 C 
ATOM     16  C   UNL     1       3.376   2.911  18.422  0.00  0.00    +0.000 C 
BRANCH  14  17
ATOM     17  C   UNL     1       1.755   4.387  19.984  0.00  0.00    +0.000 C 
BRANCH  17  18
ATOM     18  O   UNL     1       2.528   5.267  20.796  0.00  0.00    +0.000 OA
ATOM     19  H   UNL     1       3.165   5.726  20.210  0.00  0.00    +0.000 HD
ENDBRANCH  17  18
ENDBRANCH  14  17
BRANCH  16  20
ATOM     20  C   UNL     1       3.895   2.076  19.537  0.00  0.00    +0.000 C 
BRANCH  20  21
ATOM     21  O   UNL     1       5.240   2.474  19.785  0.00  0.00    +0.000 OA
ATOM     22  H   UNL     1       5.202   3.233  20.392  0.00  0.00    +0.000 HD
ENDBRANCH  20  21
ENDBRANCH  16  20
ENDBRANCH  13  14
ENDBRANCH   6  13
TORSDOF 7
ENDMDL
