MODEL 1
REMARK VINA RESULT:      -7.2      0.000      0.000
REMARK  Name = 
REMARK  8 active torsions:
REMARK  status: ('A' for Active; 'I' for Inactive)
REMARK    1  A    between atoms: C_1  and  O_2
REMARK    2  A    between atoms: O_2  and  C_3
REMARK    3  A    between atoms: C_3  and  C_5
REMARK    4  A    between atoms: C_5  and  C_6
REMARK    5  A    between atoms: C_5  and  S_7
REMARK    6  A    between atoms: S_7  and  C_8
REMARK    7  A    between atoms: C_11  and  C_12
REMARK    8  A    between atoms: C_15  and  N_16
REMARK                            x       y       z     vdW  Elec       q    Type
REMARK                         _______ _______ _______ _____ _____    ______ ____
ROOT
ATOM      1  C   UNL     1       3.759   6.254  18.559  0.00  0.00    +0.000 C 
ATOM      2  N   UNL     1       3.532   7.178  17.681  0.00  0.00    +0.000 NA
ATOM      3  C   UNL     1       2.576   7.977  18.294  0.00  0.00    +0.000 C 
ATOM      4  C   UNL     1       1.989   9.028  17.705  0.00  0.00    +0.000 C 
ATOM      5  C   UNL     1       2.290   7.438  19.663  0.00  0.00    +0.000 C 
ATOM      6  O   UNL     1       1.528   7.846  20.515  0.00  0.00    +0.000 OA
ATOM      7  N   UNL     1       3.091   6.345  19.720  0.00  0.00    +0.000 N 
ATOM      8  H   UNL     1       3.169   5.725  20.507  0.00  0.00    +0.000 HD
ENDROOT
BRANCH   4   9
ATOM      9  C   UNL     1       0.957   9.889  18.290  0.00  0.00    +0.000 A 
ATOM     10  C   UNL     1       1.327  10.943  19.130  0.00  0.00    +0.000 A 
ATOM     11  C   UNL     1       0.360  11.803  19.667  0.00  0.00    +0.000 A 
ATOM     12  C   UNL     1      -0.996  11.608  19.373  0.00  0.00    +0.000 A 
ATOM     13  C   UNL     1      -1.371  10.547  18.536  0.00  0.00    +0.000 A 
ATOM     14  C   UNL     1      -0.397   9.695  17.995  0.00  0.00    +0.000 A 
BRANCH  12  15
ATOM     15  N   UNL     1      -1.992  12.463  19.916  0.00  0.00    +0.000 N 
ATOM     16  C   UNL     1      -3.361  12.328  19.874  0.00  0.00    +0.000 A 
ATOM     17  N   UNL     1      -3.947  13.352  20.453  0.00  0.00    +0.000 NA
ATOM     18  C   UNL     1      -2.889  14.105  20.860  0.00  0.00    +0.000 A 
ATOM     19  N   UNL     1      -1.684  13.602  20.588  0.00  0.00    +0.000 NA
ENDBRANCH  12  15
ENDBRANCH   4   9
BRANCH   1  20
ATOM     20  S   UNL     1       4.769   4.876  18.360  0.00  0.00    +0.000 S 
BRANCH  20  21
ATOM     21  C   UNL     1       5.577   5.269  16.765  0.00  0.00    +0.000 C 
ATOM     22  C   UNL     1       5.214   4.156  15.779  0.00  0.00    +0.000 C 
BRANCH  21  23
ATOM     23  C   UNL     1       7.089   5.367  16.924  0.00  0.00    +0.000 C 
ATOM     24  O   UNL     1       7.826   4.489  17.357  0.00  0.00    +0.000 OA
BRANCH  23  26
ATOM     25  C   UNL     1       7.681   7.530  17.621  0.00  0.00    +0.000 C 
ATOM     26  O   UNL     1       7.526   6.606  16.541  0.00  0.00    +0.000 OA
ENDBRANCH  23  26
ENDBRANCH  21  23
ENDBRANCH  20  21
ENDBRANCH   1  20
TORSDOF 6
ENDMDL
MODEL 2
REMARK VINA RESULT:      -7.1      0.579      1.258
REMARK  Name = 
REMARK  8 active torsions:
REMARK  status: ('A' for Active; 'I' for Inactive)
REMARK    1  A    between atoms: C_1  and  O_2
REMARK    2  A    between atoms: O_2  and  C_3
REMARK    3  A    between atoms: C_3  and  C_5
REMARK    4  A    between atoms: C_5  and  C_6
REMARK    5  A    between atoms: C_5  and  S_7
REMARK    6  A    between atoms: S_7  and  C_8
REMARK    7  A    between atoms: C_11  and  C_12
REMARK    8  A    between atoms: C_15  and  N_16
REMARK                            x       y       z     vdW  Elec       q    Type
REMARK                         _______ _______ _______ _____ _____    ______ ____
ROOT
ATOM      1  C   UNL     1       3.629   6.212  18.781  0.00  0.00    +0.000 C 
ATOM      2  N   UNL     1       3.426   7.095  17.856  0.00  0.00    +0.000 NA
ATOM      3  C   UNL     1       2.457   7.923  18.409  0.00  0.00    +0.000 C 
ATOM      4  C   UNL     1       1.887   8.946  17.759  0.00  0.00    +0.000 C 
ATOM      5  C   UNL     1       2.136   7.447  19.794  0.00  0.00    +0.000 C 
ATOM      6  O   UNL     1       1.356   7.894  20.607  0.00  0.00    +0.000 OA
ATOM      7  N   UNL     1       2.933   6.357  19.920  0.00  0.00    +0.000 N 
ATOM      8  H   UNL     1       2.992   5.773  20.736  0.00  0.00    +0.000 HD
ENDROOT
BRANCH   4   9
ATOM      9  C   UNL     1       0.843   9.835  18.279  0.00  0.00    +0.000 A 
ATOM     10  C   UNL     1      -0.497   9.593  17.960  0.00  0.00    +0.000 A 
ATOM     11  C   UNL     1      -1.512  10.406  18.479  0.00  0.00    +0.000 A 
ATOM     12  C   UNL     1      -1.194  11.481  19.319  0.00  0.00    +0.000 A 
ATOM     13  C   UNL     1       0.150  11.731  19.634  0.00  0.00    +0.000 A 
ATOM     14  C   UNL     1       1.162  10.908  19.118  0.00  0.00    +0.000 A 
BRANCH  12  15
ATOM     15  N   UNL     1      -2.209  12.322  19.846  0.00  0.00    +0.000 N 
ATOM     16  C   UNL     1      -2.087  13.376  20.724  0.00  0.00    +0.000 A 
ATOM     17  N   UNL     1      -3.266  13.880  21.011  0.00  0.00    +0.000 NA
ATOM     18  C   UNL     1      -4.105  13.109  20.269  0.00  0.00    +0.000 A 
ATOM     19  N   UNL     1      -3.520  12.171  19.524  0.00  0.00    +0.000 NA
ENDBRANCH  12  15
ENDBRANCH   4   9
BRANCH   1  20
ATOM     20  S   UNL     1       4.640   4.825  18.670  0.00  0.00    +0.000 S 
BRANCH  20  21
ATOM     21  C   UNL     1       5.576   5.203  17.142  0.00  0.00    +0.000 C 
ATOM     22  C   UNL     1       5.205   4.145  16.101  0.00  0.00    +0.000 C 
BRANCH  21  23
ATOM     23  C   UNL     1       7.078   5.192  17.401  0.00  0.00    +0.000 C 
ATOM     24  O   UNL     1       7.695   4.335  18.022  0.00  0.00    +0.000 OA
BRANCH  23  26
ATOM     25  C   UNL     1       7.100   7.539  17.328  0.00  0.00    +0.000 C 
ATOM     26  O   UNL     1       7.659   6.309  16.863  0.00  0.00    +0.000 OA
ENDBRANCH  23  26
ENDBRANCH  21  23
ENDBRANCH  20  21
ENDBRANCH   1  20
TORSDOF 6
ENDMDL
MODEL 3
REMARK VINA RESULT:      -6.9      2.455      3.234
REMARK  Name = 
REMARK  8 active torsions:
REMARK  status: ('A' for Active; 'I' for Inactive)
REMARK    1  A    between atoms: C_1  and  O_2
REMARK    2  A    between atoms: O_2  and  C_3
REMARK    3  A    between atoms: C_3  and  C_5
REMARK    4  A    between atoms: C_5  and  C_6
REMARK    5  A    between atoms: C_5  and  S_7
REMARK    6  A    between atoms: S_7  and  C_8
REMARK    7  A    between atoms: C_11  and  C_12
REMARK    8  A    between atoms: C_15  and  N_16
REMARK                            x       y       z     vdW  Elec       q    Type
REMARK                         _______ _______ _______ _____ _____    ______ ____
ROOT
ATOM      1  C   UNL     1       3.526   5.954  18.771  0.00  0.00    +0.000 C 
ATOM      2  N   UNL     1       3.317   6.798  17.811  0.00  0.00    +0.000 NA
ATOM      3  C   UNL     1       2.474   7.739  18.388  0.00  0.00    +0.000 C 
ATOM      4  C   UNL     1       1.937   8.770  17.723  0.00  0.00    +0.000 C 
ATOM      5  C   UNL     1       2.238   7.373  19.823  0.00  0.00    +0.000 C 
ATOM      6  O   UNL     1       1.572   7.934  20.667  0.00  0.00    +0.000 OA
ATOM      7  N   UNL     1       2.948   6.225  19.953  0.00  0.00    +0.000 N 
ATOM      8  H   UNL     1       3.028   5.686  20.796  0.00  0.00    +0.000 HD
ENDROOT
BRANCH   4   9
ATOM      9  C   UNL     1       1.022   9.777  18.269  0.00  0.00    +0.000 A 
ATOM     10  C   UNL     1      -0.358   9.616  18.117  0.00  0.00    +0.000 A 
ATOM     11  C   UNL     1      -1.251  10.545  18.666  0.00  0.00    +0.000 A 
ATOM     12  C   UNL     1      -0.767  11.656  19.369  0.00  0.00    +0.000 A 
ATOM     13  C   UNL     1       0.618  11.825  19.516  0.00  0.00    +0.000 A 
ATOM     14  C   UNL     1       1.506  10.887  18.971  0.00  0.00    +0.000 A 
BRANCH  12  15
ATOM     15  N   UNL     1      -1.656  12.615  19.923  0.00  0.00    +0.000 N 
ATOM     16  C   UNL     1      -3.021  12.537  20.078  0.00  0.00    +0.000 A 
ATOM     17  N   UNL     1      -3.495  13.650  20.593  0.00  0.00    +0.000 NA
ATOM     18  C   UNL     1      -2.372  14.399  20.759  0.00  0.00    +0.000 A 
ATOM     19  N   UNL     1      -1.229  13.813  20.399  0.00  0.00    +0.000 NA
ENDBRANCH  12  15
ENDBRANCH   4   9
BRANCH   1  20
ATOM     20  S   UNL     1       4.402   4.478  18.666  0.00  0.00    +0.000 S 
BRANCH  20  21
ATOM     21  C   UNL     1       3.088   3.268  19.068  0.00  0.00    +0.000 C 
ATOM     22  C   UNL     1       3.489   1.929  18.445  0.00  0.00    +0.000 C 
BRANCH  21  23
ATOM     23  C   UNL     1       1.738   3.724  18.527  0.00  0.00    +0.000 C 
ATOM     24  O   UNL     1       1.433   3.828  17.345  0.00  0.00    +0.000 OA
BRANCH  23  26
ATOM     25  C   UNL     1       1.153   3.317  20.764  0.00  0.00    +0.000 C 
ATOM     26  O   UNL     1       0.897   4.042  19.560  0.00  0.00    +0.000 OA
ENDBRANCH  23  26
ENDBRANCH  21  23
ENDBRANCH  20  21
ENDBRANCH   1  20
TORSDOF 6
ENDMDL
MODEL 4
REMARK VINA RESULT:      -6.8      2.310      3.027
REMARK  Name = 
REMARK  8 active torsions:
REMARK  status: ('A' for Active; 'I' for Inactive)
REMARK    1  A    between atoms: C_1  and  O_2
REMARK    2  A    between atoms: O_2  and  C_3
REMARK    3  A    between atoms: C_3  and  C_5
REMARK    4  A    between atoms: C_5  and  C_6
REMARK    5  A    between atoms: C_5  and  S_7
REMARK    6  A    between atoms: S_7  and  C_8
REMARK    7  A    between atoms: C_11  and  C_12
REMARK    8  A    between atoms: C_15  and  N_16
REMARK                            x       y       z     vdW  Elec       q    Type
REMARK                         _______ _______ _______ _____ _____    ______ ____
ROOT
ATOM      1  C   UNL     1       3.515   6.226  18.653  0.00  0.00    +0.000 C 
ATOM      2  N   UNL     1       3.324   7.152  17.768  0.00  0.00    +0.000 NA
ATOM      3  C   UNL     1       2.416   8.003  18.385  0.00  0.00    +0.000 C 
ATOM      4  C   UNL     1       1.875   9.076  17.792  0.00  0.00    +0.000 C 
ATOM      5  C   UNL     1       2.120   7.492  19.763  0.00  0.00    +0.000 C 
ATOM      6  O   UNL     1       1.391   7.945  20.619  0.00  0.00    +0.000 OA
ATOM      7  N   UNL     1       2.866   6.361  19.821  0.00  0.00    +0.000 N 
ATOM      8  H   UNL     1       2.924   5.745  20.613  0.00  0.00    +0.000 HD
ENDROOT
BRANCH   4   9
ATOM      9  C   UNL     1       0.894   9.994  18.381  0.00  0.00    +0.000 A 
ATOM     10  C   UNL     1       1.332  11.116  19.091  0.00  0.00    +0.000 A 
ATOM     11  C   UNL     1       0.413  12.026  19.627  0.00  0.00    +0.000 A 
ATOM     12  C   UNL     1      -0.962  11.816  19.463  0.00  0.00    +0.000 A 
ATOM     13  C   UNL     1      -1.405  10.688  18.758  0.00  0.00    +0.000 A 
ATOM     14  C   UNL     1      -0.479   9.784  18.217  0.00  0.00    +0.000 A 
BRANCH  12  15
ATOM     15  N   UNL     1      -1.910  12.723  20.007  0.00  0.00    +0.000 N 
ATOM     16  C   UNL     1      -3.281  12.614  20.051  0.00  0.00    +0.000 A 
ATOM     17  N   UNL     1      -3.815  13.684  20.598  0.00  0.00    +0.000 NA
ATOM     18  C   UNL     1      -2.723  14.438  20.898  0.00  0.00    +0.000 A 
ATOM     19  N   UNL     1      -1.545  13.895  20.589  0.00  0.00    +0.000 NA
ENDBRANCH  12  15
ENDBRANCH   4   9
BRANCH   1  20
ATOM     20  S   UNL     1       4.452   4.797  18.456  0.00  0.00    +0.000 S 
BRANCH  20  21
ATOM     21  C   UNL     1       3.340   3.551  19.207  0.00  0.00    +0.000 C 
ATOM     22  C   UNL     1       4.199   2.348  19.604  0.00  0.00    +0.000 C 
BRANCH  21  23
ATOM     23  C   UNL     1       2.249   3.128  18.231  0.00  0.00    +0.000 C 
ATOM     24  O   UNL     1       2.292   3.238  17.011  0.00  0.00    +0.000 OA
BRANCH  23  26
ATOM     25  C   UNL     1       0.734   3.447  19.996  0.00  0.00    +0.000 C 
ATOM     26  O   UNL     1       1.173   2.626  18.912  0.00  0.00    +0.000 OA
ENDBRANCH  23  26
ENDBRANCH  21  23
ENDBRANCH  20  21
ENDBRANCH   1  20
TORSDOF 6
ENDMDL
MODEL 5
REMARK VINA RESULT:      -6.8      2.332      2.990
REMARK  Name = 
REMARK  8 active torsions:
REMARK  status: ('A' for Active; 'I' for Inactive)
REMARK    1  A    between atoms: C_1  and  O_2
REMARK    2  A    between atoms: O_2  and  C_3
REMARK    3  A    between atoms: C_3  and  C_5
REMARK    4  A    between atoms: C_5  and  C_6
REMARK    5  A    between atoms: C_5  and  S_7
REMARK    6  A    between atoms: S_7  and  C_8
REMARK    7  A    between atoms: C_11  and  C_12
REMARK    8  A    between atoms: C_15  and  N_16
REMARK                            x       y       z     vdW  Elec       q    Type
REMARK                         _______ _______ _______ _____ _____    ______ ____
ROOT
ATOM      1  C   UNL     1       3.737   6.223  18.652  0.00  0.00    +0.000 C 
ATOM      2  N   UNL     1       3.492   7.123  17.754  0.00  0.00    +0.000 NA
ATOM      3  C   UNL     1       2.503   7.902  18.341  0.00  0.00    +0.000 C 
ATOM      4  C   UNL     1       1.891   8.922  17.726  0.00  0.00    +0.000 C 
ATOM      5  C   UNL     1       2.218   7.380  19.717  0.00  0.00    +0.000 C 
ATOM      6  O   UNL     1       1.434   7.779  20.551  0.00  0.00    +0.000 OA
ATOM      7  N   UNL     1       3.052   6.314  19.804  0.00  0.00    +0.000 N 
ATOM      8  H   UNL     1       3.141   5.711  20.603  0.00  0.00    +0.000 HD
ENDROOT
BRANCH   4   9
ATOM      9  C   UNL     1       0.825   9.762  18.282  0.00  0.00    +0.000 A 
ATOM     10  C   UNL     1       1.146  10.796  19.166  0.00  0.00    +0.000 A 
ATOM     11  C   UNL     1       0.148  11.634  19.678  0.00  0.00    +0.000 A 
ATOM     12  C   UNL     1      -1.191  11.439  19.314  0.00  0.00    +0.000 A 
ATOM     13  C   UNL     1      -1.517  10.397  18.433  0.00  0.00    +0.000 A 
ATOM     14  C   UNL     1      -0.511   9.566  17.918  0.00  0.00    +0.000 A 
BRANCH  12  15
ATOM     15  N   UNL     1      -2.218  12.272  19.830  0.00  0.00    +0.000 N 
ATOM     16  C   UNL     1      -2.129  13.264  20.780  0.00  0.00    +0.000 A 
ATOM     17  N   UNL     1      -3.312  13.781  21.025  0.00  0.00    +0.000 NA
ATOM     18  C   UNL     1      -4.120  13.081  20.183  0.00  0.00    +0.000 A 
ATOM     19  N   UNL     1      -3.508  12.176  19.417  0.00  0.00    +0.000 NA
ENDBRANCH  12  15
ENDBRANCH   4   9
BRANCH   1  20
ATOM     20  S   UNL     1       4.792   4.874  18.491  0.00  0.00    +0.000 S 
BRANCH  20  21
ATOM     21  C   UNL     1       3.583   3.502  18.389  0.00  0.00    +0.000 C 
ATOM     22  C   UNL     1       2.368   4.017  17.614  0.00  0.00    +0.000 C 
BRANCH  21  23
ATOM     23  C   UNL     1       3.168   3.031  19.778  0.00  0.00    +0.000 C 
ATOM     24  O   UNL     1       3.840   2.339  20.533  0.00  0.00    +0.000 OA
BRANCH  23  26
ATOM     25  C   UNL     1       1.368   2.938  21.282  0.00  0.00    +0.000 C 
ATOM     26  O   UNL     1       1.903   3.465  20.067  0.00  0.00    +0.000 OA
ENDBRANCH  23  26
ENDBRANCH  21  23
ENDBRANCH  20  21
ENDBRANCH   1  20
TORSDOF 6
ENDMDL
MODEL 6
REMARK VINA RESULT:      -6.8      2.231      3.049
REMARK  Name = 
REMARK  8 active torsions:
REMARK  status: ('A' for Active; 'I' for Inactive)
REMARK    1  A    between atoms: C_1  and  O_2
REMARK    2  A    between atoms: O_2  and  C_3
REMARK    3  A    between atoms: C_3  and  C_5
REMARK    4  A    between atoms: C_5  and  C_6
REMARK    5  A    between atoms: C_5  and  S_7
REMARK    6  A    between atoms: S_7  and  C_8
REMARK    7  A    between atoms: C_11  and  C_12
REMARK    8  A    between atoms: C_15  and  N_16
REMARK                            x       y       z     vdW  Elec       q    Type
REMARK                         _______ _______ _______ _____ _____    ______ ____
ROOT
ATOM      1  C   UNL     1       3.746   6.143  18.945  0.00  0.00    +0.000 C 
ATOM      2  N   UNL     1       3.567   7.012  18.002  0.00  0.00    +0.000 NA
ATOM      3  C   UNL     1       2.527   7.798  18.482  0.00  0.00    +0.000 C 
ATOM      4  C   UNL     1       1.958   8.792  17.787  0.00  0.00    +0.000 C 
ATOM      5  C   UNL     1       2.135   7.315  19.846  0.00  0.00    +0.000 C 
ATOM      6  O   UNL     1       1.283   7.731  20.602  0.00  0.00    +0.000 OA
ATOM      7  N   UNL     1       2.969   6.262  20.034  0.00  0.00    +0.000 N 
ATOM      8  H   UNL     1       2.997   5.685  20.856  0.00  0.00    +0.000 HD
ENDROOT
BRANCH   4   9
ATOM      9  C   UNL     1       0.844   9.637  18.229  0.00  0.00    +0.000 A 
ATOM     10  C   UNL     1      -0.462   9.319  17.844  0.00  0.00    +0.000 A 
ATOM     11  C   UNL     1      -1.545  10.090  18.288  0.00  0.00    +0.000 A 
ATOM     12  C   UNL     1      -1.327  11.196  19.119  0.00  0.00    +0.000 A 
ATOM     13  C   UNL     1      -0.017  11.522  19.500  0.00  0.00    +0.000 A 
ATOM     14  C   UNL     1       1.061  10.742  19.059  0.00  0.00    +0.000 A 
BRANCH  12  15
ATOM     15  N   UNL     1      -2.411  11.995  19.570  0.00  0.00    +0.000 N 
ATOM     16  C   UNL     1      -2.444  12.897  20.609  0.00  0.00    +0.000 A 
ATOM     17  N   UNL     1      -3.648  13.407  20.744  0.00  0.00    +0.000 NA
ATOM     18  C   UNL     1      -4.340  12.797  19.745  0.00  0.00    +0.000 A 
ATOM     19  N   UNL     1      -3.637  11.955  18.986  0.00  0.00    +0.000 NA
ENDBRANCH  12  15
ENDBRANCH   4   9
BRANCH   1  20
ATOM     20  S   UNL     1       4.821   4.801  18.913  0.00  0.00    +0.000 S 
BRANCH  20  21
ATOM     21  C   UNL     1       3.927   3.671  17.783  0.00  0.00    +0.000 C 
ATOM     22  C   UNL     1       4.162   4.167  16.355  0.00  0.00    +0.000 C 
BRANCH  21  23
ATOM     23  C   UNL     1       2.437   3.643  18.100  0.00  0.00    +0.000 C 
ATOM     24  O   UNL     1       1.537   4.029  17.364  0.00  0.00    +0.000 OA
BRANCH  23  26
ATOM     25  C   UNL     1       0.891   3.302  19.835  0.00  0.00    +0.000 C 
ATOM     26  O   UNL     1       2.230   3.149  19.360  0.00  0.00    +0.000 OA
ENDBRANCH  23  26
ENDBRANCH  21  23
ENDBRANCH  20  21
ENDBRANCH   1  20
TORSDOF 6
ENDMDL
MODEL 7
REMARK VINA RESULT:      -6.8      0.962      1.104
REMARK  Name = 
REMARK  8 active torsions:
REMARK  status: ('A' for Active; 'I' for Inactive)
REMARK    1  A    between atoms: C_1  and  O_2
REMARK    2  A    between atoms: O_2  and  C_3
REMARK    3  A    between atoms: C_3  and  C_5
REMARK    4  A    between atoms: C_5  and  C_6
REMARK    5  A    between atoms: C_5  and  S_7
REMARK    6  A    between atoms: S_7  and  C_8
REMARK    7  A    between atoms: C_11  and  C_12
REMARK    8  A    between atoms: C_15  and  N_16
REMARK                            x       y       z     vdW  Elec       q    Type
REMARK                         _______ _______ _______ _____ _____    ______ ____
ROOT
ATOM      1  C   UNL     1       3.889   6.391  18.156  0.00  0.00    +0.000 C 
ATOM      2  N   UNL     1       3.645   7.439  17.436  0.00  0.00    +0.000 NA
ATOM      3  C   UNL     1       2.647   8.093  18.148  0.00  0.00    +0.000 C 
ATOM      4  C   UNL     1       2.034   9.206  17.725  0.00  0.00    +0.000 C 
ATOM      5  C   UNL     1       2.355   7.326  19.403  0.00  0.00    +0.000 C 
ATOM      6  O   UNL     1       1.562   7.562  20.290  0.00  0.00    +0.000 OA
ATOM      7  N   UNL     1       3.195   6.266  19.300  0.00  0.00    +0.000 N 
ATOM      8  H   UNL     1       3.281   5.528  19.975  0.00  0.00    +0.000 HD
ENDROOT
BRANCH   4   9
ATOM      9  C   UNL     1       0.959   9.925  18.417  0.00  0.00    +0.000 A 
ATOM     10  C   UNL     1       1.274  10.854  19.413  0.00  0.00    +0.000 A 
ATOM     11  C   UNL     1       0.265  11.580  20.058  0.00  0.00    +0.000 A 
ATOM     12  C   UNL     1      -1.078  11.375  19.716  0.00  0.00    +0.000 A 
ATOM     13  C   UNL     1      -1.398  10.437  18.723  0.00  0.00    +0.000 A 
ATOM     14  C   UNL     1      -0.382   9.720  18.075  0.00  0.00    +0.000 A 
BRANCH  12  15
ATOM     15  N   UNL     1      -2.116  12.094  20.366  0.00  0.00    +0.000 N 
ATOM     16  C   UNL     1      -2.177  12.530  21.670  0.00  0.00    +0.000 A 
ATOM     17  N   UNL     1      -3.326  13.123  21.909  0.00  0.00    +0.000 NA
ATOM     18  C   UNL     1      -3.953  13.044  20.704  0.00  0.00    +0.000 A 
ATOM     19  N   UNL     1      -3.258  12.458  19.728  0.00  0.00    +0.000 NA
ENDBRANCH  12  15
ENDBRANCH   4   9
BRANCH   1  20
ATOM     20  S   UNL     1       4.952   5.099  17.760  0.00  0.00    +0.000 S 
BRANCH  20  21
ATOM     21  C   UNL     1       6.183   5.972  16.723  0.00  0.00    +0.000 C 
ATOM     22  C   UNL     1       6.799   4.942  15.774  0.00  0.00    +0.000 C 
BRANCH  21  23
ATOM     23  C   UNL     1       7.263   6.621  17.581  0.00  0.00    +0.000 C 
ATOM     24  O   UNL     1       7.630   6.239  18.686  0.00  0.00    +0.000 OA
BRANCH  23  26
ATOM     25  C   UNL     1       7.949   8.853  17.819  0.00  0.00    +0.000 C 
ATOM     26  O   UNL     1       7.761   7.731  16.955  0.00  0.00    +0.000 OA
ENDBRANCH  23  26
ENDBRANCH  21  23
ENDBRANCH  20  21
ENDBRANCH   1  20
TORSDOF 6
ENDMDL
MODEL 8
REMARK VINA RESULT:      -6.7      0.856      1.203
REMARK  Name = 
REMARK  8 active torsions:
REMARK  status: ('A' for Active; 'I' for Inactive)
REMARK    1  A    between atoms: C_1  and  O_2
REMARK    2  A    between atoms: O_2  and  C_3
REMARK    3  A    between atoms: C_3  and  C_5
REMARK    4  A    between atoms: C_5  and  C_6
REMARK    5  A    between atoms: C_5  and  S_7
REMARK    6  A    between atoms: S_7  and  C_8
REMARK    7  A    between atoms: C_11  and  C_12
REMARK    8  A    between atoms: C_15  and  N_16
REMARK                            x       y       z     vdW  Elec       q    Type
REMARK                         _______ _______ _______ _____ _____    ______ ____
ROOT
ATOM      1  C   UNL     1       3.767   6.275  18.820  0.00  0.00    +0.000 C 
ATOM      2  N   UNL     1       3.542   7.156  17.898  0.00  0.00    +0.000 NA
ATOM      3  C   UNL     1       2.513   7.922  18.430  0.00  0.00    +0.000 C 
ATOM      4  C   UNL     1       1.906   8.920  17.773  0.00  0.00    +0.000 C 
ATOM      5  C   UNL     1       2.178   7.413  19.800  0.00  0.00    +0.000 C 
ATOM      6  O   UNL     1       1.350   7.807  20.593  0.00  0.00    +0.000 OA
ATOM      7  N   UNL     1       3.030   6.367  19.939  0.00  0.00    +0.000 N 
ATOM      8  H   UNL     1       3.097   5.778  20.750  0.00  0.00    +0.000 HD
ENDROOT
BRANCH   4   9
ATOM      9  C   UNL     1       0.800   9.743  18.269  0.00  0.00    +0.000 A 
ATOM     10  C   UNL     1       1.058  10.786  19.164  0.00  0.00    +0.000 A 
ATOM     11  C   UNL     1       0.020  11.610  19.619  0.00  0.00    +0.000 A 
ATOM     12  C   UNL     1      -1.294  11.390  19.188  0.00  0.00    +0.000 A 
ATOM     13  C   UNL     1      -1.557  10.340  18.296  0.00  0.00    +0.000 A 
ATOM     14  C   UNL     1      -0.513   9.524  17.838  0.00  0.00    +0.000 A 
BRANCH  12  15
ATOM     15  N   UNL     1      -2.361  12.209  19.646  0.00  0.00    +0.000 N 
ATOM     16  C   UNL     1      -2.314  13.291  20.494  0.00  0.00    +0.000 A 
ATOM     17  N   UNL     1      -3.521  13.760  20.717  0.00  0.00    +0.000 NA
ATOM     18  C   UNL     1      -4.301  12.935  19.966  0.00  0.00    +0.000 A 
ATOM     19  N   UNL     1      -3.650  11.998  19.275  0.00  0.00    +0.000 NA
ENDBRANCH  12  15
ENDBRANCH   4   9
BRANCH   1  20
ATOM     20  S   UNL     1       4.856   4.947  18.725  0.00  0.00    +0.000 S 
BRANCH  20  21
ATOM     21  C   UNL     1       5.327   5.013  16.957  0.00  0.00    +0.000 C 
ATOM     22  C   UNL     1       4.663   3.825  16.259  0.00  0.00    +0.000 C 
BRANCH  21  23
ATOM     23  C   UNL     1       6.841   4.953  16.789  0.00  0.00    +0.000 C 
ATOM     24  O   UNL     1       7.625   4.369  17.529  0.00  0.00    +0.000 OA
BRANCH  23  26
ATOM     25  C   UNL     1       7.155   4.958  14.462  0.00  0.00    +0.000 C 
ATOM     26  O   UNL     1       7.225   5.679  15.694  0.00  0.00    +0.000 OA
ENDBRANCH  23  26
ENDBRANCH  21  23
ENDBRANCH  20  21
ENDBRANCH   1  20
TORSDOF 6
ENDMDL
MODEL 9
REMARK VINA RESULT:      -6.6      1.884      2.368
REMARK  Name = 
REMARK  8 active torsions:
REMARK  status: ('A' for Active; 'I' for Inactive)
REMARK    1  A    between atoms: C_1  and  O_2
REMARK    2  A    between atoms: O_2  and  C_3
REMARK    3  A    between atoms: C_3  and  C_5
REMARK    4  A    between atoms: C_5  and  C_6
REMARK    5  A    between atoms: C_5  and  S_7
REMARK    6  A    between atoms: S_7  and  C_8
REMARK    7  A    between atoms: C_11  and  C_12
REMARK    8  A    between atoms: C_15  and  N_16
REMARK                            x       y       z     vdW  Elec       q    Type
REMARK                         _______ _______ _______ _____ _____    ______ ____
ROOT
ATOM      1  C   UNL     1       2.629   5.763  19.505  0.00  0.00    +0.000 C 
ATOM      2  N   UNL     1       2.585   6.409  18.384  0.00  0.00    +0.000 NA
ATOM      3  C   UNL     1       2.108   7.660  18.753  0.00  0.00    +0.000 C 
ATOM      4  C   UNL     1       1.833   8.642  17.884  0.00  0.00    +0.000 C 
ATOM      5  C   UNL     1       1.911   7.693  20.239  0.00  0.00    +0.000 C 
ATOM      6  O   UNL     1       1.518   8.593  20.950  0.00  0.00    +0.000 OA
ATOM      7  N   UNL     1       2.267   6.438  20.609  0.00  0.00    +0.000 N 
ATOM      8  H   UNL     1       2.266   6.089  21.551  0.00  0.00    +0.000 HD
ENDROOT
BRANCH   4   9
ATOM      9  C   UNL     1       1.303   9.970  18.209  0.00  0.00    +0.000 A 
ATOM     10  C   UNL     1      -0.073  10.145  18.384  0.00  0.00    +0.000 A 
ATOM     11  C   UNL     1      -0.595  11.396  18.734  0.00  0.00    +0.000 A 
ATOM     12  C   UNL     1       0.260  12.493  18.906  0.00  0.00    +0.000 A 
ATOM     13  C   UNL     1       1.640  12.322  18.724  0.00  0.00    +0.000 A 
ATOM     14  C   UNL     1       2.157  11.065  18.381  0.00  0.00    +0.000 A 
BRANCH  12  15
ATOM     15  N   UNL     1      -0.252  13.772  19.251  0.00  0.00    +0.000 N 
ATOM     16  C   UNL     1      -1.252  14.089  20.142  0.00  0.00    +0.000 A 
ATOM     17  N   UNL     1      -1.471  15.385  20.152  0.00  0.00    +0.000 NA
ATOM     18  C   UNL     1      -0.563  15.845  19.250  0.00  0.00    +0.000 A 
ATOM     19  N   UNL     1       0.219  14.918  18.695  0.00  0.00    +0.000 NA
ENDBRANCH  12  15
ENDBRANCH   4   9
BRANCH   1  20
ATOM     20  S   UNL     1       3.027   4.103  19.717  0.00  0.00    +0.000 S 
BRANCH  20  21
ATOM     21  C   UNL     1       3.649   3.682  18.047  0.00  0.00    +0.000 C 
ATOM     22  C   UNL     1       3.535   2.165  17.883  0.00  0.00    +0.000 C 
BRANCH  21  23
ATOM     23  C   UNL     1       5.094   4.131  17.869  0.00  0.00    +0.000 C 
ATOM     24  O   UNL     1       5.639   4.399  16.805  0.00  0.00    +0.000 OA
BRANCH  23  26
ATOM     25  C   UNL     1       6.554   5.318  19.274  0.00  0.00    +0.000 C 
ATOM     26  O   UNL     1       5.731   4.166  19.080  0.00  0.00    +0.000 OA
ENDBRANCH  23  26
ENDBRANCH  21  23
ENDBRANCH  20  21
ENDBRANCH   1  20
TORSDOF 6
ENDMDL
