MODEL 1
REMARK VINA RESULT:      -8.7      0.000      0.000
REMARK  Name = 
REMARK  3 active torsions:
REMARK  status: ('A' for Active; 'I' for Inactive)
REMARK    1  A    between atoms: C_1  and  C_2
REMARK    2  A    between atoms: C_6  and  N_7
REMARK    3  A    between atoms: N_13  and  C_14
REMARK                            x       y       z     vdW  Elec       q    Type
REMARK                         _______ _______ _______ _____ _____    ______ ____
ROOT
ATOM      1  N   UNL     1       0.356  10.749  21.251  0.00  0.00    +0.000 N 
ATOM      2  C   UNL     1       0.394  10.486  19.899  0.00  0.00    +0.000 C 
ATOM      3  O   UNL     1      -0.147  11.183  19.043  0.00  0.00    +0.000 OA
ATOM      4  N   UNL     1       1.183   9.401  19.528  0.00  0.00    +0.000 N 
ATOM      5  C   UNL     1       1.339   9.223  18.082  0.00  0.00    +0.000 C 
ATOM      6  C   UNL     1       2.632   8.489  17.727  0.00  0.00    +0.000 C 
ATOM      7  N   UNL     1       2.692   7.223  18.447  0.00  0.00    +0.000 N 
ATOM      8  C   UNL     1       2.525   7.296  19.906  0.00  0.00    +0.000 C 
ATOM      9  C   UNL     1       1.286   8.144  20.294  0.00  0.00    +0.000 C 
ATOM     10  H   UNL     1       1.101  10.343  21.796  0.00  0.00    +0.000 HD
ENDROOT
BRANCH   7  11
ATOM     11  C   UNL     1       3.174   6.067  17.867  0.00  0.00    +0.000 A 
ATOM     12  N   UNL     1       4.326   6.164  17.152  0.00  0.00    +0.000 NA
ATOM     13  C   UNL     1       4.918   5.067  16.668  0.00  0.00    +0.000 A 
ATOM     14  N   UNL     1       6.119   5.247  16.005  0.00  0.00    +0.000 N 
ATOM     15  N   UNL     1       4.500   3.819  16.813  0.00  0.00    +0.000 NA
ATOM     16  C   UNL     1       3.334   3.728  17.469  0.00  0.00    +0.000 A 
ATOM     17  S   UNL     1       2.610   2.202  17.722  0.00  0.00    +0.000 S 
ATOM     18  C   UNL     1       1.291   2.910  18.495  0.00  0.00    +0.000 A 
ATOM     19  F   UNL     1       0.271   2.238  18.964  0.00  0.00    +0.000 F 
ATOM     20  C   UNL     1       1.383   4.275  18.584  0.00  0.00    +0.000 A 
ATOM     21  C   UNL     1       2.604   4.777  18.009  0.00  0.00    +0.000 A 
ATOM     22  H   UNL     1       6.560   6.096  16.334  0.00  0.00    +0.000 HD
ATOM     23  H   UNL     1       6.663   4.396  16.060  0.00  0.00    +0.000 HD
ENDBRANCH   7  11
BRANCH   1  29
ATOM     24  C   UNL     1      -3.509  12.317  23.908  0.00  0.00    +0.000 C 
ATOM     25  C   UNL     1      -2.237  12.610  23.168  0.00  0.00    +0.000 A 
ATOM     26  C   UNL     1      -1.731  13.913  23.127  0.00  0.00    +0.000 A 
ATOM     27  C   UNL     1      -0.553  14.183  22.440  0.00  0.00    +0.000 A 
ATOM     28  C   UNL     1       0.134  13.153  21.798  0.00  0.00    +0.000 A 
ATOM     29  C   UNL     1      -0.335  11.838  21.844  0.00  0.00    +0.000 A 
ATOM     30  C   UNL     1      -1.539  11.578  22.515  0.00  0.00    +0.000 A 
ENDBRANCH   1  29
TORSDOF 2
ENDMDL
MODEL 2
REMARK VINA RESULT:      -8.6      3.771      9.298
REMARK  Name = 
REMARK  3 active torsions:
REMARK  status: ('A' for Active; 'I' for Inactive)
REMARK    1  A    between atoms: C_1  and  C_2
REMARK    2  A    between atoms: C_6  and  N_7
REMARK    3  A    between atoms: N_13  and  C_14
REMARK                            x       y       z     vdW  Elec       q    Type
REMARK                         _______ _______ _______ _____ _____    ______ ____
ROOT
ATOM      1  N   UNL     1       4.294   7.023  17.580  0.00  0.00    +0.000 N 
ATOM      2  C   UNL     1       3.354   6.822  18.566  0.00  0.00    +0.000 C 
ATOM      3  O   UNL     1       3.325   5.839  19.306  0.00  0.00    +0.000 OA
ATOM      4  N   UNL     1       2.459   7.870  18.755  0.00  0.00    +0.000 N 
ATOM      5  C   UNL     1       1.563   7.713  19.904  0.00  0.00    +0.000 C 
ATOM      6  C   UNL     1       1.076   9.056  20.445  0.00  0.00    +0.000 C 
ATOM      7  N   UNL     1       0.460   9.825  19.369  0.00  0.00    +0.000 N 
ATOM      8  C   UNL     1       1.276  10.021  18.162  0.00  0.00    +0.000 C 
ATOM      9  C   UNL     1       1.886   8.684  17.666  0.00  0.00    +0.000 C 
ATOM     10  H   UNL     1       4.434   7.981  17.299  0.00  0.00    +0.000 HD
ENDROOT
BRANCH   7  11
ATOM     11  C   UNL     1      -0.677  10.583  19.562  0.00  0.00    +0.000 A 
ATOM     12  N   UNL     1      -0.730  11.350  20.683  0.00  0.00    +0.000 NA
ATOM     13  C   UNL     1      -1.742  12.203  20.874  0.00  0.00    +0.000 A 
ATOM     14  N   UNL     1      -1.690  12.991  22.010  0.00  0.00    +0.000 N 
ATOM     15  N   UNL     1      -2.759  12.412  20.051  0.00  0.00    +0.000 NA
ATOM     16  C   UNL     1      -2.736  11.616  18.974  0.00  0.00    +0.000 A 
ATOM     17  S   UNL     1      -3.987  11.708  17.813  0.00  0.00    +0.000 S 
ATOM     18  C   UNL     1      -3.293  10.467  16.907  0.00  0.00    +0.000 A 
ATOM     19  F   UNL     1      -3.807   9.996  15.800  0.00  0.00    +0.000 F 
ATOM     20  C   UNL     1      -2.128   9.988  17.447  0.00  0.00    +0.000 A 
ATOM     21  C   UNL     1      -1.764  10.678  18.657  0.00  0.00    +0.000 A 
ATOM     22  H   UNL     1      -0.727  13.095  22.300  0.00  0.00    +0.000 HD
ATOM     23  H   UNL     1      -2.217  13.839  21.855  0.00  0.00    +0.000 HD
ENDBRANCH   7  11
BRANCH   1  29
ATOM     24  C   UNL     1       6.269   3.897  14.296  0.00  0.00    +0.000 C 
ATOM     25  C   UNL     1       6.318   4.580  15.630  0.00  0.00    +0.000 A 
ATOM     26  C   UNL     1       7.399   4.364  16.492  0.00  0.00    +0.000 A 
ATOM     27  C   UNL     1       7.442   4.998  17.728  0.00  0.00    +0.000 A 
ATOM     28  C   UNL     1       6.414   5.860  18.110  0.00  0.00    +0.000 A 
ATOM     29  C   UNL     1       5.336   6.114  17.258  0.00  0.00    +0.000 A 
ATOM     30  C   UNL     1       5.285   5.451  16.024  0.00  0.00    +0.000 A 
ENDBRANCH   1  29
TORSDOF 2
ENDMDL
MODEL 3
REMARK VINA RESULT:      -8.6      1.367      1.594
REMARK  Name = 
REMARK  3 active torsions:
REMARK  status: ('A' for Active; 'I' for Inactive)
REMARK    1  A    between atoms: C_1  and  C_2
REMARK    2  A    between atoms: C_6  and  N_7
REMARK    3  A    between atoms: N_13  and  C_14
REMARK                            x       y       z     vdW  Elec       q    Type
REMARK                         _______ _______ _______ _____ _____    ______ ____
ROOT
ATOM      1  N   UNL     1      -0.615  11.149  22.297  0.00  0.00    +0.000 N 
ATOM      2  C   UNL     1      -0.561  10.859  20.951  0.00  0.00    +0.000 C 
ATOM      3  O   UNL     1      -1.158  11.493  20.082  0.00  0.00    +0.000 OA
ATOM      4  N   UNL     1       0.309   9.832  20.600  0.00  0.00    +0.000 N 
ATOM      5  C   UNL     1       0.474   9.634  19.157  0.00  0.00    +0.000 C 
ATOM      6  C   UNL     1       1.819   8.996  18.812  0.00  0.00    +0.000 C 
ATOM      7  N   UNL     1       1.980   7.754  19.559  0.00  0.00    +0.000 N 
ATOM      8  C   UNL     1       1.813   7.847  21.017  0.00  0.00    +0.000 C 
ATOM      9  C   UNL     1       0.512   8.603  21.392  0.00  0.00    +0.000 C 
ATOM     10  H   UNL     1       0.161  10.814  22.847  0.00  0.00    +0.000 HD
ENDROOT
BRANCH   7  11
ATOM     11  C   UNL     1       2.549   6.628  19.002  0.00  0.00    +0.000 A 
ATOM     12  N   UNL     1       3.400   6.812  17.958  0.00  0.00    +0.000 NA
ATOM     13  C   UNL     1       4.083   5.781  17.449  0.00  0.00    +0.000 A 
ATOM     14  N   UNL     1       4.974   6.064  16.429  0.00  0.00    +0.000 N 
ATOM     15  N   UNL     1       4.037   4.526  17.867  0.00  0.00    +0.000 NA
ATOM     16  C   UNL     1       3.157   4.333  18.859  0.00  0.00    +0.000 A 
ATOM     17  S   UNL     1       2.924   2.770  19.507  0.00  0.00    +0.000 S 
ATOM     18  C   UNL     1       1.738   3.338  20.561  0.00  0.00    +0.000 A 
ATOM     19  F   UNL     1       1.082   2.580  21.401  0.00  0.00    +0.000 F 
ATOM     20  C   UNL     1       1.517   4.687  20.451  0.00  0.00    +0.000 A 
ATOM     21  C   UNL     1       2.372   5.301  19.469  0.00  0.00    +0.000 A 
ATOM     22  H   UNL     1       5.268   7.030  16.499  0.00  0.00    +0.000 HD
ATOM     23  H   UNL     1       5.702   5.363  16.414  0.00  0.00    +0.000 HD
ENDBRANCH   7  11
BRANCH   1  29
ATOM     24  C   UNL     1      -4.786  12.517  24.574  0.00  0.00    +0.000 C 
ATOM     25  C   UNL     1      -3.443  12.866  24.007  0.00  0.00    +0.000 A 
ATOM     26  C   UNL     1      -2.956  14.173  24.104  0.00  0.00    +0.000 A 
ATOM     27  C   UNL     1      -1.710  14.495  23.576  0.00  0.00    +0.000 A 
ATOM     28  C   UNL     1      -0.937  13.513  22.958  0.00  0.00    +0.000 A 
ATOM     29  C   UNL     1      -1.388  12.192  22.869  0.00  0.00    +0.000 A 
ATOM     30  C   UNL     1      -2.656  11.881  23.379  0.00  0.00    +0.000 A 
ENDBRANCH   1  29
TORSDOF 2
ENDMDL
MODEL 4
REMARK VINA RESULT:      -8.4      0.336      1.325
REMARK  Name = 
REMARK  3 active torsions:
REMARK  status: ('A' for Active; 'I' for Inactive)
REMARK    1  A    between atoms: C_1  and  C_2
REMARK    2  A    between atoms: C_6  and  N_7
REMARK    3  A    between atoms: N_13  and  C_14
REMARK                            x       y       z     vdW  Elec       q    Type
REMARK                         _______ _______ _______ _____ _____    ______ ____
ROOT
ATOM      1  N   UNL     1       0.226  10.616  21.475  0.00  0.00    +0.000 N 
ATOM      2  C   UNL     1       0.219  10.374  20.118  0.00  0.00    +0.000 C 
ATOM      3  O   UNL     1      -0.395  11.052  19.297  0.00  0.00    +0.000 OA
ATOM      4  N   UNL     1       1.048   9.339  19.696  0.00  0.00    +0.000 N 
ATOM      5  C   UNL     1       1.151   9.190  18.242  0.00  0.00    +0.000 C 
ATOM      6  C   UNL     1       2.464   8.533  17.820  0.00  0.00    +0.000 C 
ATOM      7  N   UNL     1       2.624   7.261  18.516  0.00  0.00    +0.000 N 
ATOM      8  C   UNL     1       2.517   7.305  19.982  0.00  0.00    +0.000 C 
ATOM      9  C   UNL     1       1.251   8.078  20.436  0.00  0.00    +0.000 C 
ATOM     10  H   UNL     1       1.014  10.243  21.980  0.00  0.00    +0.000 HD
ENDROOT
BRANCH   7  11
ATOM     11  C   UNL     1       3.141   6.142  17.897  0.00  0.00    +0.000 A 
ATOM     12  N   UNL     1       4.289   6.299  17.186  0.00  0.00    +0.000 NA
ATOM     13  C   UNL     1       4.915   5.239  16.665  0.00  0.00    +0.000 A 
ATOM     14  N   UNL     1       6.109   5.479  16.007  0.00  0.00    +0.000 N 
ATOM     15  N   UNL     1       4.536   3.974  16.767  0.00  0.00    +0.000 NA
ATOM     16  C   UNL     1       3.375   3.824  17.420  0.00  0.00    +0.000 A 
ATOM     17  S   UNL     1       2.700   2.268  17.621  0.00  0.00    +0.000 S 
ATOM     18  C   UNL     1       1.360   2.907  18.418  0.00  0.00    +0.000 A 
ATOM     19  F   UNL     1       0.362   2.188  18.864  0.00  0.00    +0.000 F 
ATOM     20  C   UNL     1       1.409   4.270  18.553  0.00  0.00    +0.000 A 
ATOM     21  C   UNL     1       2.613   4.830  17.996  0.00  0.00    +0.000 A 
ATOM     22  H   UNL     1       6.522   6.330  16.365  0.00  0.00    +0.000 HD
ATOM     23  H   UNL     1       6.679   4.645  16.034  0.00  0.00    +0.000 HD
ENDBRANCH   7  11
BRANCH   1  29
ATOM     24  C   UNL     1      -0.254  15.456  22.365  0.00  0.00    +0.000 C 
ATOM     25  C   UNL     1      -0.742  14.049  22.542  0.00  0.00    +0.000 A 
ATOM     26  C   UNL     1      -1.912  13.796  23.265  0.00  0.00    +0.000 A 
ATOM     27  C   UNL     1      -2.362  12.491  23.429  0.00  0.00    +0.000 A 
ATOM     28  C   UNL     1      -1.655  11.430  22.863  0.00  0.00    +0.000 A 
ATOM     29  C   UNL     1      -0.497  11.656  22.114  0.00  0.00    +0.000 A 
ATOM     30  C   UNL     1      -0.033  12.973  21.976  0.00  0.00    +0.000 A 
ENDBRANCH   1  29
TORSDOF 2
ENDMDL
MODEL 5
REMARK VINA RESULT:      -8.4      1.480      2.242
REMARK  Name = 
REMARK  3 active torsions:
REMARK  status: ('A' for Active; 'I' for Inactive)
REMARK    1  A    between atoms: C_1  and  C_2
REMARK    2  A    between atoms: C_6  and  N_7
REMARK    3  A    between atoms: N_13  and  C_14
REMARK                            x       y       z     vdW  Elec       q    Type
REMARK                         _______ _______ _______ _____ _____    ______ ____
ROOT
ATOM      1  N   UNL     1      -0.903  11.333  22.488  0.00  0.00    +0.000 N 
ATOM      2  C   UNL     1      -0.855  11.047  21.141  0.00  0.00    +0.000 C 
ATOM      3  O   UNL     1      -1.481  11.662  20.280  0.00  0.00    +0.000 OA
ATOM      4  N   UNL     1       0.045  10.050  20.778  0.00  0.00    +0.000 N 
ATOM      5  C   UNL     1       0.201   9.860  19.333  0.00  0.00    +0.000 C 
ATOM      6  C   UNL     1       1.562   9.268  18.973  0.00  0.00    +0.000 C 
ATOM      7  N   UNL     1       1.774   8.031  19.715  0.00  0.00    +0.000 N 
ATOM      8  C   UNL     1       1.619   8.116  21.175  0.00  0.00    +0.000 C 
ATOM      9  C   UNL     1       0.298   8.828  21.566  0.00  0.00    +0.000 C 
ATOM     10  H   UNL     1      -0.111  11.023  23.029  0.00  0.00    +0.000 HD
ENDROOT
BRANCH   7  11
ATOM     11  C   UNL     1       2.374   6.925  19.150  0.00  0.00    +0.000 A 
ATOM     12  N   UNL     1       3.232   7.142  18.118  0.00  0.00    +0.000 NA
ATOM     13  C   UNL     1       3.944   6.134  17.604  0.00  0.00    +0.000 A 
ATOM     14  N   UNL     1       4.840   6.450  16.598  0.00  0.00    +0.000 N 
ATOM     15  N   UNL     1       3.921   4.872  18.005  0.00  0.00    +0.000 NA
ATOM     16  C   UNL     1       3.034   4.647  18.984  0.00  0.00    +0.000 A 
ATOM     17  S   UNL     1       2.828   3.070  19.608  0.00  0.00    +0.000 S 
ATOM     18  C   UNL     1       1.618   3.598  20.654  0.00  0.00    +0.000 A 
ATOM     19  F   UNL     1       0.969   2.814  21.477  0.00  0.00    +0.000 F 
ATOM     20  C   UNL     1       1.368   4.942  20.560  0.00  0.00    +0.000 A 
ATOM     21  C   UNL     1       2.220   5.589  19.597  0.00  0.00    +0.000 A 
ATOM     22  H   UNL     1       5.112   7.421  16.686  0.00  0.00    +0.000 HD
ATOM     23  H   UNL     1       5.583   5.765  16.583  0.00  0.00    +0.000 HD
ENDBRANCH   7  11
BRANCH   1  29
ATOM     24  C   UNL     1      -1.286  16.029  23.989  0.00  0.00    +0.000 C 
ATOM     25  C   UNL     1      -1.897  14.673  23.799  0.00  0.00    +0.000 A 
ATOM     26  C   UNL     1      -3.238  14.453  24.133  0.00  0.00    +0.000 A 
ATOM     27  C   UNL     1      -3.803  13.195  23.956  0.00  0.00    +0.000 A 
ATOM     28  C   UNL     1      -3.039  12.151  23.436  0.00  0.00    +0.000 A 
ATOM     29  C   UNL     1      -1.704  12.349  23.071  0.00  0.00    +0.000 A 
ATOM     30  C   UNL     1      -1.133  13.613  23.276  0.00  0.00    +0.000 A 
ENDBRANCH   1  29
TORSDOF 2
ENDMDL
MODEL 6
REMARK VINA RESULT:      -8.3      4.390      9.589
REMARK  Name = 
REMARK  3 active torsions:
REMARK  status: ('A' for Active; 'I' for Inactive)
REMARK    1  A    between atoms: C_1  and  C_2
REMARK    2  A    between atoms: C_6  and  N_7
REMARK    3  A    between atoms: N_13  and  C_14
REMARK                            x       y       z     vdW  Elec       q    Type
REMARK                         _______ _______ _______ _____ _____    ______ ____
ROOT
ATOM      1  N   UNL     1       1.879   6.716  20.522  0.00  0.00    +0.000 N 
ATOM      2  C   UNL     1       1.760   7.909  19.843  0.00  0.00    +0.000 C 
ATOM      3  O   UNL     1       2.113   8.081  18.677  0.00  0.00    +0.000 OA
ATOM      4  N   UNL     1       1.109   8.924  20.537  0.00  0.00    +0.000 N 
ATOM      5  C   UNL     1       0.852  10.136  19.754  0.00  0.00    +0.000 C 
ATOM      6  C   UNL     1      -0.345  10.923  20.285  0.00  0.00    +0.000 C 
ATOM      7  N   UNL     1      -0.153  11.214  21.701  0.00  0.00    +0.000 N 
ATOM      8  C   UNL     1       0.131  10.062  22.568  0.00  0.00    +0.000 C 
ATOM      9  C   UNL     1       1.262   9.176  21.983  0.00  0.00    +0.000 C 
ATOM     10  H   UNL     1       1.255   6.595  21.304  0.00  0.00    +0.000 HD
ENDROOT
BRANCH   7  11
ATOM     11  C   UNL     1      -0.510  12.425  22.259  0.00  0.00    +0.000 A 
ATOM     12  N   UNL     1       0.313  13.482  22.029  0.00  0.00    +0.000 NA
ATOM     13  C   UNL     1      -0.032  14.710  22.432  0.00  0.00    +0.000 A 
ATOM     14  N   UNL     1       0.832  15.740  22.104  0.00  0.00    +0.000 N 
ATOM     15  N   UNL     1      -1.148  15.046  23.060  0.00  0.00    +0.000 NA
ATOM     16  C   UNL     1      -1.933  13.995  23.337  0.00  0.00    +0.000 A 
ATOM     17  S   UNL     1      -3.401  14.221  24.181  0.00  0.00    +0.000 S 
ATOM     18  C   UNL     1      -3.714  12.566  24.163  0.00  0.00    +0.000 A 
ATOM     19  F   UNL     1      -4.769  12.015  24.706  0.00  0.00    +0.000 F 
ATOM     20  C   UNL     1      -2.745  11.838  23.522  0.00  0.00    +0.000 A 
ATOM     21  C   UNL     1      -1.695  12.672  22.997  0.00  0.00    +0.000 A 
ATOM     22  H   UNL     1       1.364  15.483  21.284  0.00  0.00    +0.000 HD
ATOM     23  H   UNL     1       0.317  16.609  22.064  0.00  0.00    +0.000 HD
ENDBRANCH   7  11
BRANCH   1  29
ATOM     24  C   UNL     1       1.202   2.127  18.807  0.00  0.00    +0.000 C 
ATOM     25  C   UNL     1       2.117   3.273  19.125  0.00  0.00    +0.000 A 
ATOM     26  C   UNL     1       3.482   3.184  18.835  0.00  0.00    +0.000 A 
ATOM     27  C   UNL     1       4.329   4.247  19.131  0.00  0.00    +0.000 A 
ATOM     28  C   UNL     1       3.818   5.409  19.709  0.00  0.00    +0.000 A 
ATOM     29  C   UNL     1       2.453   5.535  19.985  0.00  0.00    +0.000 A 
ATOM     30  C   UNL     1       1.610   4.449  19.709  0.00  0.00    +0.000 A 
ENDBRANCH   1  29
TORSDOF 2
ENDMDL
MODEL 7
REMARK VINA RESULT:      -8.3      1.314      1.674
REMARK  Name = 
REMARK  3 active torsions:
REMARK  status: ('A' for Active; 'I' for Inactive)
REMARK    1  A    between atoms: C_1  and  C_2
REMARK    2  A    between atoms: C_6  and  N_7
REMARK    3  A    between atoms: N_13  and  C_14
REMARK                            x       y       z     vdW  Elec       q    Type
REMARK                         _______ _______ _______ _____ _____    ______ ____
ROOT
ATOM      1  N   UNL     1      -0.368  11.338  21.370  0.00  0.00    +0.000 N 
ATOM      2  C   UNL     1       0.408  10.304  21.844  0.00  0.00    +0.000 C 
ATOM      3  O   UNL     1       0.621  10.087  23.036  0.00  0.00    +0.000 OA
ATOM      4  N   UNL     1       0.883   9.426  20.874  0.00  0.00    +0.000 N 
ATOM      5  C   UNL     1       1.577   8.247  21.401  0.00  0.00    +0.000 C 
ATOM      6  C   UNL     1       1.519   7.064  20.436  0.00  0.00    +0.000 C 
ATOM      7  N   UNL     1       2.032   7.467  19.132  0.00  0.00    +0.000 N 
ATOM      8  C   UNL     1       1.410   8.656  18.528  0.00  0.00    +0.000 C 
ATOM      9  C   UNL     1       1.345   9.835  19.534  0.00  0.00    +0.000 C 
ATOM     10  H   UNL     1      -0.754  11.208  20.448  0.00  0.00    +0.000 HD
ENDROOT
BRANCH   7  11
ATOM     11  C   UNL     1       2.823   6.639  18.363  0.00  0.00    +0.000 A 
ATOM     12  N   UNL     1       3.909   7.196  17.765  0.00  0.00    +0.000 NA
ATOM     13  C   UNL     1       4.789   6.432  17.109  0.00  0.00    +0.000 A 
ATOM     14  N   UNL     1       5.899   7.069  16.582  0.00  0.00    +0.000 N 
ATOM     15  N   UNL     1       4.734   5.117  16.966  0.00  0.00    +0.000 NA
ATOM     16  C   UNL     1       3.634   4.574  17.507  0.00  0.00    +0.000 A 
ATOM     17  S   UNL     1       3.363   2.891  17.391  0.00  0.00    +0.000 S 
ATOM     18  C   UNL     1       1.890   3.032  18.198  0.00  0.00    +0.000 A 
ATOM     19  F   UNL     1       1.094   2.024  18.448  0.00  0.00    +0.000 F 
ATOM     20  C   UNL     1       1.597   4.318  18.571  0.00  0.00    +0.000 A 
ATOM     21  C   UNL     1       2.635   5.244  18.198  0.00  0.00    +0.000 A 
ATOM     22  H   UNL     1       6.081   7.913  17.108  0.00  0.00    +0.000 HD
ATOM     23  H   UNL     1       6.658   6.406  16.500  0.00  0.00    +0.000 HD
ENDBRANCH   7  11
BRANCH   1  29
ATOM     24  C   UNL     1      -4.106  12.492  24.396  0.00  0.00    +0.000 C 
ATOM     25  C   UNL     1      -2.840  12.878  23.690  0.00  0.00    +0.000 A 
ATOM     26  C   UNL     1      -2.281  14.144  23.892  0.00  0.00    +0.000 A 
ATOM     27  C   UNL     1      -1.107  14.501  23.237  0.00  0.00    +0.000 A 
ATOM     28  C   UNL     1      -0.478  13.594  22.384  0.00  0.00    +0.000 A 
ATOM     29  C   UNL     1      -1.001  12.313  22.185  0.00  0.00    +0.000 A 
ATOM     30  C   UNL     1      -2.199  11.970  22.827  0.00  0.00    +0.000 A 
ENDBRANCH   1  29
TORSDOF 2
ENDMDL
MODEL 8
REMARK VINA RESULT:      -8.1      1.931      2.150
REMARK  Name = 
REMARK  3 active torsions:
REMARK  status: ('A' for Active; 'I' for Inactive)
REMARK    1  A    between atoms: C_1  and  C_2
REMARK    2  A    between atoms: C_6  and  N_7
REMARK    3  A    between atoms: N_13  and  C_14
REMARK                            x       y       z     vdW  Elec       q    Type
REMARK                         _______ _______ _______ _____ _____    ______ ____
ROOT
ATOM      1  N   UNL     1      -0.028  11.275  19.757  0.00  0.00    +0.000 N 
ATOM      2  C   UNL     1       0.530  10.451  20.710  0.00  0.00    +0.000 C 
ATOM      3  O   UNL     1       0.486  10.664  21.920  0.00  0.00    +0.000 OA
ATOM      4  N   UNL     1       1.086   9.272  20.223  0.00  0.00    +0.000 N 
ATOM      5  C   UNL     1       1.537   8.335  21.255  0.00  0.00    +0.000 C 
ATOM      6  C   UNL     1       1.540   6.889  20.761  0.00  0.00    +0.000 C 
ATOM      7  N   UNL     1       2.333   6.788  19.541  0.00  0.00    +0.000 N 
ATOM      8  C   UNL     1       1.967   7.704  18.451  0.00  0.00    +0.000 C 
ATOM      9  C   UNL     1       1.836   9.165  18.957  0.00  0.00    +0.000 C 
ATOM     10  H   UNL     1      -0.241  10.839  18.874  0.00  0.00    +0.000 HD
ENDROOT
BRANCH   7  11
ATOM     11  C   UNL     1       3.164   5.716  19.289  0.00  0.00    +0.000 A 
ATOM     12  N   UNL     1       4.504   5.940  19.351  0.00  0.00    +0.000 NA
ATOM     13  C   UNL     1       5.367   4.925  19.242  0.00  0.00    +0.000 A 
ATOM     14  N   UNL     1       6.710   5.230  19.377  0.00  0.00    +0.000 N 
ATOM     15  N   UNL     1       5.061   3.647  19.080  0.00  0.00    +0.000 NA
ATOM     16  C   UNL     1       3.743   3.433  18.963  0.00  0.00    +0.000 A 
ATOM     17  S   UNL     1       3.151   1.851  18.706  0.00  0.00    +0.000 S 
ATOM     18  C   UNL     1       1.564   2.413  18.629  0.00  0.00    +0.000 A 
ATOM     19  F   UNL     1       0.526   1.645  18.418  0.00  0.00    +0.000 F 
ATOM     20  C   UNL     1       1.460   3.768  18.806  0.00  0.00    +0.000 A 
ATOM     21  C   UNL     1       2.739   4.387  19.037  0.00  0.00    +0.000 A 
ATOM     22  H   UNL     1       6.808   6.072  19.928  0.00  0.00    +0.000 HD
ATOM     23  H   UNL     1       7.209   4.411  19.696  0.00  0.00    +0.000 HD
ENDBRANCH   7  11
BRANCH   1  29
ATOM     24  C   UNL     1      -4.241  13.568  20.959  0.00  0.00    +0.000 C 
ATOM     25  C   UNL     1      -2.776  13.626  20.642  0.00  0.00    +0.000 A 
ATOM     26  C   UNL     1      -2.095  14.846  20.687  0.00  0.00    +0.000 A 
ATOM     27  C   UNL     1      -0.737  14.898  20.393  0.00  0.00    +0.000 A 
ATOM     28  C   UNL     1      -0.047  13.732  20.062  0.00  0.00    +0.000 A 
ATOM     29  C   UNL     1      -0.698  12.495  20.035  0.00  0.00    +0.000 A 
ATOM     30  C   UNL     1      -2.073  12.454  20.306  0.00  0.00    +0.000 A 
ENDBRANCH   1  29
TORSDOF 2
ENDMDL
MODEL 9
REMARK VINA RESULT:      -8.1      4.489      9.692
REMARK  Name = 
REMARK  3 active torsions:
REMARK  status: ('A' for Active; 'I' for Inactive)
REMARK    1  A    between atoms: C_1  and  C_2
REMARK    2  A    between atoms: C_6  and  N_7
REMARK    3  A    between atoms: N_13  and  C_14
REMARK                            x       y       z     vdW  Elec       q    Type
REMARK                         _______ _______ _______ _____ _____    ______ ____
ROOT
ATOM      1  N   UNL     1       1.779   6.573  20.840  0.00  0.00    +0.000 N 
ATOM      2  C   UNL     1       1.696   7.739  20.111  0.00  0.00    +0.000 C 
ATOM      3  O   UNL     1       2.080   7.858  18.949  0.00  0.00    +0.000 OA
ATOM      4  N   UNL     1       1.047   8.792  20.748  0.00  0.00    +0.000 N 
ATOM      5  C   UNL     1       0.829   9.975  19.911  0.00  0.00    +0.000 C 
ATOM      6  C   UNL     1      -0.366  10.802  20.380  0.00  0.00    +0.000 C 
ATOM      7  N   UNL     1      -0.204  11.147  21.787  0.00  0.00    +0.000 N 
ATOM      8  C   UNL     1       0.040  10.026  22.707  0.00  0.00    +0.000 C 
ATOM      9  C   UNL     1       1.169   9.100  22.186  0.00  0.00    +0.000 C 
ATOM     10  H   UNL     1       1.133   6.493  21.611  0.00  0.00    +0.000 HD
ENDROOT
BRANCH   7  11
ATOM     11  C   UNL     1      -0.553  12.385  22.288  0.00  0.00    +0.000 A 
ATOM     12  N   UNL     1       0.279  13.424  22.014  0.00  0.00    +0.000 NA
ATOM     13  C   UNL     1      -0.057  14.672  22.358  0.00  0.00    +0.000 A 
ATOM     14  N   UNL     1       0.817  15.679  21.988  0.00  0.00    +0.000 N 
ATOM     15  N   UNL     1      -1.173  15.046  22.964  0.00  0.00    +0.000 NA
ATOM     16  C   UNL     1      -1.968  14.015  23.286  0.00  0.00    +0.000 A 
ATOM     17  S   UNL     1      -3.438  14.291  24.111  0.00  0.00    +0.000 S 
ATOM     18  C   UNL     1      -3.764  12.639  24.167  0.00  0.00    +0.000 A 
ATOM     19  F   UNL     1      -4.826  12.122  24.729  0.00  0.00    +0.000 F 
ATOM     20  C   UNL     1      -2.799  11.875  23.565  0.00  0.00    +0.000 A 
ATOM     21  C   UNL     1      -1.739  12.675  23.008  0.00  0.00    +0.000 A 
ATOM     22  H   UNL     1       1.350  15.380  21.182  0.00  0.00    +0.000 HD
ATOM     23  H   UNL     1       0.309  16.549  21.905  0.00  0.00    +0.000 HD
ENDBRANCH   7  11
BRANCH   1  29
ATOM     24  C   UNL     1       5.570   4.299  18.624  0.00  0.00    +0.000 C 
ATOM     25  C   UNL     1       4.224   4.237  19.283  0.00  0.00    +0.000 A 
ATOM     26  C   UNL     1       3.591   3.004  19.473  0.00  0.00    +0.000 A 
ATOM     27  C   UNL     1       2.343   2.948  20.083  0.00  0.00    +0.000 A 
ATOM     28  C   UNL     1       1.723   4.119  20.519  0.00  0.00    +0.000 A 
ATOM     29  C   UNL     1       2.345   5.361  20.366  0.00  0.00    +0.000 A 
ATOM     30  C   UNL     1       3.591   5.413  19.724  0.00  0.00    +0.000 A 
ENDBRANCH   1  29
TORSDOF 2
ENDMDL
