MODEL 1
REMARK VINA RESULT:      -7.2      0.000      0.000
REMARK  Name = 
REMARK  4 active torsions:
REMARK  status: ('A' for Active; 'I' for Inactive)
REMARK    1  A    between atoms: N_1  and  C_2
REMARK    2  A    between atoms: C_2  and  C_3
REMARK    3  A    between atoms: C_6  and  S_7
REMARK    4  A    between atoms: S_7  and  N_10
REMARK                            x       y       z     vdW  Elec       q    Type
REMARK                         _______ _______ _______ _____ _____    ______ ____
ROOT
ATOM      1  S   UNL     1       3.300   2.907  17.592  0.00  0.00    +0.000 S 
ATOM      2  O   UNL     1       2.594   3.191  16.357  0.00  0.00    +0.000 OA
ATOM      3  O   UNL     1       3.699   1.551  17.910  0.00  0.00    +0.000 OA
ENDROOT
BRANCH   1   4
ATOM      4  N   UNL     1       2.454   3.595  18.882  0.00  0.00    +0.000 N 
ATOM      5  C   UNL     1       1.769   2.701  19.836  0.00  0.00    +0.000 C 
ATOM      6  C   UNL     1       2.219   3.095  21.233  0.00  0.00    +0.000 C 
ATOM      7  C   UNL     1       1.800   4.530  21.529  0.00  0.00    +0.000 C 
ATOM      8  C   UNL     1       2.021   5.479  20.375  0.00  0.00    +0.000 A 
ATOM      9  C   UNL     1       1.897   6.858  20.616  0.00  0.00    +0.000 A 
ATOM     10  C   UNL     1       2.017   7.771  19.572  0.00  0.00    +0.000 A 
ATOM     11  C   UNL     1       2.233   7.313  18.280  0.00  0.00    +0.000 A 
ATOM     12  C   UNL     1       2.357   5.941  18.025  0.00  0.00    +0.000 A 
ATOM     13  C   UNL     1       2.284   5.014  19.069  0.00  0.00    +0.000 A 
ENDBRANCH   1   4
BRANCH   1  17
ATOM     14  C   UNL     1       6.920   4.983  18.052  0.00  0.00    +0.000 A 
ATOM     15  C   UNL     1       6.816   4.784  16.689  0.00  0.00    +0.000 A 
ATOM     16  C   UNL     1       5.615   4.107  16.330  0.00  0.00    +0.000 A 
ATOM     17  C   UNL     1       4.848   3.783  17.431  0.00  0.00    +0.000 A 
ATOM     18  S   UNL     1       5.556   4.358  18.878  0.00  0.00    +0.000 S 
BRANCH  14  19
ATOM     19  C   UNL     1       8.033   5.632  18.817  0.00  0.00    +0.000 C 
BRANCH  19  20
ATOM     20  N   UNL     1       7.858   5.429  20.250  0.00  0.00    +0.000 NA
ATOM     21  H   UNL     1       7.198   6.119  20.602  0.00  0.00    +0.000 HD
ATOM     22  H   UNL     1       8.744   5.618  20.718  0.00  0.00    +0.000 HD
ENDBRANCH  19  20
ENDBRANCH  14  19
ENDBRANCH   1  17
TORSDOF 4
ENDMDL
MODEL 2
REMARK VINA RESULT:      -6.7      2.229      2.682
REMARK  Name = 
REMARK  4 active torsions:
REMARK  status: ('A' for Active; 'I' for Inactive)
REMARK    1  A    between atoms: N_1  and  C_2
REMARK    2  A    between atoms: C_2  and  C_3
REMARK    3  A    between atoms: C_6  and  S_7
REMARK    4  A    between atoms: S_7  and  N_10
REMARK                            x       y       z     vdW  Elec       q    Type
REMARK                         _______ _______ _______ _____ _____    ______ ____
ROOT
ATOM      1  S   UNL     1       5.372   4.628  16.527  0.00  0.00    +0.000 S 
ATOM      2  O   UNL     1       4.777   5.477  15.513  0.00  0.00    +0.000 OA
ATOM      3  O   UNL     1       6.166   3.478  16.143  0.00  0.00    +0.000 OA
ENDROOT
BRANCH   1   4
ATOM      4  N   UNL     1       4.182   4.183  17.641  0.00  0.00    +0.000 N 
ATOM      5  C   UNL     1       3.836   2.755  17.774  0.00  0.00    +0.000 C 
ATOM      6  C   UNL     1       3.927   2.399  19.249  0.00  0.00    +0.000 C 
ATOM      7  C   UNL     1       2.917   3.217  20.045  0.00  0.00    +0.000 C 
ATOM      8  C   UNL     1       2.844   4.667  19.626  0.00  0.00    +0.000 A 
ATOM      9  C   UNL     1       2.129   5.559  20.444  0.00  0.00    +0.000 A 
ATOM     10  C   UNL     1       1.967   6.888  20.067  0.00  0.00    +0.000 A 
ATOM     11  C   UNL     1       2.493   7.329  18.860  0.00  0.00    +0.000 A 
ATOM     12  C   UNL     1       3.206   6.451  18.034  0.00  0.00    +0.000 A 
ATOM     13  C   UNL     1       3.415   5.123  18.420  0.00  0.00    +0.000 A 
ENDBRANCH   1   4
BRANCH   1  17
ATOM     14  C   UNL     1       7.810   7.714  17.996  0.00  0.00    +0.000 A 
ATOM     15  C   UNL     1       8.104   6.635  18.808  0.00  0.00    +0.000 A 
ATOM     16  C   UNL     1       7.381   5.466  18.438  0.00  0.00    +0.000 A 
ATOM     17  C   UNL     1       6.534   5.689  17.372  0.00  0.00    +0.000 A 
ATOM     18  S   UNL     1       6.672   7.291  16.790  0.00  0.00    +0.000 S 
BRANCH  14  19
ATOM     19  C   UNL     1       8.343   9.112  18.075  0.00  0.00    +0.000 C 
BRANCH  19  20
ATOM     20  N   UNL     1       9.086   9.310  19.313  0.00  0.00    +0.000 NA
ATOM     21  H   UNL     1       9.907   9.877  19.118  0.00  0.00    +0.000 HD
ATOM     22  H   UNL     1       9.434   8.406  19.634  0.00  0.00    +0.000 HD
ENDBRANCH  19  20
ENDBRANCH  14  19
ENDBRANCH   1  17
TORSDOF 4
ENDMDL
MODEL 3
REMARK VINA RESULT:      -6.7      2.491      3.285
REMARK  Name = 
REMARK  4 active torsions:
REMARK  status: ('A' for Active; 'I' for Inactive)
REMARK    1  A    between atoms: N_1  and  C_2
REMARK    2  A    between atoms: C_2  and  C_3
REMARK    3  A    between atoms: C_6  and  S_7
REMARK    4  A    between atoms: S_7  and  N_10
REMARK                            x       y       z     vdW  Elec       q    Type
REMARK                         _______ _______ _______ _____ _____    ______ ____
ROOT
ATOM      1  S   UNL     1       5.506   4.508  19.102  0.00  0.00    +0.000 S 
ATOM      2  O   UNL     1       5.598   3.102  19.446  0.00  0.00    +0.000 OA
ATOM      3  O   UNL     1       6.402   5.470  19.712  0.00  0.00    +0.000 OA
ENDROOT
BRANCH   1   4
ATOM      4  N   UNL     1       3.900   5.010  19.260  0.00  0.00    +0.000 N 
ATOM      5  C   UNL     1       2.920   4.072  19.842  0.00  0.00    +0.000 C 
ATOM      6  C   UNL     1       2.204   4.801  20.967  0.00  0.00    +0.000 C 
ATOM      7  C   UNL     1       1.451   6.004  20.412  0.00  0.00    +0.000 C 
ATOM      8  C   UNL     1       2.233   6.791  19.386  0.00  0.00    +0.000 A 
ATOM      9  C   UNL     1       1.735   8.044  18.990  0.00  0.00    +0.000 A 
ATOM     10  C   UNL     1       2.376   8.776  17.995  0.00  0.00    +0.000 A 
ATOM     11  C   UNL     1       3.500   8.251  17.372  0.00  0.00    +0.000 A 
ATOM     12  C   UNL     1       4.006   7.003  17.755  0.00  0.00    +0.000 A 
ATOM     13  C   UNL     1       3.400   6.275  18.784  0.00  0.00    +0.000 A 
ENDBRANCH   1   4
BRANCH   1  17
ATOM     14  C   UNL     1       5.756   4.264  14.918  0.00  0.00    +0.000 A 
ATOM     15  C   UNL     1       6.880   4.981  15.284  0.00  0.00    +0.000 A 
ATOM     16  C   UNL     1       6.984   5.145  16.694  0.00  0.00    +0.000 A 
ATOM     17  C   UNL     1       5.924   4.572  17.367  0.00  0.00    +0.000 A 
ATOM     18  S   UNL     1       4.850   3.788  16.291  0.00  0.00    +0.000 S 
BRANCH  14  19
ATOM     19  C   UNL     1       5.287   3.903  13.542  0.00  0.00    +0.000 C 
BRANCH  19  20
ATOM     20  N   UNL     1       6.319   3.166  12.825  0.00  0.00    +0.000 NA
ATOM     21  H   UNL     1       6.809   3.805  12.203  0.00  0.00    +0.000 HD
ATOM     22  H   UNL     1       5.870   2.474  12.225  0.00  0.00    +0.000 HD
ENDBRANCH  19  20
ENDBRANCH  14  19
ENDBRANCH   1  17
TORSDOF 4
ENDMDL
MODEL 4
REMARK VINA RESULT:      -6.7      1.972      5.285
REMARK  Name = 
REMARK  4 active torsions:
REMARK  status: ('A' for Active; 'I' for Inactive)
REMARK    1  A    between atoms: N_1  and  C_2
REMARK    2  A    between atoms: C_2  and  C_3
REMARK    3  A    between atoms: C_6  and  S_7
REMARK    4  A    between atoms: S_7  and  N_10
REMARK                            x       y       z     vdW  Elec       q    Type
REMARK                         _______ _______ _______ _____ _____    ______ ____
ROOT
ATOM      1  S   UNL     1       4.252   3.182  18.759  0.00  0.00    +0.000 S 
ATOM      2  O   UNL     1       5.101   2.662  19.813  0.00  0.00    +0.000 OA
ATOM      3  O   UNL     1       3.319   2.310  18.074  0.00  0.00    +0.000 OA
ENDROOT
BRANCH   1   4
ATOM      4  N   UNL     1       5.206   4.022  17.647  0.00  0.00    +0.000 N 
ATOM      5  C   UNL     1       5.065   3.707  16.212  0.00  0.00    +0.000 C 
ATOM      6  C   UNL     1       4.831   5.016  15.478  0.00  0.00    +0.000 C 
ATOM      7  C   UNL     1       6.034   5.935  15.655  0.00  0.00    +0.000 C 
ATOM      8  C   UNL     1       6.586   5.951  17.061  0.00  0.00    +0.000 A 
ATOM      9  C   UNL     1       7.534   6.935  17.390  0.00  0.00    +0.000 A 
ATOM     10  C   UNL     1       8.129   6.949  18.649  0.00  0.00    +0.000 A 
ATOM     11  C   UNL     1       7.802   5.967  19.574  0.00  0.00    +0.000 A 
ATOM     12  C   UNL     1       6.860   4.980  19.258  0.00  0.00    +0.000 A 
ATOM     13  C   UNL     1       6.221   4.978  18.015  0.00  0.00    +0.000 A 
ENDBRANCH   1   4
BRANCH   1  17
ATOM     14  C   UNL     1       2.108   6.521  20.132  0.00  0.00    +0.000 A 
ATOM     15  C   UNL     1       1.633   5.474  20.901  0.00  0.00    +0.000 A 
ATOM     16  C   UNL     1       2.275   4.241  20.593  0.00  0.00    +0.000 A 
ATOM     17  C   UNL     1       3.202   4.373  19.579  0.00  0.00    +0.000 A 
ATOM     18  S   UNL     1       3.332   5.996  19.057  0.00  0.00    +0.000 S 
BRANCH  14  19
ATOM     19  C   UNL     1       1.675   7.955  20.142  0.00  0.00    +0.000 C 
BRANCH  19  20
ATOM     20  N   UNL     1       1.550   8.444  21.509  0.00  0.00    +0.000 NA
ATOM     21  H   UNL     1       2.349   8.121  22.050  0.00  0.00    +0.000 HD
ATOM     22  H   UNL     1       0.727   8.019  21.935  0.00  0.00    +0.000 HD
ENDBRANCH  19  20
ENDBRANCH  14  19
ENDBRANCH   1  17
TORSDOF 4
ENDMDL
MODEL 5
REMARK VINA RESULT:      -6.7      2.308      2.862
REMARK  Name = 
REMARK  4 active torsions:
REMARK  status: ('A' for Active; 'I' for Inactive)
REMARK    1  A    between atoms: N_1  and  C_2
REMARK    2  A    between atoms: C_2  and  C_3
REMARK    3  A    between atoms: C_6  and  S_7
REMARK    4  A    between atoms: S_7  and  N_10
REMARK                            x       y       z     vdW  Elec       q    Type
REMARK                         _______ _______ _______ _____ _____    ______ ____
ROOT
ATOM      1  S   UNL     1       5.242   4.232  18.969  0.00  0.00    +0.000 S 
ATOM      2  O   UNL     1       5.339   2.844  19.377  0.00  0.00    +0.000 OA
ATOM      3  O   UNL     1       6.260   5.184  19.367  0.00  0.00    +0.000 OA
ENDROOT
BRANCH   1   4
ATOM      4  N   UNL     1       3.703   4.814  19.354  0.00  0.00    +0.000 N 
ATOM      5  C   UNL     1       2.761   3.917  20.051  0.00  0.00    +0.000 C 
ATOM      6  C   UNL     1       2.247   4.657  21.274  0.00  0.00    +0.000 C 
ATOM      7  C   UNL     1       1.493   5.910  20.845  0.00  0.00    +0.000 C 
ATOM      8  C   UNL     1       2.169   6.677  19.733  0.00  0.00    +0.000 A 
ATOM      9  C   UNL     1       1.692   7.963  19.427  0.00  0.00    +0.000 A 
ATOM     10  C   UNL     1       2.230   8.682  18.364  0.00  0.00    +0.000 A 
ATOM     11  C   UNL     1       3.228   8.112  17.584  0.00  0.00    +0.000 A 
ATOM     12  C   UNL     1       3.712   6.831  17.877  0.00  0.00    +0.000 A 
ATOM     13  C   UNL     1       3.212   6.113  18.968  0.00  0.00    +0.000 A 
ENDBRANCH   1   4
BRANCH   1  17
ATOM     14  C   UNL     1       6.342   4.350  14.919  0.00  0.00    +0.000 A 
ATOM     15  C   UNL     1       5.039   3.891  14.902  0.00  0.00    +0.000 A 
ATOM     16  C   UNL     1       4.476   3.809  16.208  0.00  0.00    +0.000 A 
ATOM     17  C   UNL     1       5.372   4.183  17.188  0.00  0.00    +0.000 A 
ATOM     18  S   UNL     1       6.861   4.689  16.515  0.00  0.00    +0.000 S 
BRANCH  14  19
ATOM     19  C   UNL     1       7.275   4.551  13.764  0.00  0.00    +0.000 C 
BRANCH  19  20
ATOM     20  N   UNL     1       8.166   5.677  14.013  0.00  0.00    +0.000 NA
ATOM     21  H   UNL     1       9.083   5.320  14.273  0.00  0.00    +0.000 HD
ATOM     22  H   UNL     1       7.822   6.193  14.823  0.00  0.00    +0.000 HD
ENDBRANCH  19  20
ENDBRANCH  14  19
ENDBRANCH   1  17
TORSDOF 4
ENDMDL
MODEL 6
REMARK VINA RESULT:      -6.6      3.487      4.464
REMARK  Name = 
REMARK  4 active torsions:
REMARK  status: ('A' for Active; 'I' for Inactive)
REMARK    1  A    between atoms: N_1  and  C_2
REMARK    2  A    between atoms: C_2  and  C_3
REMARK    3  A    between atoms: C_6  and  S_7
REMARK    4  A    between atoms: S_7  and  N_10
REMARK                            x       y       z     vdW  Elec       q    Type
REMARK                         _______ _______ _______ _____ _____    ______ ____
ROOT
ATOM      1  S   UNL     1       6.979   5.282  16.809  0.00  0.00    +0.000 S 
ATOM      2  O   UNL     1       7.999   4.400  17.346  0.00  0.00    +0.000 OA
ATOM      3  O   UNL     1       7.193   6.715  16.782  0.00  0.00    +0.000 OA
ENDROOT
BRANCH   1   4
ATOM      4  N   UNL     1       5.498   4.916  17.535  0.00  0.00    +0.000 N 
ATOM      5  C   UNL     1       5.196   3.508  17.858  0.00  0.00    +0.000 C 
ATOM      6  C   UNL     1       4.782   3.454  19.319  0.00  0.00    +0.000 C 
ATOM      7  C   UNL     1       3.519   4.281  19.533  0.00  0.00    +0.000 C 
ATOM      8  C   UNL     1       3.527   5.603  18.803  0.00  0.00    +0.000 A 
ATOM      9  C   UNL     1       2.529   6.541  19.119  0.00  0.00    +0.000 A 
ATOM     10  C   UNL     1       2.445   7.744  18.425  0.00  0.00    +0.000 A 
ATOM     11  C   UNL     1       3.339   8.007  17.394  0.00  0.00    +0.000 A 
ATOM     12  C   UNL     1       4.337   7.080  17.068  0.00  0.00    +0.000 A 
ATOM     13  C   UNL     1       4.462   5.886  17.786  0.00  0.00    +0.000 A 
ENDBRANCH   1   4
BRANCH   1  17
ATOM     14  C   UNL     1       6.015   3.815  12.995  0.00  0.00    +0.000 A 
ATOM     15  C   UNL     1       7.125   4.610  12.781  0.00  0.00    +0.000 A 
ATOM     16  C   UNL     1       7.622   5.182  13.987  0.00  0.00    +0.000 A 
ATOM     17  C   UNL     1       6.863   4.832  15.085  0.00  0.00    +0.000 A 
ATOM     18  S   UNL     1       5.598   3.764  14.655  0.00  0.00    +0.000 S 
BRANCH  14  19
ATOM     19  C   UNL     1       5.198   3.064  11.989  0.00  0.00    +0.000 C 
BRANCH  19  20
ATOM     20  N   UNL     1       5.866   1.827  11.605  0.00  0.00    +0.000 NA
ATOM     21  H   UNL     1       6.061   1.852  10.607  0.00  0.00    +0.000 HD
ATOM     22  H   UNL     1       5.224   1.048  11.750  0.00  0.00    +0.000 HD
ENDBRANCH  19  20
ENDBRANCH  14  19
ENDBRANCH   1  17
TORSDOF 4
ENDMDL
MODEL 7
REMARK VINA RESULT:      -6.5      2.885      3.469
REMARK  Name = 
REMARK  4 active torsions:
REMARK  status: ('A' for Active; 'I' for Inactive)
REMARK    1  A    between atoms: N_1  and  C_2
REMARK    2  A    between atoms: C_2  and  C_3
REMARK    3  A    between atoms: C_6  and  S_7
REMARK    4  A    between atoms: S_7  and  N_10
REMARK                            x       y       z     vdW  Elec       q    Type
REMARK                         _______ _______ _______ _____ _____    ______ ____
ROOT
ATOM      1  S   UNL     1       6.049   5.050  18.206  0.00  0.00    +0.000 S 
ATOM      2  O   UNL     1       7.194   4.283  18.658  0.00  0.00    +0.000 OA
ATOM      3  O   UNL     1       6.028   6.491  18.359  0.00  0.00    +0.000 OA
ENDROOT
BRANCH   1   4
ATOM      4  N   UNL     1       4.641   4.366  18.843  0.00  0.00    +0.000 N 
ATOM      5  C   UNL     1       4.468   2.902  18.766  0.00  0.00    +0.000 C 
ATOM      6  C   UNL     1       4.139   2.407  20.164  0.00  0.00    +0.000 C 
ATOM      7  C   UNL     1       2.829   3.025  20.640  0.00  0.00    +0.000 C 
ATOM      8  C   UNL     1       2.694   4.493  20.312  0.00  0.00    +0.000 A 
ATOM      9  C   UNL     1       1.644   5.213  20.909  0.00  0.00    +0.000 A 
ATOM     10  C   UNL     1       1.430   6.549  20.584  0.00  0.00    +0.000 A 
ATOM     11  C   UNL     1       2.244   7.166  19.643  0.00  0.00    +0.000 A 
ATOM     12  C   UNL     1       3.292   6.461  19.040  0.00  0.00    +0.000 A 
ATOM     13  C   UNL     1       3.548   5.131  19.388  0.00  0.00    +0.000 A 
ENDBRANCH   1   4
BRANCH   1  17
ATOM     14  C   UNL     1       6.771   4.734  14.082  0.00  0.00    +0.000 A 
ATOM     15  C   UNL     1       5.485   4.253  14.239  0.00  0.00    +0.000 A 
ATOM     16  C   UNL     1       5.046   4.308  15.592  0.00  0.00    +0.000 A 
ATOM     17  C   UNL     1       6.017   4.805  16.437  0.00  0.00    +0.000 A 
ATOM     18  S   UNL     1       7.423   5.258  15.576  0.00  0.00    +0.000 S 
BRANCH  14  19
ATOM     19  C   UNL     1       7.588   4.821  12.830  0.00  0.00    +0.000 C 
BRANCH  19  20
ATOM     20  N   UNL     1       8.577   5.886  12.935  0.00  0.00    +0.000 NA
ATOM     21  H   UNL     1       9.499   5.501  12.742  0.00  0.00    +0.000 HD
ATOM     22  H   UNL     1       8.603   6.215  13.900  0.00  0.00    +0.000 HD
ENDBRANCH  19  20
ENDBRANCH  14  19
ENDBRANCH   1  17
TORSDOF 4
ENDMDL
MODEL 8
REMARK VINA RESULT:      -6.5      2.084      5.373
REMARK  Name = 
REMARK  4 active torsions:
REMARK  status: ('A' for Active; 'I' for Inactive)
REMARK    1  A    between atoms: N_1  and  C_2
REMARK    2  A    between atoms: C_2  and  C_3
REMARK    3  A    between atoms: C_6  and  S_7
REMARK    4  A    between atoms: S_7  and  N_10
REMARK                            x       y       z     vdW  Elec       q    Type
REMARK                         _______ _______ _______ _____ _____    ______ ____
ROOT
ATOM      1  S   UNL     1       3.313   3.903  18.537  0.00  0.00    +0.000 S 
ATOM      2  O   UNL     1       3.779   3.190  19.711  0.00  0.00    +0.000 OA
ATOM      3  O   UNL     1       2.213   3.378  17.752  0.00  0.00    +0.000 OA
ENDROOT
BRANCH   1   4
ATOM      4  N   UNL     1       4.635   4.254  17.545  0.00  0.00    +0.000 N 
ATOM      5  C   UNL     1       4.661   3.699  16.178  0.00  0.00    +0.000 C 
ATOM      6  C   UNL     1       4.918   4.853  15.222  0.00  0.00    +0.000 C 
ATOM      7  C   UNL     1       6.276   5.479  15.516  0.00  0.00    +0.000 C 
ATOM      8  C   UNL     1       6.563   5.647  16.989  0.00  0.00    +0.000 A 
ATOM      9  C   UNL     1       7.671   6.426  17.365  0.00  0.00    +0.000 A 
ATOM     10  C   UNL     1       8.023   6.552  18.706  0.00  0.00    +0.000 A 
ATOM     11  C   UNL     1       7.290   5.880  19.675  0.00  0.00    +0.000 A 
ATOM     12  C   UNL     1       6.185   5.099  19.314  0.00  0.00    +0.000 A 
ATOM     13  C   UNL     1       5.791   4.999  17.976  0.00  0.00    +0.000 A 
ENDBRANCH   1   4
BRANCH   1  17
ATOM     14  C   UNL     1       1.967   7.815  19.250  0.00  0.00    +0.000 A 
ATOM     15  C   UNL     1       1.755   7.160  20.449  0.00  0.00    +0.000 A 
ATOM     16  C   UNL     1       2.184   5.803  20.409  0.00  0.00    +0.000 A 
ATOM     17  C   UNL     1       2.687   5.450  19.173  0.00  0.00    +0.000 A 
ATOM     18  S   UNL     1       2.694   6.779  18.097  0.00  0.00    +0.000 S 
BRANCH  14  19
ATOM     19  C   UNL     1       1.633   9.230  18.890  0.00  0.00    +0.000 C 
BRANCH  19  20
ATOM     20  N   UNL     1       1.897   9.475  17.477  0.00  0.00    +0.000 NA
ATOM     21  H   UNL     1       2.403   8.681  17.093  0.00  0.00    +0.000 HD
ATOM     22  H   UNL     1       2.521  10.277  17.395  0.00  0.00    +0.000 HD
ENDBRANCH  19  20
ENDBRANCH  14  19
ENDBRANCH   1  17
TORSDOF 4
ENDMDL
MODEL 9
REMARK VINA RESULT:      -6.5      2.955      4.334
REMARK  Name = 
REMARK  4 active torsions:
REMARK  status: ('A' for Active; 'I' for Inactive)
REMARK    1  A    between atoms: N_1  and  C_2
REMARK    2  A    between atoms: C_2  and  C_3
REMARK    3  A    between atoms: C_6  and  S_7
REMARK    4  A    between atoms: S_7  and  N_10
REMARK                            x       y       z     vdW  Elec       q    Type
REMARK                         _______ _______ _______ _____ _____    ______ ____
ROOT
ATOM      1  S   UNL     1       6.011   5.264  18.095  0.00  0.00    +0.000 S 
ATOM      2  O   UNL     1       6.628   4.165  18.812  0.00  0.00    +0.000 OA
ATOM      3  O   UNL     1       6.587   6.593  18.158  0.00  0.00    +0.000 OA
ENDROOT
BRANCH   1   4
ATOM      4  N   UNL     1       4.365   5.313  18.472  0.00  0.00    +0.000 N 
ATOM      5  C   UNL     1       3.764   6.605  18.855  0.00  0.00    +0.000 C 
ATOM      6  C   UNL     1       2.541   6.816  17.978  0.00  0.00    +0.000 C 
ATOM      7  C   UNL     1       1.520   5.714  18.234  0.00  0.00    +0.000 C 
ATOM      8  C   UNL     1       2.129   4.337  18.353  0.00  0.00    +0.000 A 
ATOM      9  C   UNL     1       1.266   3.227  18.350  0.00  0.00    +0.000 A 
ATOM     10  C   UNL     1       1.768   1.942  18.531  0.00  0.00    +0.000 A 
ATOM     11  C   UNL     1       3.128   1.759  18.745  0.00  0.00    +0.000 A 
ATOM     12  C   UNL     1       3.998   2.856  18.753  0.00  0.00    +0.000 A 
ATOM     13  C   UNL     1       3.516   4.149  18.528  0.00  0.00    +0.000 A 
ENDBRANCH   1   4
BRANCH   1  17
ATOM     14  C   UNL     1       6.974   4.772  14.039  0.00  0.00    +0.000 A 
ATOM     15  C   UNL     1       5.995   3.824  14.272  0.00  0.00    +0.000 A 
ATOM     16  C   UNL     1       5.515   3.859  15.612  0.00  0.00    +0.000 A 
ATOM     17  C   UNL     1       6.159   4.813  16.374  0.00  0.00    +0.000 A 
ATOM     18  S   UNL     1       7.288   5.698  15.444  0.00  0.00    +0.000 S 
BRANCH  14  19
ATOM     19  C   UNL     1       7.735   5.035  12.775  0.00  0.00    +0.000 C 
BRANCH  19  20
ATOM     20  N   UNL     1       8.800   6.002  13.010  0.00  0.00    +0.000 NA
ATOM     21  H   UNL     1       9.678   5.614  12.673  0.00  0.00    +0.000 HD
ATOM     22  H   UNL     1       8.912   6.129  14.015  0.00  0.00    +0.000 HD
ENDBRANCH  19  20
ENDBRANCH  14  19
ENDBRANCH   1  17
TORSDOF 4
ENDMDL
