MODEL 1
REMARK VINA RESULT:      -7.2      0.000      0.000
REMARK  Name = 
REMARK  5 active torsions:
REMARK  status: ('A' for Active; 'I' for Inactive)
REMARK    1  A    between atoms: C_1  and  C_2
REMARK    2  A    between atoms: C_4  and  C_5
REMARK    3  A    between atoms: C_11  and  C_12
REMARK    4  A    between atoms: N_15  and  C_16
REMARK    5  A    between atoms: C_16  and  C_17
REMARK                            x       y       z     vdW  Elec       q    Type
REMARK                         _______ _______ _______ _____ _____    ______ ____
ROOT
ATOM      1  C   UNL     1       1.992   2.965  21.378  0.00  0.00    +0.000 C 
ATOM      2  C   UNL     1       2.595   4.007  20.486  0.00  0.00    +0.000 A 
ATOM      3  C   UNL     1       3.769   3.788  19.802  0.00  0.00    +0.000 A 
ATOM      4  C   UNL     1       4.231   4.830  19.017  0.00  0.00    +0.000 A 
ATOM      5  N   UNL     1       3.580   6.011  18.910  0.00  0.00    +0.000 NA
ATOM      6  C   UNL     1       2.441   6.129  19.596  0.00  0.00    +0.000 A 
ATOM      7  N   UNL     1       1.926   5.171  20.391  0.00  0.00    +0.000 NA
ENDROOT
BRANCH   6   8
ATOM      8  C   UNL     1       1.687   7.424  19.542  0.00  0.00    +0.000 C 
ATOM      9  C   UNL     1       1.619   8.098  20.906  0.00  0.00    +0.000 C 
ATOM     10  C   UNL     1       0.538   9.167  20.832  0.00  0.00    +0.000 C 
ATOM     11  N   UNL     1       0.773  10.170  19.774  0.00  0.00    +0.000 NA
ATOM     12  C   UNL     1       1.145   9.586  18.469  0.00  0.00    +0.000 C 
ATOM     13  C   UNL     1       2.197   8.472  18.552  0.00  0.00    +0.000 C 
BRANCH  11  14
ATOM     14  C   UNL     1      -0.439  11.012  19.597  0.00  0.00    +0.000 C 
BRANCH  14  15
ATOM     15  C   UNL     1      -0.114  12.477  19.519  0.00  0.00    +0.000 A 
ATOM     16  C   UNL     1      -0.678  13.437  18.697  0.00  0.00    +0.000 A 
ATOM     17  C   UNL     1      -0.048  14.706  18.831  0.00  0.00    +0.000 A 
ATOM     18  C   UNL     1       0.958  14.686  19.771  0.00  0.00    +0.000 A 
ATOM     19  S   UNL     1       1.127  13.149  20.498  0.00  0.00    +0.000 S 
ENDBRANCH  14  15
ENDBRANCH  11  14
ENDBRANCH   6   8
BRANCH   4  20
ATOM     20  C   UNL     1       5.470   4.700  18.234  0.00  0.00    +0.000 A 
ATOM     21  N   UNL     1       6.695   4.750  18.733  0.00  0.00    +0.000 NA
ATOM     22  C   UNL     1       7.624   4.582  17.727  0.00  0.00    +0.000 A 
ATOM     23  C   UNL     1       7.113   4.415  16.462  0.00  0.00    +0.000 A 
ATOM     24  S   UNL     1       5.406   4.470  16.518  0.00  0.00    +0.000 S 
ENDBRANCH   4  20
TORSDOF 4
ENDMDL
MODEL 2
REMARK VINA RESULT:      -7.0      1.556      2.015
REMARK  Name = 
REMARK  5 active torsions:
REMARK  status: ('A' for Active; 'I' for Inactive)
REMARK    1  A    between atoms: C_1  and  C_2
REMARK    2  A    between atoms: C_4  and  C_5
REMARK    3  A    between atoms: C_11  and  C_12
REMARK    4  A    between atoms: N_15  and  C_16
REMARK    5  A    between atoms: C_16  and  C_17
REMARK                            x       y       z     vdW  Elec       q    Type
REMARK                         _______ _______ _______ _____ _____    ______ ____
ROOT
ATOM      1  C   UNL     1       1.907   2.816  21.400  0.00  0.00    +0.000 C 
ATOM      2  C   UNL     1       2.495   3.915  20.568  0.00  0.00    +0.000 A 
ATOM      3  C   UNL     1       3.642   3.733  19.830  0.00  0.00    +0.000 A 
ATOM      4  C   UNL     1       4.094   4.826  19.111  0.00  0.00    +0.000 A 
ATOM      5  N   UNL     1       3.458   6.020  19.116  0.00  0.00    +0.000 NA
ATOM      6  C   UNL     1       2.345   6.101  19.849  0.00  0.00    +0.000 A 
ATOM      7  N   UNL     1       1.842   5.092  20.586  0.00  0.00    +0.000 NA
ENDROOT
BRANCH   6   8
ATOM      8  C   UNL     1       1.611   7.405  19.918  0.00  0.00    +0.000 C 
ATOM      9  C   UNL     1       1.651   8.004  21.318  0.00  0.00    +0.000 C 
ATOM     10  C   UNL     1       0.585   9.089  21.381  0.00  0.00    +0.000 C 
ATOM     11  N   UNL     1       0.759  10.146  20.363  0.00  0.00    +0.000 NA
ATOM     12  C   UNL     1       1.028   9.630  19.005  0.00  0.00    +0.000 C 
ATOM     13  C   UNL     1       2.065   8.500  18.953  0.00  0.00    +0.000 C 
BRANCH  11  14
ATOM     14  C   UNL     1      -0.448  11.011  20.321  0.00  0.00    +0.000 C 
BRANCH  14  15
ATOM     15  C   UNL     1      -1.223  10.853  19.043  0.00  0.00    +0.000 A 
ATOM     16  C   UNL     1      -1.826   9.713  18.542  0.00  0.00    +0.000 A 
ATOM     17  C   UNL     1      -2.388   9.917  17.251  0.00  0.00    +0.000 A 
ATOM     18  C   UNL     1      -2.223  11.213  16.815  0.00  0.00    +0.000 A 
ATOM     19  S   UNL     1      -1.411  12.179  17.967  0.00  0.00    +0.000 S 
ENDBRANCH  14  15
ENDBRANCH  11  14
ENDBRANCH   6   8
BRANCH   4  20
ATOM     20  C   UNL     1       5.304   4.740  18.278  0.00  0.00    +0.000 A 
ATOM     21  N   UNL     1       6.545   4.711  18.737  0.00  0.00    +0.000 NA
ATOM     22  C   UNL     1       7.437   4.616  17.690  0.00  0.00    +0.000 A 
ATOM     23  C   UNL     1       6.882   4.583  16.432  0.00  0.00    +0.000 A 
ATOM     24  S   UNL     1       5.180   4.676  16.551  0.00  0.00    +0.000 S 
ENDBRANCH   4  20
TORSDOF 4
ENDMDL
MODEL 3
REMARK VINA RESULT:      -7.0      1.199      1.370
REMARK  Name = 
REMARK  5 active torsions:
REMARK  status: ('A' for Active; 'I' for Inactive)
REMARK    1  A    between atoms: C_1  and  C_2
REMARK    2  A    between atoms: C_4  and  C_5
REMARK    3  A    between atoms: C_11  and  C_12
REMARK    4  A    between atoms: N_15  and  C_16
REMARK    5  A    between atoms: C_16  and  C_17
REMARK                            x       y       z     vdW  Elec       q    Type
REMARK                         _______ _______ _______ _____ _____    ______ ____
ROOT
ATOM      1  C   UNL     1       2.160   3.228  21.461  0.00  0.00    +0.000 C 
ATOM      2  C   UNL     1       2.707   4.226  20.487  0.00  0.00    +0.000 A 
ATOM      3  C   UNL     1       3.859   3.987  19.772  0.00  0.00    +0.000 A 
ATOM      4  C   UNL     1       4.270   4.991  18.911  0.00  0.00    +0.000 A 
ATOM      5  N   UNL     1       3.592   6.151  18.761  0.00  0.00    +0.000 NA
ATOM      6  C   UNL     1       2.478   6.290  19.483  0.00  0.00    +0.000 A 
ATOM      7  N   UNL     1       2.013   5.371  20.352  0.00  0.00    +0.000 NA
ENDROOT
BRANCH   6   8
ATOM      8  C   UNL     1       1.697   7.565  19.383  0.00  0.00    +0.000 C 
ATOM      9  C   UNL     1       1.589   8.269  20.729  0.00  0.00    +0.000 C 
ATOM     10  C   UNL     1       0.485   9.312  20.610  0.00  0.00    +0.000 C 
ATOM     11  N   UNL     1       0.718  10.295  19.532  0.00  0.00    +0.000 NA
ATOM     12  C   UNL     1       1.128   9.688  18.248  0.00  0.00    +0.000 C 
ATOM     13  C   UNL     1       2.203   8.601  18.378  0.00  0.00    +0.000 C 
BRANCH  11  14
ATOM     14  C   UNL     1      -0.508  11.105  19.313  0.00  0.00    +0.000 C 
BRANCH  14  15
ATOM     15  C   UNL     1      -0.677  12.182  20.347  0.00  0.00    +0.000 A 
ATOM     16  C   UNL     1       0.296  12.782  21.126  0.00  0.00    +0.000 A 
ATOM     17  C   UNL     1      -0.250  13.696  22.070  0.00  0.00    +0.000 A 
ATOM     18  C   UNL     1      -1.619  13.790  21.966  0.00  0.00    +0.000 A 
ATOM     19  S   UNL     1      -2.238  12.793  20.723  0.00  0.00    +0.000 S 
ENDBRANCH  14  15
ENDBRANCH  11  14
ENDBRANCH   6   8
BRANCH   4  20
ATOM     20  C   UNL     1       5.480   4.836  18.088  0.00  0.00    +0.000 A 
ATOM     21  N   UNL     1       6.695   4.597  18.558  0.00  0.00    +0.000 NA
ATOM     22  C   UNL     1       7.595   4.499  17.518  0.00  0.00    +0.000 A 
ATOM     23  C   UNL     1       7.075   4.673  16.257  0.00  0.00    +0.000 A 
ATOM     24  S   UNL     1       5.396   4.974  16.363  0.00  0.00    +0.000 S 
ENDBRANCH   4  20
TORSDOF 4
ENDMDL
MODEL 4
REMARK VINA RESULT:      -6.9      1.465      1.960
REMARK  Name = 
REMARK  5 active torsions:
REMARK  status: ('A' for Active; 'I' for Inactive)
REMARK    1  A    between atoms: C_1  and  C_2
REMARK    2  A    between atoms: C_4  and  C_5
REMARK    3  A    between atoms: C_11  and  C_12
REMARK    4  A    between atoms: N_15  and  C_16
REMARK    5  A    between atoms: C_16  and  C_17
REMARK                            x       y       z     vdW  Elec       q    Type
REMARK                         _______ _______ _______ _____ _____    ______ ____
ROOT
ATOM      1  C   UNL     1       2.099   3.080  21.318  0.00  0.00    +0.000 C 
ATOM      2  C   UNL     1       2.667   4.092  20.370  0.00  0.00    +0.000 A 
ATOM      3  C   UNL     1       3.620   3.758  19.435  0.00  0.00    +0.000 A 
ATOM      4  C   UNL     1       4.076   4.783  18.624  0.00  0.00    +0.000 A 
ATOM      5  N   UNL     1       3.622   6.053  18.724  0.00  0.00    +0.000 NA
ATOM      6  C   UNL     1       2.687   6.282  19.648  0.00  0.00    +0.000 A 
ATOM      7  N   UNL     1       2.197   5.348  20.486  0.00  0.00    +0.000 NA
ENDROOT
BRANCH   6   8
ATOM      8  C   UNL     1       2.165   7.676  19.827  0.00  0.00    +0.000 C 
ATOM      9  C   UNL     1       1.607   8.243  18.529  0.00  0.00    +0.000 C 
ATOM     10  C   UNL     1       1.466   9.748  18.712  0.00  0.00    +0.000 C 
ATOM     11  N   UNL     1       0.603  10.124  19.850  0.00  0.00    +0.000 NA
ATOM     12  C   UNL     1       0.895   9.381  21.094  0.00  0.00    +0.000 C 
ATOM     13  C   UNL     1       1.089   7.871  20.896  0.00  0.00    +0.000 C 
BRANCH  11  14
ATOM     14  C   UNL     1       0.726  11.580  20.119  0.00  0.00    +0.000 C 
BRANCH  14  15
ATOM     15  C   UNL     1      -0.549  12.178  20.642  0.00  0.00    +0.000 A 
ATOM     16  C   UNL     1      -1.821  12.088  20.105  0.00  0.00    +0.000 A 
ATOM     17  C   UNL     1      -2.771  12.867  20.823  0.00  0.00    +0.000 A 
ATOM     18  C   UNL     1      -2.205  13.506  21.903  0.00  0.00    +0.000 A 
ATOM     19  S   UNL     1      -0.540  13.152  22.058  0.00  0.00    +0.000 S 
ENDBRANCH  14  15
ENDBRANCH  11  14
ENDBRANCH   6   8
BRANCH   4  20
ATOM     20  C   UNL     1       5.085   4.535  17.582  0.00  0.00    +0.000 A 
ATOM     21  N   UNL     1       4.841   3.994  16.398  0.00  0.00    +0.000 NA
ATOM     22  C   UNL     1       6.005   3.915  15.663  0.00  0.00    +0.000 A 
ATOM     23  C   UNL     1       7.138   4.384  16.285  0.00  0.00    +0.000 A 
ATOM     24  S   UNL     1       6.747   4.944  17.851  0.00  0.00    +0.000 S 
ENDBRANCH   4  20
TORSDOF 4
ENDMDL
MODEL 5
REMARK VINA RESULT:      -6.9      1.768      2.258
REMARK  Name = 
REMARK  5 active torsions:
REMARK  status: ('A' for Active; 'I' for Inactive)
REMARK    1  A    between atoms: C_1  and  C_2
REMARK    2  A    between atoms: C_4  and  C_5
REMARK    3  A    between atoms: C_11  and  C_12
REMARK    4  A    between atoms: N_15  and  C_16
REMARK    5  A    between atoms: C_16  and  C_17
REMARK                            x       y       z     vdW  Elec       q    Type
REMARK                         _______ _______ _______ _____ _____    ______ ____
ROOT
ATOM      1  C   UNL     1       3.326   2.625  20.604  0.00  0.00    +0.000 C 
ATOM      2  C   UNL     1       3.589   3.745  19.645  0.00  0.00    +0.000 A 
ATOM      3  C   UNL     1       4.395   3.582  18.541  0.00  0.00    +0.000 A 
ATOM      4  C   UNL     1       4.572   4.694  17.735  0.00  0.00    +0.000 A 
ATOM      5  N   UNL     1       3.991   5.887  17.996  0.00  0.00    +0.000 NA
ATOM      6  C   UNL     1       3.213   5.949  19.079  0.00  0.00    +0.000 A 
ATOM      7  N   UNL     1       2.996   4.921  19.922  0.00  0.00    +0.000 NA
ENDROOT
BRANCH   6   8
ATOM      8  C   UNL     1       2.563   7.251  19.438  0.00  0.00    +0.000 C 
ATOM      9  C   UNL     1       1.897   7.903  18.234  0.00  0.00    +0.000 C 
ATOM     10  C   UNL     1       1.616   9.354  18.598  0.00  0.00    +0.000 C 
ATOM     11  N   UNL     1       0.770   9.507  19.799  0.00  0.00    +0.000 NA
ATOM     12  C   UNL     1       1.188   8.660  20.936  0.00  0.00    +0.000 C 
ATOM     13  C   UNL     1       1.521   7.212  20.556  0.00  0.00    +0.000 C 
BRANCH  11  14
ATOM     14  C   UNL     1       0.760  10.928  20.233  0.00  0.00    +0.000 C 
BRANCH  14  15
ATOM     15  C   UNL     1      -0.621  11.518  20.236  0.00  0.00    +0.000 A 
ATOM     16  C   UNL     1      -1.566  11.493  19.225  0.00  0.00    +0.000 A 
ATOM     17  C   UNL     1      -2.730  12.244  19.550  0.00  0.00    +0.000 A 
ATOM     18  C   UNL     1      -2.653  12.798  20.808  0.00  0.00    +0.000 A 
ATOM     19  S   UNL     1      -1.192  12.396  21.598  0.00  0.00    +0.000 S 
ENDBRANCH  14  15
ENDBRANCH  11  14
ENDBRANCH   6   8
BRANCH   4  20
ATOM     20  C   UNL     1       5.403   4.629  16.523  0.00  0.00    +0.000 A 
ATOM     21  N   UNL     1       5.097   3.956  15.424  0.00  0.00    +0.000 NA
ATOM     22  C   UNL     1       6.087   4.117  14.478  0.00  0.00    +0.000 A 
ATOM     23  C   UNL     1       7.152   4.901  14.854  0.00  0.00    +0.000 A 
ATOM     24  S   UNL     1       6.920   5.462  16.450  0.00  0.00    +0.000 S 
ENDBRANCH   4  20
TORSDOF 4
ENDMDL
MODEL 6
REMARK VINA RESULT:      -6.9      1.708      1.935
REMARK  Name = 
REMARK  5 active torsions:
REMARK  status: ('A' for Active; 'I' for Inactive)
REMARK    1  A    between atoms: C_1  and  C_2
REMARK    2  A    between atoms: C_4  and  C_5
REMARK    3  A    between atoms: C_11  and  C_12
REMARK    4  A    between atoms: N_15  and  C_16
REMARK    5  A    between atoms: C_16  and  C_17
REMARK                            x       y       z     vdW  Elec       q    Type
REMARK                         _______ _______ _______ _____ _____    ______ ____
ROOT
ATOM      1  C   UNL     1       1.823   2.183  18.973  0.00  0.00    +0.000 C 
ATOM      2  C   UNL     1       2.471   3.406  18.399  0.00  0.00    +0.000 A 
ATOM      3  C   UNL     1       3.566   3.327  17.569  0.00  0.00    +0.000 A 
ATOM      4  C   UNL     1       4.082   4.527  17.111  0.00  0.00    +0.000 A 
ATOM      5  N   UNL     1       3.555   5.727  17.446  0.00  0.00    +0.000 NA
ATOM      6  C   UNL     1       2.485   5.707  18.244  0.00  0.00    +0.000 A 
ATOM      7  N   UNL     1       1.926   4.587  18.743  0.00  0.00    +0.000 NA
ENDROOT
BRANCH   6   8
ATOM      8  C   UNL     1       1.872   7.005  18.674  0.00  0.00    +0.000 C 
ATOM      9  C   UNL     1       2.139   7.298  20.144  0.00  0.00    +0.000 C 
ATOM     10  C   UNL     1       1.179   8.400  20.572  0.00  0.00    +0.000 C 
ATOM     11  N   UNL     1       1.306   9.635  19.770  0.00  0.00    +0.000 NA
ATOM     12  C   UNL     1       1.356   9.398  18.312  0.00  0.00    +0.000 C 
ATOM     13  C   UNL     1       2.285   8.251  17.890  0.00  0.00    +0.000 C 
BRANCH  11  14
ATOM     14  C   UNL     1       0.176  10.551  20.071  0.00  0.00    +0.000 C 
BRANCH  14  15
ATOM     15  C   UNL     1       0.456  11.966  19.649  0.00  0.00    +0.000 A 
ATOM     16  C   UNL     1       1.544  12.757  19.973  0.00  0.00    +0.000 A 
ATOM     17  C   UNL     1       1.421  14.083  19.471  0.00  0.00    +0.000 A 
ATOM     18  C   UNL     1       0.258  14.258  18.756  0.00  0.00    +0.000 A 
ATOM     19  S   UNL     1      -0.670  12.825  18.676  0.00  0.00    +0.000 S 
ENDBRANCH  14  15
ENDBRANCH  11  14
ENDBRANCH   6   8
BRANCH   4  20
ATOM     20  C   UNL     1       5.243   4.559  16.208  0.00  0.00    +0.000 A 
ATOM     21  N   UNL     1       5.210   4.280  14.914  0.00  0.00    +0.000 NA
ATOM     22  C   UNL     1       6.468   4.416  14.366  0.00  0.00    +0.000 A 
ATOM     23  C   UNL     1       7.463   4.788  15.239  0.00  0.00    +0.000 A 
ATOM     24  S   UNL     1       6.814   4.975  16.808  0.00  0.00    +0.000 S 
ENDBRANCH   4  20
TORSDOF 4
ENDMDL
MODEL 7
REMARK VINA RESULT:      -6.8      2.127      2.628
REMARK  Name = 
REMARK  5 active torsions:
REMARK  status: ('A' for Active; 'I' for Inactive)
REMARK    1  A    between atoms: C_1  and  C_2
REMARK    2  A    between atoms: C_4  and  C_5
REMARK    3  A    between atoms: C_11  and  C_12
REMARK    4  A    between atoms: N_15  and  C_16
REMARK    5  A    between atoms: C_16  and  C_17
REMARK                            x       y       z     vdW  Elec       q    Type
REMARK                         _______ _______ _______ _____ _____    ______ ____
ROOT
ATOM      1  C   UNL     1       1.928   3.263  21.413  0.00  0.00    +0.000 C 
ATOM      2  C   UNL     1       2.326   4.367  20.483  0.00  0.00    +0.000 A 
ATOM      3  C   UNL     1       3.144   4.145  19.398  0.00  0.00    +0.000 A 
ATOM      4  C   UNL     1       3.450   5.247  18.619  0.00  0.00    +0.000 A 
ATOM      5  N   UNL     1       2.981   6.487  18.887  0.00  0.00    +0.000 NA
ATOM      6  C   UNL     1       2.183   6.607  19.950  0.00  0.00    +0.000 A 
ATOM      7  N   UNL     1       1.843   5.591  20.767  0.00  0.00    +0.000 NA
ENDROOT
BRANCH   6   8
ATOM      8  C   UNL     1       1.653   7.960  20.317  0.00  0.00    +0.000 C 
ATOM      9  C   UNL     1       1.258   8.766  19.087  0.00  0.00    +0.000 C 
ATOM     10  C   UNL     1       1.108  10.218  19.522  0.00  0.00    +0.000 C 
ATOM     11  N   UNL     1       0.119  10.409  20.602  0.00  0.00    +0.000 NA
ATOM     12  C   UNL     1       0.256   9.448  21.715  0.00  0.00    +0.000 C 
ATOM     13  C   UNL     1       0.459   7.993  21.272  0.00  0.00    +0.000 C 
BRANCH  11  14
ATOM     14  C   UNL     1       0.221  11.790  21.141  0.00  0.00    +0.000 C 
BRANCH  14  15
ATOM     15  C   UNL     1      -1.067  12.264  21.754  0.00  0.00    +0.000 A 
ATOM     16  C   UNL     1      -1.382  12.388  23.096  0.00  0.00    +0.000 A 
ATOM     17  C   UNL     1      -2.735  12.776  23.303  0.00  0.00    +0.000 A 
ATOM     18  C   UNL     1      -3.406  12.963  22.116  0.00  0.00    +0.000 A 
ATOM     19  S   UNL     1      -2.401  12.690  20.760  0.00  0.00    +0.000 S 
ENDBRANCH  14  15
ENDBRANCH  11  14
ENDBRANCH   6   8
BRANCH   4  20
ATOM     20  C   UNL     1       4.305   5.121  17.428  0.00  0.00    +0.000 A 
ATOM     21  N   UNL     1       4.384   4.048  16.657  0.00  0.00    +0.000 NA
ATOM     22  C   UNL     1       5.270   4.270  15.624  0.00  0.00    +0.000 A 
ATOM     23  C   UNL     1       5.875   5.504  15.609  0.00  0.00    +0.000 A 
ATOM     24  S   UNL     1       5.326   6.431  16.935  0.00  0.00    +0.000 S 
ENDBRANCH   4  20
TORSDOF 4
ENDMDL
MODEL 8
REMARK VINA RESULT:      -6.8      1.606      1.855
REMARK  Name = 
REMARK  5 active torsions:
REMARK  status: ('A' for Active; 'I' for Inactive)
REMARK    1  A    between atoms: C_1  and  C_2
REMARK    2  A    between atoms: C_4  and  C_5
REMARK    3  A    between atoms: C_11  and  C_12
REMARK    4  A    between atoms: N_15  and  C_16
REMARK    5  A    between atoms: C_16  and  C_17
REMARK                            x       y       z     vdW  Elec       q    Type
REMARK                         _______ _______ _______ _____ _____    ______ ____
ROOT
ATOM      1  C   UNL     1       2.941   2.906  20.677  0.00  0.00    +0.000 C 
ATOM      2  C   UNL     1       3.221   3.934  19.623  0.00  0.00    +0.000 A 
ATOM      3  C   UNL     1       4.157   3.726  18.635  0.00  0.00    +0.000 A 
ATOM      4  C   UNL     1       4.334   4.755  17.726  0.00  0.00    +0.000 A 
ATOM      5  N   UNL     1       3.635   5.912  17.783  0.00  0.00    +0.000 NA
ATOM      6  C   UNL     1       2.738   6.020  18.765  0.00  0.00    +0.000 A 
ATOM      7  N   UNL     1       2.510   5.074  19.698  0.00  0.00    +0.000 NA
ENDROOT
BRANCH   6   8
ATOM      8  C   UNL     1       1.952   7.289  18.899  0.00  0.00    +0.000 C 
ATOM      9  C   UNL     1       1.959   7.811  20.330  0.00  0.00    +0.000 C 
ATOM     10  C   UNL     1       0.850   8.848  20.442  0.00  0.00    +0.000 C 
ATOM     11  N   UNL     1       0.990   9.966  19.485  0.00  0.00    +0.000 NA
ATOM     12  C   UNL     1       1.289   9.536  18.104  0.00  0.00    +0.000 C 
ATOM     13  C   UNL     1       2.370   8.452  17.999  0.00  0.00    +0.000 C 
BRANCH  11  14
ATOM     14  C   UNL     1      -0.250  10.784  19.479  0.00  0.00    +0.000 C 
BRANCH  14  15
ATOM     15  C   UNL     1      -0.307  11.750  20.628  0.00  0.00    +0.000 A 
ATOM     16  C   UNL     1      -1.159  11.733  21.719  0.00  0.00    +0.000 A 
ATOM     17  C   UNL     1      -0.987  12.868  22.560  0.00  0.00    +0.000 A 
ATOM     18  C   UNL     1       0.007  13.704  22.103  0.00  0.00    +0.000 A 
ATOM     19  S   UNL     1       0.740  13.110  20.678  0.00  0.00    +0.000 S 
ENDBRANCH  14  15
ENDBRANCH  11  14
ENDBRANCH   6   8
BRANCH   4  20
ATOM     20  C   UNL     1       5.299   4.634  16.622  0.00  0.00    +0.000 A 
ATOM     21  N   UNL     1       5.170   3.825  15.582  0.00  0.00    +0.000 NA
ATOM     22  C   UNL     1       6.245   3.969  14.731  0.00  0.00    +0.000 A 
ATOM     23  C   UNL     1       7.200   4.878  15.122  0.00  0.00    +0.000 A 
ATOM     24  S   UNL     1       6.748   5.584  16.611  0.00  0.00    +0.000 S 
ENDBRANCH   4  20
TORSDOF 4
ENDMDL
MODEL 9
REMARK VINA RESULT:      -6.8      2.380      8.964
REMARK  Name = 
REMARK  5 active torsions:
REMARK  status: ('A' for Active; 'I' for Inactive)
REMARK    1  A    between atoms: C_1  and  C_2
REMARK    2  A    between atoms: C_4  and  C_5
REMARK    3  A    between atoms: C_11  and  C_12
REMARK    4  A    between atoms: N_15  and  C_16
REMARK    5  A    between atoms: C_16  and  C_17
REMARK                            x       y       z     vdW  Elec       q    Type
REMARK                         _______ _______ _______ _____ _____    ______ ____
ROOT
ATOM      1  C   UNL     1       1.311  13.214  20.050  0.00  0.00    +0.000 C 
ATOM      2  C   UNL     1       0.639  12.093  19.317  0.00  0.00    +0.000 A 
ATOM      3  C   UNL     1      -0.597  12.245  18.732  0.00  0.00    +0.000 A 
ATOM      4  C   UNL     1      -1.120  11.133  18.092  0.00  0.00    +0.000 A 
ATOM      5  N   UNL     1      -0.467   9.950  18.031  0.00  0.00    +0.000 NA
ATOM      6  C   UNL     1       0.733   9.899  18.613  0.00  0.00    +0.000 A 
ATOM      7  N   UNL     1       1.309  10.927  19.265  0.00  0.00    +0.000 NA
ENDROOT
BRANCH   6   8
ATOM      8  C   UNL     1       1.494   8.607  18.604  0.00  0.00    +0.000 C 
ATOM      9  C   UNL     1       2.806   8.729  17.842  0.00  0.00    +0.000 C 
ATOM     10  C   UNL     1       3.303   7.317  17.561  0.00  0.00    +0.000 C 
ATOM     11  N   UNL     1       3.489   6.505  18.782  0.00  0.00    +0.000 NA
ATOM     12  C   UNL     1       2.356   6.579  19.727  0.00  0.00    +0.000 C 
ATOM     13  C   UNL     1       1.825   7.998  19.967  0.00  0.00    +0.000 C 
BRANCH  11  14
ATOM     14  C   UNL     1       3.718   5.084  18.413  0.00  0.00    +0.000 C 
BRANCH  14  15
ATOM     15  C   UNL     1       5.099   4.847  17.870  0.00  0.00    +0.000 A 
ATOM     16  C   UNL     1       6.313   5.030  18.509  0.00  0.00    +0.000 A 
ATOM     17  C   UNL     1       7.421   4.796  17.647  0.00  0.00    +0.000 A 
ATOM     18  C   UNL     1       7.023   4.415  16.385  0.00  0.00    +0.000 A 
ATOM     19  S   UNL     1       5.322   4.321  16.250  0.00  0.00    +0.000 S 
ENDBRANCH  14  15
ENDBRANCH  11  14
ENDBRANCH   6   8
BRANCH   4  20
ATOM     20  C   UNL     1      -2.428  11.188  17.422  0.00  0.00    +0.000 A 
ATOM     21  N   UNL     1      -2.637  10.945  16.137  0.00  0.00    +0.000 NA
ATOM     22  C   UNL     1      -3.978  11.073  15.842  0.00  0.00    +0.000 A 
ATOM     23  C   UNL     1      -4.792  11.422  16.893  0.00  0.00    +0.000 A 
ATOM     24  S   UNL     1      -3.856  11.603  18.311  0.00  0.00    +0.000 S 
ENDBRANCH   4  20
TORSDOF 4
ENDMDL
