MODEL 1
REMARK VINA RESULT:      -5.6      0.000      0.000
REMARK  Name = 
REMARK  8 active torsions:
REMARK  status: ('A' for Active; 'I' for Inactive)
REMARK    1  A    between atoms: C_1  and  C_2
REMARK    2  A    between atoms: C_2  and  N_3
REMARK    3  A    between atoms: N_3  and  C_4
REMARK    4  A    between atoms: N_3  and  C_5
REMARK    5  A    between atoms: N_3  and  C_6
REMARK    6  A    between atoms: C_6  and  C_7
REMARK    7  A    between atoms: C_7  and  O_8
REMARK    8  A    between atoms: O_8  and  C_9
REMARK                            x       y       z     vdW  Elec       q    Type
REMARK                         _______ _______ _______ _____ _____    ______ ____
ROOT
ATOM      1  O   UNL     1       5.550   5.240  19.128  0.00  0.00    +0.000 OA
ENDROOT
BRANCH   1   2
ATOM      2  C   UNL     1       5.877   5.175  17.799  0.00  0.00    +0.000 A 
ATOM      3  C   UNL     1       5.052   5.530  16.731  0.00  0.00    +0.000 A 
ATOM      4  C   UNL     1       5.525   5.422  15.421  0.00  0.00    +0.000 A 
ATOM      5  C   UNL     1       6.815   4.956  15.219  0.00  0.00    +0.000 A 
ATOM      6 BR   UNL     1       7.465   4.820  13.445  0.00  0.00    +0.000 Br
ATOM      7  N   UNL     1       7.636   4.597  16.228  0.00  0.00    +0.000 NA
ATOM      8  C   UNL     1       7.151   4.712  17.487  0.00  0.00    +0.000 A 
ENDBRANCH   1   2
BRANCH   1   9
ATOM      9  C   UNL     1       4.151   5.186  19.409  0.00  0.00    +0.000 C 
BRANCH   9  10
ATOM     10  C   UNL     1       3.732   3.745  19.736  0.00  0.00    +0.000 C 
BRANCH  10  11
ATOM     11  N   UNL     1       2.566   3.201  18.842  0.00  0.00    +0.000 N 
ATOM     12  C   UNL     1       3.115   2.239  17.791  0.00  0.00    +0.000 C 
ATOM     13  C   UNL     1       1.842   4.362  18.161  0.00  0.00    +0.000 C 
BRANCH  11  15
ATOM     14  C   UNL     1       1.422   3.121  21.152  0.00  0.00    +0.000 C 
ATOM     15  C   UNL     1       1.595   2.456  19.794  0.00  0.00    +0.000 C 
ENDBRANCH  11  15
ENDBRANCH  10  11
ENDBRANCH   9  10
ENDBRANCH   1   9
TORSDOF 5
ENDMDL
MODEL 2
REMARK VINA RESULT:      -5.6      1.024      1.876
REMARK  Name = 
REMARK  8 active torsions:
REMARK  status: ('A' for Active; 'I' for Inactive)
REMARK    1  A    between atoms: C_1  and  C_2
REMARK    2  A    between atoms: C_2  and  N_3
REMARK    3  A    between atoms: N_3  and  C_4
REMARK    4  A    between atoms: N_3  and  C_5
REMARK    5  A    between atoms: N_3  and  C_6
REMARK    6  A    between atoms: C_6  and  C_7
REMARK    7  A    between atoms: C_7  and  O_8
REMARK    8  A    between atoms: O_8  and  C_9
REMARK                            x       y       z     vdW  Elec       q    Type
REMARK                         _______ _______ _______ _____ _____    ______ ____
ROOT
ATOM      1  O   UNL     1       5.780   4.305  19.044  0.00  0.00    +0.000 OA
ENDROOT
BRANCH   1   2
ATOM      2  C   UNL     1       6.003   4.388  17.695  0.00  0.00    +0.000 A 
ATOM      3  C   UNL     1       5.031   4.317  16.696  0.00  0.00    +0.000 A 
ATOM      4  C   UNL     1       5.405   4.429  15.353  0.00  0.00    +0.000 A 
ATOM      5  C   UNL     1       6.746   4.605  15.052  0.00  0.00    +0.000 A 
ATOM      6 BR   UNL     1       7.255   4.770  13.235  0.00  0.00    +0.000 Br
ATOM      7  N   UNL     1       7.711   4.670  15.992  0.00  0.00    +0.000 NA
ATOM      8  C   UNL     1       7.320   4.558  17.284  0.00  0.00    +0.000 A 
ENDBRANCH   1   2
BRANCH   1   9
ATOM      9  C   UNL     1       4.487   4.735  19.470  0.00  0.00    +0.000 C 
BRANCH   9  10
ATOM     10  C   UNL     1       3.601   3.521  19.782  0.00  0.00    +0.000 C 
BRANCH  10  11
ATOM     11  N   UNL     1       2.180   3.890  20.330  0.00  0.00    +0.000 N 
ATOM     12  C   UNL     1       2.070   5.401  20.525  0.00  0.00    +0.000 C 
ATOM     13  C   UNL     1       1.927   3.173  21.655  0.00  0.00    +0.000 C 
BRANCH  11  15
ATOM     14  C   UNL     1       1.437   3.935  17.861  0.00  0.00    +0.000 C 
ATOM     15  C   UNL     1       1.161   3.413  19.264  0.00  0.00    +0.000 C 
ENDBRANCH  11  15
ENDBRANCH  10  11
ENDBRANCH   9  10
ENDBRANCH   1   9
TORSDOF 5
ENDMDL
MODEL 3
REMARK VINA RESULT:      -5.4      1.173      1.315
REMARK  Name = 
REMARK  8 active torsions:
REMARK  status: ('A' for Active; 'I' for Inactive)
REMARK    1  A    between atoms: C_1  and  C_2
REMARK    2  A    between atoms: C_2  and  N_3
REMARK    3  A    between atoms: N_3  and  C_4
REMARK    4  A    between atoms: N_3  and  C_5
REMARK    5  A    between atoms: N_3  and  C_6
REMARK    6  A    between atoms: C_6  and  C_7
REMARK    7  A    between atoms: C_7  and  O_8
REMARK    8  A    between atoms: O_8  and  C_9
REMARK                            x       y       z     vdW  Elec       q    Type
REMARK                         _______ _______ _______ _____ _____    ______ ____
ROOT
ATOM      1  O   UNL     1       5.758   5.787  18.199  0.00  0.00    +0.000 OA
ENDROOT
BRANCH   1   2
ATOM      2  C   UNL     1       5.920   5.303  16.928  0.00  0.00    +0.000 A 
ATOM      3  C   UNL     1       5.042   4.452  16.255  0.00  0.00    +0.000 A 
ATOM      4  C   UNL     1       5.331   4.045  14.949  0.00  0.00    +0.000 A 
ATOM      5  C   UNL     1       6.497   4.503  14.357  0.00  0.00    +0.000 A 
ATOM      6 BR   UNL     1       6.887   3.965  12.582  0.00  0.00    +0.000 Br
ATOM      7  N   UNL     1       7.371   5.319  14.981  0.00  0.00    +0.000 NA
ATOM      8  C   UNL     1       7.066   5.696  16.246  0.00  0.00    +0.000 A 
ENDBRANCH   1   2
BRANCH   1   9
ATOM      9  C   UNL     1       5.250   4.844  19.144  0.00  0.00    +0.000 C 
BRANCH   9  10
ATOM     10  C   UNL     1       3.870   5.291  19.647  0.00  0.00    +0.000 C 
BRANCH  10  11
ATOM     11  N   UNL     1       2.757   4.195  19.513  0.00  0.00    +0.000 N 
ATOM     12  C   UNL     1       3.393   2.811  19.407  0.00  0.00    +0.000 C 
ATOM     13  C   UNL     1       1.896   4.471  18.282  0.00  0.00    +0.000 C 
BRANCH  11  15
ATOM     14  C   UNL     1       1.556   2.943  21.421  0.00  0.00    +0.000 C 
ATOM     15  C   UNL     1       1.893   4.290  20.797  0.00  0.00    +0.000 C 
ENDBRANCH  11  15
ENDBRANCH  10  11
ENDBRANCH   9  10
ENDBRANCH   1   9
TORSDOF 5
ENDMDL
MODEL 4
REMARK VINA RESULT:      -5.4      1.353      2.182
REMARK  Name = 
REMARK  8 active torsions:
REMARK  status: ('A' for Active; 'I' for Inactive)
REMARK    1  A    between atoms: C_1  and  C_2
REMARK    2  A    between atoms: C_2  and  N_3
REMARK    3  A    between atoms: N_3  and  C_4
REMARK    4  A    between atoms: N_3  and  C_5
REMARK    5  A    between atoms: N_3  and  C_6
REMARK    6  A    between atoms: C_6  and  C_7
REMARK    7  A    between atoms: C_7  and  O_8
REMARK    8  A    between atoms: O_8  and  C_9
REMARK                            x       y       z     vdW  Elec       q    Type
REMARK                         _______ _______ _______ _____ _____    ______ ____
ROOT
ATOM      1  O   UNL     1       5.351   4.621  18.226  0.00  0.00    +0.000 OA
ENDROOT
BRANCH   1   2
ATOM      2  C   UNL     1       5.781   4.648  16.926  0.00  0.00    +0.000 A 
ATOM      3  C   UNL     1       5.092   4.144  15.822  0.00  0.00    +0.000 A 
ATOM      4  C   UNL     1       5.650   4.252  14.545  0.00  0.00    +0.000 A 
ATOM      5  C   UNL     1       6.887   4.862  14.413  0.00  0.00    +0.000 A 
ATOM      6 BR   UNL     1       7.642   5.022  12.683  0.00  0.00    +0.000 Br
ATOM      7  N   UNL     1       7.583   5.353  15.459  0.00  0.00    +0.000 NA
ATOM      8  C   UNL     1       7.019   5.234  16.684  0.00  0.00    +0.000 A 
ENDBRANCH   1   2
BRANCH   1   9
ATOM      9  C   UNL     1       4.429   3.576  18.535  0.00  0.00    +0.000 C 
BRANCH   9  10
ATOM     10  C   UNL     1       3.596   3.952  19.769  0.00  0.00    +0.000 C 
BRANCH  10  11
ATOM     11  N   UNL     1       2.266   4.711  19.435  0.00  0.00    +0.000 N 
ATOM     12  C   UNL     1       1.166   4.296  20.409  0.00  0.00    +0.000 C 
ATOM     13  C   UNL     1       1.836   4.407  18.001  0.00  0.00    +0.000 C 
BRANCH  11  15
ATOM     14  C   UNL     1       2.517   7.005  18.283  0.00  0.00    +0.000 C 
ATOM     15  C   UNL     1       2.574   6.223  19.587  0.00  0.00    +0.000 C 
ENDBRANCH  11  15
ENDBRANCH  10  11
ENDBRANCH   9  10
ENDBRANCH   1   9
TORSDOF 5
ENDMDL
MODEL 5
REMARK VINA RESULT:      -5.4      2.350      2.918
REMARK  Name = 
REMARK  8 active torsions:
REMARK  status: ('A' for Active; 'I' for Inactive)
REMARK    1  A    between atoms: C_1  and  C_2
REMARK    2  A    between atoms: C_2  and  N_3
REMARK    3  A    between atoms: N_3  and  C_4
REMARK    4  A    between atoms: N_3  and  C_5
REMARK    5  A    between atoms: N_3  and  C_6
REMARK    6  A    between atoms: C_6  and  C_7
REMARK    7  A    between atoms: C_7  and  O_8
REMARK    8  A    between atoms: O_8  and  C_9
REMARK                            x       y       z     vdW  Elec       q    Type
REMARK                         _______ _______ _______ _____ _____    ______ ____
ROOT
ATOM      1  O   UNL     1       5.688   3.945  17.211  0.00  0.00    +0.000 OA
ENDROOT
BRANCH   1   2
ATOM      2  C   UNL     1       6.361   5.103  17.500  0.00  0.00    +0.000 A 
ATOM      3  C   UNL     1       7.271   5.287  18.542  0.00  0.00    +0.000 A 
ATOM      4  C   UNL     1       7.894   6.526  18.711  0.00  0.00    +0.000 A 
ATOM      5  C   UNL     1       7.582   7.549  17.830  0.00  0.00    +0.000 A 
ATOM      6 BR   UNL     1       8.433   9.228  18.048  0.00  0.00    +0.000 Br
ATOM      7  N   UNL     1       6.701   7.409  16.818  0.00  0.00    +0.000 NA
ATOM      8  C   UNL     1       6.113   6.197  16.678  0.00  0.00    +0.000 A 
ENDBRANCH   1   2
BRANCH   1   9
ATOM      9  C   UNL     1       4.297   4.108  16.936  0.00  0.00    +0.000 C 
BRANCH   9  10
ATOM     10  C   UNL     1       3.525   4.360  18.239  0.00  0.00    +0.000 C 
BRANCH  10  11
ATOM     11  N   UNL     1       2.876   3.074  18.856  0.00  0.00    +0.000 N 
ATOM     12  C   UNL     1       3.488   2.783  20.224  0.00  0.00    +0.000 C 
ATOM     13  C   UNL     1       3.089   1.882  17.924  0.00  0.00    +0.000 C 
BRANCH  11  15
ATOM     14  C   UNL     1       0.975   4.008  20.326  0.00  0.00    +0.000 C 
ATOM     15  C   UNL     1       1.361   3.372  18.999  0.00  0.00    +0.000 C 
ENDBRANCH  11  15
ENDBRANCH  10  11
ENDBRANCH   9  10
ENDBRANCH   1   9
TORSDOF 5
ENDMDL
MODEL 6
REMARK VINA RESULT:      -5.4      1.274      1.624
REMARK  Name = 
REMARK  8 active torsions:
REMARK  status: ('A' for Active; 'I' for Inactive)
REMARK    1  A    between atoms: C_1  and  C_2
REMARK    2  A    between atoms: C_2  and  N_3
REMARK    3  A    between atoms: N_3  and  C_4
REMARK    4  A    between atoms: N_3  and  C_5
REMARK    5  A    between atoms: N_3  and  C_6
REMARK    6  A    between atoms: C_6  and  C_7
REMARK    7  A    between atoms: C_7  and  O_8
REMARK    8  A    between atoms: O_8  and  C_9
REMARK                            x       y       z     vdW  Elec       q    Type
REMARK                         _______ _______ _______ _____ _____    ______ ____
ROOT
ATOM      1  O   UNL     1       4.553   6.059  18.394  0.00  0.00    +0.000 OA
ENDROOT
BRANCH   1   2
ATOM      2  C   UNL     1       5.025   5.498  17.237  0.00  0.00    +0.000 A 
ATOM      3  C   UNL     1       5.432   4.174  17.071  0.00  0.00    +0.000 A 
ATOM      4  C   UNL     1       5.883   3.736  15.823  0.00  0.00    +0.000 A 
ATOM      5  C   UNL     1       5.916   4.642  14.776  0.00  0.00    +0.000 A 
ATOM      6 BR   UNL     1       6.514   4.049  13.079  0.00  0.00    +0.000 Br
ATOM      7  N   UNL     1       5.537   5.931  14.903  0.00  0.00    +0.000 NA
ATOM      8  C   UNL     1       5.105   6.328  16.123  0.00  0.00    +0.000 A 
ENDBRANCH   1   2
BRANCH   1   9
ATOM      9  C   UNL     1       4.156   5.125  19.399  0.00  0.00    +0.000 C 
BRANCH   9  10
ATOM     10  C   UNL     1       2.706   4.679  19.164  0.00  0.00    +0.000 C 
BRANCH  10  11
ATOM     11  N   UNL     1       2.490   3.130  19.265  0.00  0.00    +0.000 N 
ATOM     12  C   UNL     1       3.721   2.468  19.882  0.00  0.00    +0.000 C 
ATOM     13  C   UNL     1       2.222   2.547  17.879  0.00  0.00    +0.000 C 
BRANCH  11  15
ATOM     14  C   UNL     1       1.591   2.778  21.657  0.00  0.00    +0.000 C 
ATOM     15  C   UNL     1       1.255   2.919  20.179  0.00  0.00    +0.000 C 
ENDBRANCH  11  15
ENDBRANCH  10  11
ENDBRANCH   9  10
ENDBRANCH   1   9
TORSDOF 5
ENDMDL
MODEL 7
REMARK VINA RESULT:      -5.3      0.830      1.732
REMARK  Name = 
REMARK  8 active torsions:
REMARK  status: ('A' for Active; 'I' for Inactive)
REMARK    1  A    between atoms: C_1  and  C_2
REMARK    2  A    between atoms: C_2  and  N_3
REMARK    3  A    between atoms: N_3  and  C_4
REMARK    4  A    between atoms: N_3  and  C_5
REMARK    5  A    between atoms: N_3  and  C_6
REMARK    6  A    between atoms: C_6  and  C_7
REMARK    7  A    between atoms: C_7  and  O_8
REMARK    8  A    between atoms: O_8  and  C_9
REMARK                            x       y       z     vdW  Elec       q    Type
REMARK                         _______ _______ _______ _____ _____    ______ ____
ROOT
ATOM      1  O   UNL     1       5.443   4.735  18.700  0.00  0.00    +0.000 OA
ENDROOT
BRANCH   1   2
ATOM      2  C   UNL     1       5.838   4.785  17.389  0.00  0.00    +0.000 A 
ATOM      3  C   UNL     1       5.008   5.009  16.289  0.00  0.00    +0.000 A 
ATOM      4  C   UNL     1       5.554   5.044  15.003  0.00  0.00    +0.000 A 
ATOM      5  C   UNL     1       6.918   4.851  14.857  0.00  0.00    +0.000 A 
ATOM      6 BR   UNL     1       7.664   4.911  13.117  0.00  0.00    +0.000 Br
ATOM      7  N   UNL     1       7.747   4.625  15.897  0.00  0.00    +0.000 NA
ATOM      8  C   UNL     1       7.191   4.595  17.132  0.00  0.00    +0.000 A 
ENDBRANCH   1   2
BRANCH   1   9
ATOM      9  C   UNL     1       4.738   3.551  19.074  0.00  0.00    +0.000 C 
BRANCH   9  10
ATOM     10  C   UNL     1       3.378   3.916  19.685  0.00  0.00    +0.000 C 
BRANCH  10  11
ATOM     11  N   UNL     1       2.160   3.657  18.734  0.00  0.00    +0.000 N 
ATOM     12  C   UNL     1       0.926   3.282  19.551  0.00  0.00    +0.000 C 
ATOM     13  C   UNL     1       2.494   2.539  17.748  0.00  0.00    +0.000 C 
BRANCH  11  15
ATOM     14  C   UNL     1       2.371   6.227  18.715  0.00  0.00    +0.000 C 
ATOM     15  C   UNL     1       1.913   4.983  17.968  0.00  0.00    +0.000 C 
ENDBRANCH  11  15
ENDBRANCH  10  11
ENDBRANCH   9  10
ENDBRANCH   1   9
TORSDOF 5
ENDMDL
MODEL 8
REMARK VINA RESULT:      -5.3      1.418      2.074
REMARK  Name = 
REMARK  8 active torsions:
REMARK  status: ('A' for Active; 'I' for Inactive)
REMARK    1  A    between atoms: C_1  and  C_2
REMARK    2  A    between atoms: C_2  and  N_3
REMARK    3  A    between atoms: N_3  and  C_4
REMARK    4  A    between atoms: N_3  and  C_5
REMARK    5  A    between atoms: N_3  and  C_6
REMARK    6  A    between atoms: C_6  and  C_7
REMARK    7  A    between atoms: C_7  and  O_8
REMARK    8  A    between atoms: O_8  and  C_9
REMARK                            x       y       z     vdW  Elec       q    Type
REMARK                         _______ _______ _______ _____ _____    ______ ____
ROOT
ATOM      1  O   UNL     1       3.710   6.088  18.569  0.00  0.00    +0.000 OA
ENDROOT
BRANCH   1   2
ATOM      2  C   UNL     1       4.445   5.690  17.484  0.00  0.00    +0.000 A 
ATOM      3  C   UNL     1       4.391   4.438  16.869  0.00  0.00    +0.000 A 
ATOM      4  C   UNL     1       5.195   4.174  15.757  0.00  0.00    +0.000 A 
ATOM      5  C   UNL     1       6.034   5.175  15.295  0.00  0.00    +0.000 A 
ATOM      6 BR   UNL     1       7.116   4.827  13.779  0.00  0.00    +0.000 Br
ATOM      7  N   UNL     1       6.117   6.393  15.869  0.00  0.00    +0.000 NA
ATOM      8  C   UNL     1       5.327   6.620  16.946  0.00  0.00    +0.000 A 
ENDBRANCH   1   2
BRANCH   1   9
ATOM      9  C   UNL     1       3.624   5.130  19.624  0.00  0.00    +0.000 C 
BRANCH   9  10
ATOM     10  C   UNL     1       2.167   4.687  19.820  0.00  0.00    +0.000 C 
BRANCH  10  11
ATOM     11  N   UNL     1       1.988   3.139  19.988  0.00  0.00    +0.000 N 
ATOM     12  C   UNL     1       1.015   2.607  18.938  0.00  0.00    +0.000 C 
ATOM     13  C   UNL     1       1.470   2.821  21.389  0.00  0.00    +0.000 C 
BRANCH  11  15
ATOM     14  C   UNL     1       3.464   1.509  18.642  0.00  0.00    +0.000 C 
ATOM     15  C   UNL     1       3.391   2.511  19.785  0.00  0.00    +0.000 C 
ENDBRANCH  11  15
ENDBRANCH  10  11
ENDBRANCH   9  10
ENDBRANCH   1   9
TORSDOF 5
ENDMDL
MODEL 9
REMARK VINA RESULT:      -5.3      2.087      2.332
REMARK  Name = 
REMARK  8 active torsions:
REMARK  status: ('A' for Active; 'I' for Inactive)
REMARK    1  A    between atoms: C_1  and  C_2
REMARK    2  A    between atoms: C_2  and  N_3
REMARK    3  A    between atoms: N_3  and  C_4
REMARK    4  A    between atoms: N_3  and  C_5
REMARK    5  A    between atoms: N_3  and  C_6
REMARK    6  A    between atoms: C_6  and  C_7
REMARK    7  A    between atoms: C_7  and  O_8
REMARK    8  A    between atoms: O_8  and  C_9
REMARK                            x       y       z     vdW  Elec       q    Type
REMARK                         _______ _______ _______ _____ _____    ______ ____
ROOT
ATOM      1  O   UNL     1       5.059   3.477  16.612  0.00  0.00    +0.000 OA
ENDROOT
BRANCH   1   2
ATOM      2  C   UNL     1       5.660   4.686  16.847  0.00  0.00    +0.000 A 
ATOM      3  C   UNL     1       5.091   5.942  16.635  0.00  0.00    +0.000 A 
ATOM      4  C   UNL     1       5.822   7.096  16.932  0.00  0.00    +0.000 A 
ATOM      5  C   UNL     1       7.107   6.955  17.431  0.00  0.00    +0.000 A 
ATOM      6 BR   UNL     1       8.097   8.516  17.847  0.00  0.00    +0.000 Br
ATOM      7  N   UNL     1       7.690   5.757  17.640  0.00  0.00    +0.000 NA
ATOM      8  C   UNL     1       6.959   4.656  17.343  0.00  0.00    +0.000 A 
ENDBRANCH   1   2
BRANCH   1   9
ATOM      9  C   UNL     1       3.731   3.355  17.122  0.00  0.00    +0.000 C 
BRANCH   9  10
ATOM     10  C   UNL     1       3.768   3.036  18.623  0.00  0.00    +0.000 C 
BRANCH  10  11
ATOM     11  N   UNL     1       2.413   3.302  19.366  0.00  0.00    +0.000 N 
ATOM     12  C   UNL     1       1.355   2.304  18.899  0.00  0.00    +0.000 C 
ATOM     13  C   UNL     1       1.940   4.729  19.098  0.00  0.00    +0.000 C 
BRANCH  11  15
ATOM     14  C   UNL     1       1.504   2.610  21.678  0.00  0.00    +0.000 C 
ATOM     15  C   UNL     1       2.698   3.111  20.878  0.00  0.00    +0.000 C 
ENDBRANCH  11  15
ENDBRANCH  10  11
ENDBRANCH   9  10
ENDBRANCH   1   9
TORSDOF 5
ENDMDL
