MODEL 1
REMARK VINA RESULT:      -6.4      0.000      0.000
REMARK  Name = 
REMARK  9 active torsions:
REMARK  status: ('A' for Active; 'I' for Inactive)
REMARK    1  A    between atoms: C_1  and  C_2
REMARK    2  A    between atoms: C_2  and  S_3
REMARK    3  A    between atoms: S_3  and  C_4
REMARK    4  A    between atoms: C_6  and  C_7
REMARK    5  A    between atoms: C_10  and  C_11
REMARK    6  A    between atoms: N_14  and  S_15
REMARK    7  A    between atoms: S_15  and  C_18
REMARK    8  A    between atoms: C_26  and  C_27
REMARK    9  A    between atoms: C_27  and  O_29
REMARK                            x       y       z     vdW  Elec       q    Type
REMARK                         _______ _______ _______ _____ _____    ______ ____
ROOT
ATOM      1  C   UNL     1       1.289  14.960  19.894  0.00  0.00    +0.000 C 
ATOM      2  C   UNL     1      -0.035  14.394  19.370  0.00  0.00    +0.000 C 
ATOM      3  C   UNL     1      -0.414  13.023  19.990  0.00  0.00    +0.000 C 
ATOM      4  N   UNL     1       0.735  12.023  19.865  0.00  0.00    +0.000 NA
ATOM      5  C   UNL     1       2.034  12.595  20.402  0.00  0.00    +0.000 C 
ATOM      6  C   UNL     1       2.388  13.909  19.722  0.00  0.00    +0.000 C 
ENDROOT
BRANCH   3   7
ATOM      7  C   UNL     1      -1.685  12.543  19.317  0.00  0.00    +0.000 A 
ATOM      8  C   UNL     1      -2.930  12.641  19.957  0.00  0.00    +0.000 A 
ATOM      9  C   UNL     1      -4.084  12.162  19.339  0.00  0.00    +0.000 A 
ATOM     10  C   UNL     1      -4.016  11.593  18.066  0.00  0.00    +0.000 A 
ATOM     11  C   UNL     1      -5.250  11.068  17.398  0.00  0.00    +0.000 C 
ATOM     12  C   UNL     1      -2.781  11.511  17.413  0.00  0.00    +0.000 A 
ATOM     13  C   UNL     1      -1.625  11.977  18.036  0.00  0.00    +0.000 A 
ENDBRANCH   3   7
BRANCH   4  14
ATOM     14  S   UNL     1       0.388  10.503  20.717  0.00  0.00    +0.000 S 
ATOM     15  O   UNL     1       1.029  10.600  22.018  0.00  0.00    +0.000 OA
ATOM     16  O   UNL     1      -1.026  10.238  20.609  0.00  0.00    +0.000 OA
BRANCH  14  17
ATOM     17  C   UNL     1       1.303   9.260  19.839  0.00  0.00    +0.000 A 
ATOM     18  C   UNL     1       1.655   8.080  20.507  0.00  0.00    +0.000 A 
ATOM     19  C   UNL     1       2.288   7.051  19.802  0.00  0.00    +0.000 A 
ATOM     20  C   UNL     1       2.543   7.197  18.439  0.00  0.00    +0.000 A 
ATOM     21 CL   UNL     1       3.305   5.920  17.571  0.00  0.00    +0.000 Cl
ATOM     22  C   UNL     1       2.167   8.360  17.768  0.00  0.00    +0.000 A 
ATOM     23  C   UNL     1       1.545   9.399  18.470  0.00  0.00    +0.000 A 
ENDBRANCH  14  17
ENDBRANCH   4  14
BRANCH   6  24
ATOM     24  C   UNL     1       2.734  13.720  18.251  0.00  0.00    +0.000 C 
ATOM     25  O   UNL     1       3.121  14.635  17.542  0.00  0.00    +0.000 OA
BRANCH  24  26
ATOM     26  O   UNL     1       2.525  12.477  17.758  0.00  0.00    +0.000 OA
ATOM     27  H   UNL     1       1.583  12.188  17.806  0.00  0.00    +0.000 HD
ENDBRANCH  24  26
ENDBRANCH   6  24
BRANCH   1  28
ATOM     28  S   UNL     1       1.001  15.475  21.650  0.00  0.00    +0.000 S 
BRANCH  28  30
ATOM     29  C   UNL     1       1.979  17.762  20.559  0.00  0.00    +0.000 C 
ATOM     30  C   UNL     1       0.880  17.283  21.494  0.00  0.00    +0.000 C 
ENDBRANCH  28  30
ENDBRANCH   1  28
TORSDOF 7
ENDMDL
MODEL 2
REMARK VINA RESULT:      -6.3      3.468      7.070
REMARK  Name = 
REMARK  9 active torsions:
REMARK  status: ('A' for Active; 'I' for Inactive)
REMARK    1  A    between atoms: C_1  and  C_2
REMARK    2  A    between atoms: C_2  and  S_3
REMARK    3  A    between atoms: S_3  and  C_4
REMARK    4  A    between atoms: C_6  and  C_7
REMARK    5  A    between atoms: C_10  and  C_11
REMARK    6  A    between atoms: N_14  and  S_15
REMARK    7  A    between atoms: S_15  and  C_18
REMARK    8  A    between atoms: C_26  and  C_27
REMARK    9  A    between atoms: C_27  and  O_29
REMARK                            x       y       z     vdW  Elec       q    Type
REMARK                         _______ _______ _______ _____ _____    ______ ____
ROOT
ATOM      1  C   UNL     1       0.382  10.005  19.104  0.00  0.00    +0.000 C 
ATOM      2  C   UNL     1       1.306  11.214  18.922  0.00  0.00    +0.000 C 
ATOM      3  C   UNL     1       1.111  12.314  19.999  0.00  0.00    +0.000 C 
ATOM      4  N   UNL     1      -0.358  12.717  20.119  0.00  0.00    +0.000 NA
ATOM      5  C   UNL     1      -1.254  11.508  20.315  0.00  0.00    +0.000 C 
ATOM      6  C   UNL     1      -1.065  10.488  19.202  0.00  0.00    +0.000 C 
ENDROOT
BRANCH   3   7
ATOM      7  C   UNL     1       2.013  13.480  19.643  0.00  0.00    +0.000 A 
ATOM      8  C   UNL     1       1.839  14.199  18.451  0.00  0.00    +0.000 A 
ATOM      9  C   UNL     1       2.700  15.245  18.124  0.00  0.00    +0.000 A 
ATOM     10  C   UNL     1       3.738  15.600  18.987  0.00  0.00    +0.000 A 
ATOM     11  C   UNL     1       4.672  16.718  18.637  0.00  0.00    +0.000 C 
ATOM     12  C   UNL     1       3.904  14.901  20.187  0.00  0.00    +0.000 A 
ATOM     13  C   UNL     1       3.053  13.845  20.510  0.00  0.00    +0.000 A 
ENDBRANCH   3   7
BRANCH   4  14
ATOM     14  S   UNL     1      -0.628  13.848  21.463  0.00  0.00    +0.000 S 
ATOM     15  O   UNL     1       0.288  13.462  22.522  0.00  0.00    +0.000 OA
ATOM     16  O   UNL     1      -0.620  15.190  20.932  0.00  0.00    +0.000 OA
BRANCH  14  17
ATOM     17  C   UNL     1      -2.246  13.456  22.081  0.00  0.00    +0.000 A 
ATOM     18  C   UNL     1      -2.357  12.734  23.277  0.00  0.00    +0.000 A 
ATOM     19  C   UNL     1      -3.622  12.503  23.828  0.00  0.00    +0.000 A 
ATOM     20  C   UNL     1      -4.758  13.011  23.198  0.00  0.00    +0.000 A 
ATOM     21 CL   UNL     1      -6.311  12.740  23.890  0.00  0.00    +0.000 Cl
ATOM     22  C   UNL     1      -4.644  13.753  22.022  0.00  0.00    +0.000 A 
ATOM     23  C   UNL     1      -3.383  13.977  21.459  0.00  0.00    +0.000 A 
ENDBRANCH  14  17
ENDBRANCH   4  14
BRANCH   6  24
ATOM     24  C   UNL     1      -1.558  11.008  17.858  0.00  0.00    +0.000 C 
ATOM     25  O   UNL     1      -1.645  10.297  16.869  0.00  0.00    +0.000 OA
BRANCH  24  26
ATOM     26  O   UNL     1      -1.837  12.330  17.810  0.00  0.00    +0.000 OA
ATOM     27  H   UNL     1      -2.719  12.560  18.188  0.00  0.00    +0.000 HD
ENDBRANCH  24  26
ENDBRANCH   6  24
BRANCH   1  28
ATOM     28  S   UNL     1       0.980   9.090  20.600  0.00  0.00    +0.000 S 
BRANCH  28  30
ATOM     29  C   UNL     1       2.167   8.050  18.390  0.00  0.00    +0.000 C 
ATOM     30  C   UNL     1       1.916   7.722  19.853  0.00  0.00    +0.000 C 
ENDBRANCH  28  30
ENDBRANCH   1  28
TORSDOF 7
ENDMDL
MODEL 3
REMARK VINA RESULT:      -6.3      3.462      7.113
REMARK  Name = 
REMARK  9 active torsions:
REMARK  status: ('A' for Active; 'I' for Inactive)
REMARK    1  A    between atoms: C_1  and  C_2
REMARK    2  A    between atoms: C_2  and  S_3
REMARK    3  A    between atoms: S_3  and  C_4
REMARK    4  A    between atoms: C_6  and  C_7
REMARK    5  A    between atoms: C_10  and  C_11
REMARK    6  A    between atoms: N_14  and  S_15
REMARK    7  A    between atoms: S_15  and  C_18
REMARK    8  A    between atoms: C_26  and  C_27
REMARK    9  A    between atoms: C_27  and  O_29
REMARK                            x       y       z     vdW  Elec       q    Type
REMARK                         _______ _______ _______ _____ _____    ______ ____
ROOT
ATOM      1  C   UNL     1       0.312   9.931  19.101  0.00  0.00    +0.000 C 
ATOM      2  C   UNL     1       1.274  11.110  18.919  0.00  0.00    +0.000 C 
ATOM      3  C   UNL     1       1.102  12.223  19.986  0.00  0.00    +0.000 C 
ATOM      4  N   UNL     1      -0.355  12.671  20.089  0.00  0.00    +0.000 NA
ATOM      5  C   UNL     1      -1.290  11.492  20.284  0.00  0.00    +0.000 C 
ATOM      6  C   UNL     1      -1.121  10.459  19.181  0.00  0.00    +0.000 C 
ENDROOT
BRANCH   3   7
ATOM      7  C   UNL     1       2.042  13.358  19.631  0.00  0.00    +0.000 A 
ATOM      8  C   UNL     1       3.026  13.799  20.529  0.00  0.00    +0.000 A 
ATOM      9  C   UNL     1       3.858  14.868  20.200  0.00  0.00    +0.000 A 
ATOM     10  C   UNL     1       3.732  15.503  18.964  0.00  0.00    +0.000 A 
ATOM     11  C   UNL     1       4.617  16.658  18.606  0.00  0.00    +0.000 C 
ATOM     12  C   UNL     1       2.768  15.055  18.055  0.00  0.00    +0.000 A 
ATOM     13  C   UNL     1       1.926  13.996  18.388  0.00  0.00    +0.000 A 
ENDBRANCH   3   7
BRANCH   4  14
ATOM     14  S   UNL     1      -0.604  13.820  21.422  0.00  0.00    +0.000 S 
ATOM     15  O   UNL     1       0.319  13.439  22.478  0.00  0.00    +0.000 OA
ATOM     16  O   UNL     1      -0.588  15.156  20.876  0.00  0.00    +0.000 OA
BRANCH  14  17
ATOM     17  C   UNL     1      -2.219  13.449  22.059  0.00  0.00    +0.000 A 
ATOM     18  C   UNL     1      -2.326  12.695  23.235  0.00  0.00    +0.000 A 
ATOM     19  C   UNL     1      -3.586  12.478  23.803  0.00  0.00    +0.000 A 
ATOM     20  C   UNL     1      -4.721  13.031  23.209  0.00  0.00    +0.000 A 
ATOM     21 CL   UNL     1      -6.267  12.778  23.922  0.00  0.00    +0.000 Cl
ATOM     22  C   UNL     1      -4.610  13.805  22.054  0.00  0.00    +0.000 A 
ATOM     23  C   UNL     1      -3.354  14.015  21.473  0.00  0.00    +0.000 A 
ENDBRANCH  14  17
ENDBRANCH   4  14
BRANCH   6  24
ATOM     24  C   UNL     1      -1.585  10.983  17.828  0.00  0.00    +0.000 C 
ATOM     25  O   UNL     1      -1.697  10.265  16.847  0.00  0.00    +0.000 OA
BRANCH  24  26
ATOM     26  O   UNL     1      -1.807  12.315  17.764  0.00  0.00    +0.000 OA
ATOM     27  H   UNL     1      -1.185  12.790  17.165  0.00  0.00    +0.000 HD
ENDBRANCH  24  26
ENDBRANCH   6  24
BRANCH   1  28
ATOM     28  S   UNL     1       0.867   9.009  20.609  0.00  0.00    +0.000 S 
BRANCH  28  30
ATOM     29  C   UNL     1       1.692   6.422  20.617  0.00  0.00    +0.000 C 
ATOM     30  C   UNL     1       1.946   7.733  19.892  0.00  0.00    +0.000 C 
ENDBRANCH  28  30
ENDBRANCH   1  28
TORSDOF 7
ENDMDL
MODEL 4
REMARK VINA RESULT:      -6.2      3.927      6.442
REMARK  Name = 
REMARK  9 active torsions:
REMARK  status: ('A' for Active; 'I' for Inactive)
REMARK    1  A    between atoms: C_1  and  C_2
REMARK    2  A    between atoms: C_2  and  S_3
REMARK    3  A    between atoms: S_3  and  C_4
REMARK    4  A    between atoms: C_6  and  C_7
REMARK    5  A    between atoms: C_10  and  C_11
REMARK    6  A    between atoms: N_14  and  S_15
REMARK    7  A    between atoms: S_15  and  C_18
REMARK    8  A    between atoms: C_26  and  C_27
REMARK    9  A    between atoms: C_27  and  O_29
REMARK                            x       y       z     vdW  Elec       q    Type
REMARK                         _______ _______ _______ _____ _____    ______ ____
ROOT
ATOM      1  C   UNL     1      -5.121  13.680  22.088  0.00  0.00    +0.000 C 
ATOM      2  C   UNL     1      -4.116  12.811  21.323  0.00  0.00    +0.000 C 
ATOM      3  C   UNL     1      -2.648  13.005  21.785  0.00  0.00    +0.000 C 
ATOM      4  N   UNL     1      -2.258  14.483  21.783  0.00  0.00    +0.000 NA
ATOM      5  C   UNL     1      -3.255  15.324  22.557  0.00  0.00    +0.000 C 
ATOM      6  C   UNL     1      -4.670  15.140  22.028  0.00  0.00    +0.000 C 
ENDROOT
BRANCH   3   7
ATOM      7  C   UNL     1      -1.762  12.163  20.888  0.00  0.00    +0.000 A 
ATOM      8  C   UNL     1      -0.961  11.136  21.410  0.00  0.00    +0.000 A 
ATOM      9  C   UNL     1      -0.125  10.396  20.575  0.00  0.00    +0.000 A 
ATOM     10  C   UNL     1      -0.089  10.657  19.204  0.00  0.00    +0.000 A 
ATOM     11  C   UNL     1       0.812   9.871  18.301  0.00  0.00    +0.000 C 
ATOM     12  C   UNL     1      -0.902  11.665  18.673  0.00  0.00    +0.000 A 
ATOM     13  C   UNL     1      -1.727  12.415  19.509  0.00  0.00    +0.000 A 
ENDBRANCH   3   7
BRANCH   4  14
ATOM     14  S   UNL     1      -0.640  14.743  22.470  0.00  0.00    +0.000 S 
ATOM     15  O   UNL     1      -0.594  16.127  22.912  0.00  0.00    +0.000 OA
ATOM     16  O   UNL     1      -0.360  13.666  23.388  0.00  0.00    +0.000 OA
BRANCH  14  17
ATOM     17  C   UNL     1       0.470  14.659  21.087  0.00  0.00    +0.000 A 
ATOM     18  C   UNL     1       0.279  15.536  20.010  0.00  0.00    +0.000 A 
ATOM     19  C   UNL     1       1.202  15.550  18.960  0.00  0.00    +0.000 A 
ATOM     20  C   UNL     1       2.314  14.709  19.000  0.00  0.00    +0.000 A 
ATOM     21 CL   UNL     1       3.458  14.743  17.714  0.00  0.00    +0.000 Cl
ATOM     22  C   UNL     1       2.518  13.857  20.085  0.00  0.00    +0.000 A 
ATOM     23  C   UNL     1       1.592  13.828  21.134  0.00  0.00    +0.000 A 
ENDBRANCH  14  17
ENDBRANCH   4  14
BRANCH   6  24
ATOM     24  C   UNL     1      -4.835  15.704  20.623  0.00  0.00    +0.000 C 
ATOM     25  O   UNL     1      -5.885  15.633  20.005  0.00  0.00    +0.000 OA
BRANCH  24  26
ATOM     26  O   UNL     1      -3.720  16.237  20.074  0.00  0.00    +0.000 OA
ATOM     27  H   UNL     1      -3.639  17.210  20.213  0.00  0.00    +0.000 HD
ENDBRANCH  24  26
ENDBRANCH   6  24
BRANCH   1  28
ATOM     28  S   UNL     1      -5.235  12.990  23.804  0.00  0.00    +0.000 S 
BRANCH  28  30
ATOM     29  C   UNL     1      -7.771  13.835  24.286  0.00  0.00    +0.000 C 
ATOM     30  C   UNL     1      -7.002  12.575  23.923  0.00  0.00    +0.000 C 
ENDBRANCH  28  30
ENDBRANCH   1  28
TORSDOF 7
ENDMDL
MODEL 5
REMARK VINA RESULT:      -6.2      3.590      6.981
REMARK  Name = 
REMARK  9 active torsions:
REMARK  status: ('A' for Active; 'I' for Inactive)
REMARK    1  A    between atoms: C_1  and  C_2
REMARK    2  A    between atoms: C_2  and  S_3
REMARK    3  A    between atoms: S_3  and  C_4
REMARK    4  A    between atoms: C_6  and  C_7
REMARK    5  A    between atoms: C_10  and  C_11
REMARK    6  A    between atoms: N_14  and  S_15
REMARK    7  A    between atoms: S_15  and  C_18
REMARK    8  A    between atoms: C_26  and  C_27
REMARK    9  A    between atoms: C_27  and  O_29
REMARK                            x       y       z     vdW  Elec       q    Type
REMARK                         _______ _______ _______ _____ _____    ______ ____
ROOT
ATOM      1  C   UNL     1       0.462   9.982  19.184  0.00  0.00    +0.000 C 
ATOM      2  C   UNL     1       1.391  11.182  18.974  0.00  0.00    +0.000 C 
ATOM      3  C   UNL     1       1.181  12.320  20.007  0.00  0.00    +0.000 C 
ATOM      4  N   UNL     1      -0.289  12.730  20.086  0.00  0.00    +0.000 NA
ATOM      5  C   UNL     1      -1.192  11.531  20.310  0.00  0.00    +0.000 C 
ATOM      6  C   UNL     1      -0.986  10.471  19.239  0.00  0.00    +0.000 C 
ENDROOT
BRANCH   3   7
ATOM      7  C   UNL     1       2.092  13.470  19.624  0.00  0.00    +0.000 A 
ATOM      8  C   UNL     1       1.949  14.137  18.397  0.00  0.00    +0.000 A 
ATOM      9  C   UNL     1       2.818  15.168  18.047  0.00  0.00    +0.000 A 
ATOM     10  C   UNL     1       3.833  15.562  18.921  0.00  0.00    +0.000 A 
ATOM     11  C   UNL     1       4.777  16.664  18.548  0.00  0.00    +0.000 C 
ATOM     12  C   UNL     1       3.968  14.916  20.155  0.00  0.00    +0.000 A 
ATOM     13  C   UNL     1       3.108  13.875  20.501  0.00  0.00    +0.000 A 
ENDBRANCH   3   7
BRANCH   4  14
ATOM     14  S   UNL     1      -0.580  13.911  21.382  0.00  0.00    +0.000 S 
ATOM     15  O   UNL     1       0.347  13.589  22.454  0.00  0.00    +0.000 OA
ATOM     16  O   UNL     1      -0.601  15.229  20.796  0.00  0.00    +0.000 OA
BRANCH  14  17
ATOM     17  C   UNL     1      -2.187  13.510  22.022  0.00  0.00    +0.000 A 
ATOM     18  C   UNL     1      -2.279  12.764  23.204  0.00  0.00    +0.000 A 
ATOM     19  C   UNL     1      -3.534  12.525  23.773  0.00  0.00    +0.000 A 
ATOM     20  C   UNL     1      -4.680  13.049  23.175  0.00  0.00    +0.000 A 
ATOM     21 CL   UNL     1      -6.221  12.769  23.890  0.00  0.00    +0.000 Cl
ATOM     22  C   UNL     1      -4.585  13.816  22.014  0.00  0.00    +0.000 A 
ATOM     23  C   UNL     1      -3.334  14.048  21.432  0.00  0.00    +0.000 A 
ENDBRANCH  14  17
ENDBRANCH   4  14
BRANCH   6  24
ATOM     24  C   UNL     1      -1.454  10.941  17.868  0.00  0.00    +0.000 C 
ATOM     25  O   UNL     1      -1.682  10.170  16.950  0.00  0.00    +0.000 OA
BRANCH  24  26
ATOM     26  O   UNL     1      -1.543  12.282  17.710  0.00  0.00    +0.000 OA
ATOM     27  H   UNL     1      -2.407  12.656  18.003  0.00  0.00    +0.000 HD
ENDBRANCH  24  26
ENDBRANCH   6  24
BRANCH   1  28
ATOM     28  S   UNL     1       1.030   9.121  20.723  0.00  0.00    +0.000 S 
BRANCH  28  30
ATOM     29  C   UNL     1      -0.505   9.342  22.952  0.00  0.00    +0.000 C 
ATOM     30  C   UNL     1      -0.546   8.754  21.551  0.00  0.00    +0.000 C 
ENDBRANCH  28  30
ENDBRANCH   1  28
TORSDOF 7
ENDMDL
MODEL 6
REMARK VINA RESULT:      -6.2      5.569     10.475
REMARK  Name = 
REMARK  9 active torsions:
REMARK  status: ('A' for Active; 'I' for Inactive)
REMARK    1  A    between atoms: C_1  and  C_2
REMARK    2  A    between atoms: C_2  and  S_3
REMARK    3  A    between atoms: S_3  and  C_4
REMARK    4  A    between atoms: C_6  and  C_7
REMARK    5  A    between atoms: C_10  and  C_11
REMARK    6  A    between atoms: N_14  and  S_15
REMARK    7  A    between atoms: S_15  and  C_18
REMARK    8  A    between atoms: C_26  and  C_27
REMARK    9  A    between atoms: C_27  and  O_29
REMARK                            x       y       z     vdW  Elec       q    Type
REMARK                         _______ _______ _______ _____ _____    ______ ____
ROOT
ATOM      1  C   UNL     1       3.218   2.239  19.246  0.00  0.00    +0.000 C 
ATOM      2  C   UNL     1       4.032   2.481  17.970  0.00  0.00    +0.000 C 
ATOM      3  C   UNL     1       4.558   3.934  17.835  0.00  0.00    +0.000 C 
ATOM      4  N   UNL     1       3.429   4.949  18.006  0.00  0.00    +0.000 NA
ATOM      5  C   UNL     1       2.645   4.703  19.281  0.00  0.00    +0.000 C 
ATOM      6  C   UNL     1       2.104   3.283  19.338  0.00  0.00    +0.000 C 
ENDROOT
BRANCH   3   7
ATOM      7  C   UNL     1       5.257   4.053  16.494  0.00  0.00    +0.000 A 
ATOM      8  C   UNL     1       6.613   4.403  16.407  0.00  0.00    +0.000 A 
ATOM      9  C   UNL     1       7.230   4.543  15.165  0.00  0.00    +0.000 A 
ATOM     10  C   UNL     1       6.508   4.320  13.992  0.00  0.00    +0.000 A 
ATOM     11  C   UNL     1       7.162   4.477  12.652  0.00  0.00    +0.000 C 
ATOM     12  C   UNL     1       5.161   3.950  14.071  0.00  0.00    +0.000 A 
ATOM     13  C   UNL     1       4.539   3.823  15.312  0.00  0.00    +0.000 A 
ENDBRANCH   3   7
BRANCH   4  14
ATOM     14  S   UNL     1       4.036   6.620  18.025  0.00  0.00    +0.000 S 
ATOM     15  O   UNL     1       5.037   6.686  19.076  0.00  0.00    +0.000 OA
ATOM     16  O   UNL     1       4.362   6.997  16.671  0.00  0.00    +0.000 OA
BRANCH  14  17
ATOM     17  C   UNL     1       2.678   7.600  18.613  0.00  0.00    +0.000 A 
ATOM     18  C   UNL     1       2.292   7.488  19.955  0.00  0.00    +0.000 A 
ATOM     19  C   UNL     1       1.290   8.324  20.458  0.00  0.00    +0.000 A 
ATOM     20  C   UNL     1       0.699   9.277  19.628  0.00  0.00    +0.000 A 
ATOM     21 CL   UNL     1      -0.521  10.316  20.256  0.00  0.00    +0.000 Cl
ATOM     22  C   UNL     1       1.103   9.407  18.299  0.00  0.00    +0.000 A 
ATOM     23  C   UNL     1       2.096   8.564  17.786  0.00  0.00    +0.000 A 
ENDBRANCH  14  17
ENDBRANCH   4  14
BRANCH   6  24
ATOM     24  C   UNL     1       1.036   3.033  18.281  0.00  0.00    +0.000 C 
ATOM     25  O   UNL     1       0.314   2.049  18.295  0.00  0.00    +0.000 OA
BRANCH  24  26
ATOM     26  O   UNL     1       0.978   3.945  17.284  0.00  0.00    +0.000 OA
ATOM     27  H   UNL     1       1.023   4.877  17.600  0.00  0.00    +0.000 HD
ENDBRANCH  24  26
ENDBRANCH   6  24
BRANCH   1  28
ATOM     28  S   UNL     1       4.411   2.276  20.663  0.00  0.00    +0.000 S 
BRANCH  28  30
ATOM     29  C   UNL     1       5.870   0.329  21.870  0.00  0.00    +0.000 C 
ATOM     30  C   UNL     1       5.177   0.630  20.551  0.00  0.00    +0.000 C 
ENDBRANCH  28  30
ENDBRANCH   1  28
TORSDOF 7
ENDMDL
MODEL 7
REMARK VINA RESULT:      -6.1      1.050      1.853
REMARK  Name = 
REMARK  9 active torsions:
REMARK  status: ('A' for Active; 'I' for Inactive)
REMARK    1  A    between atoms: C_1  and  C_2
REMARK    2  A    between atoms: C_2  and  S_3
REMARK    3  A    between atoms: S_3  and  C_4
REMARK    4  A    between atoms: C_6  and  C_7
REMARK    5  A    between atoms: C_10  and  C_11
REMARK    6  A    between atoms: N_14  and  S_15
REMARK    7  A    between atoms: S_15  and  C_18
REMARK    8  A    between atoms: C_26  and  C_27
REMARK    9  A    between atoms: C_27  and  O_29
REMARK                            x       y       z     vdW  Elec       q    Type
REMARK                         _______ _______ _______ _____ _____    ______ ____
ROOT
ATOM      1  C   UNL     1       0.857  14.865  19.436  0.00  0.00    +0.000 C 
ATOM      2  C   UNL     1      -0.204  14.011  18.733  0.00  0.00    +0.000 C 
ATOM      3  C   UNL     1      -0.490  12.663  19.447  0.00  0.00    +0.000 C 
ATOM      4  N   UNL     1       0.802  11.889  19.707  0.00  0.00    +0.000 NA
ATOM      5  C   UNL     1       1.833  12.746  20.417  0.00  0.00    +0.000 C 
ATOM      6  C   UNL     1       2.119  14.027  19.647  0.00  0.00    +0.000 C 
ENDROOT
BRANCH   3   7
ATOM      7  C   UNL     1      -1.479  11.888  18.599  0.00  0.00    +0.000 A 
ATOM      8  C   UNL     1      -1.048  11.049  17.560  0.00  0.00    +0.000 A 
ATOM      9  C   UNL     1      -1.974  10.371  16.768  0.00  0.00    +0.000 A 
ATOM     10  C   UNL     1      -3.342  10.508  17.010  0.00  0.00    +0.000 A 
ATOM     11  C   UNL     1      -4.342   9.789  16.157  0.00  0.00    +0.000 C 
ATOM     12  C   UNL     1      -3.777  11.326  18.057  0.00  0.00    +0.000 A 
ATOM     13  C   UNL     1      -2.854  12.015  18.842  0.00  0.00    +0.000 A 
ENDBRANCH   3   7
BRANCH   4  14
ATOM     14  S   UNL     1       0.516  10.426  20.674  0.00  0.00    +0.000 S 
ATOM     15  O   UNL     1       1.297  10.573  21.891  0.00  0.00    +0.000 OA
ATOM     16  O   UNL     1      -0.907  10.196  20.734  0.00  0.00    +0.000 OA
BRANCH  14  17
ATOM     17  C   UNL     1       1.301   9.114  19.773  0.00  0.00    +0.000 A 
ATOM     18  C   UNL     1       1.687   9.340  18.445  0.00  0.00    +0.000 A 
ATOM     19  C   UNL     1       2.394   8.351  17.754  0.00  0.00    +0.000 A 
ATOM     20  C   UNL     1       2.729   7.159  18.396  0.00  0.00    +0.000 A 
ATOM     21 CL   UNL     1       3.616   5.952  17.547  0.00  0.00    +0.000 Cl
ATOM     22  C   UNL     1       2.369   6.945  19.727  0.00  0.00    +0.000 A 
ATOM     23  C   UNL     1       1.650   7.925  20.420  0.00  0.00    +0.000 A 
ENDBRANCH  14  17
ENDBRANCH   4  14
BRANCH   6  24
ATOM     24  C   UNL     1       2.820  13.756  18.322  0.00  0.00    +0.000 C 
ATOM     25  O   UNL     1       3.508  14.592  17.759  0.00  0.00    +0.000 OA
BRANCH  24  26
ATOM     26  O   UNL     1       2.581  12.543  17.773  0.00  0.00    +0.000 OA
ATOM     27  H   UNL     1       2.906  11.792  18.323  0.00  0.00    +0.000 HD
ENDBRANCH  24  26
ENDBRANCH   6  24
BRANCH   1  28
ATOM     28  S   UNL     1       0.093  15.494  21.002  0.00  0.00    +0.000 S 
BRANCH  28  30
ATOM     29  C   UNL     1      -2.592  15.536  21.407  0.00  0.00    +0.000 C 
ATOM     30  C   UNL     1      -1.544  16.040  20.428  0.00  0.00    +0.000 C 
ENDBRANCH  28  30
ENDBRANCH   1  28
TORSDOF 7
ENDMDL
MODEL 8
REMARK VINA RESULT:      -6.0      3.566      6.991
REMARK  Name = 
REMARK  9 active torsions:
REMARK  status: ('A' for Active; 'I' for Inactive)
REMARK    1  A    between atoms: C_1  and  C_2
REMARK    2  A    between atoms: C_2  and  S_3
REMARK    3  A    between atoms: S_3  and  C_4
REMARK    4  A    between atoms: C_6  and  C_7
REMARK    5  A    between atoms: C_10  and  C_11
REMARK    6  A    between atoms: N_14  and  S_15
REMARK    7  A    between atoms: S_15  and  C_18
REMARK    8  A    between atoms: C_26  and  C_27
REMARK    9  A    between atoms: C_27  and  O_29
REMARK                            x       y       z     vdW  Elec       q    Type
REMARK                         _______ _______ _______ _____ _____    ______ ____
ROOT
ATOM      1  C   UNL     1       0.442   9.942  19.369  0.00  0.00    +0.000 C 
ATOM      2  C   UNL     1       1.388  11.118  19.106  0.00  0.00    +0.000 C 
ATOM      3  C   UNL     1       1.215  12.291  20.108  0.00  0.00    +0.000 C 
ATOM      4  N   UNL     1      -0.246  12.729  20.200  0.00  0.00    +0.000 NA
ATOM      5  C   UNL     1      -1.165  11.553  20.475  0.00  0.00    +0.000 C 
ATOM      6  C   UNL     1      -0.996  10.458  19.433  0.00  0.00    +0.000 C 
ENDROOT
BRANCH   3   7
ATOM      7  C   UNL     1       2.139  13.413  19.675  0.00  0.00    +0.000 A 
ATOM      8  C   UNL     1       3.139  13.904  20.528  0.00  0.00    +0.000 A 
ATOM      9  C   UNL     1       3.955  14.960  20.127  0.00  0.00    +0.000 A 
ATOM     10  C   UNL     1       3.797  15.532  18.863  0.00  0.00    +0.000 A 
ATOM     11  C   UNL     1       4.665  16.673  18.428  0.00  0.00    +0.000 C 
ATOM     12  C   UNL     1       2.816  15.033  18.000  0.00  0.00    +0.000 A 
ATOM     13  C   UNL     1       1.989  13.986  18.404  0.00  0.00    +0.000 A 
ENDBRANCH   3   7
BRANCH   4  14
ATOM     14  S   UNL     1      -0.494  13.952  21.464  0.00  0.00    +0.000 S 
ATOM     15  O   UNL     1       0.367  13.582  22.575  0.00  0.00    +0.000 OA
ATOM     16  O   UNL     1      -0.393  15.257  20.856  0.00  0.00    +0.000 OA
BRANCH  14  17
ATOM     17  C   UNL     1      -2.149  13.687  22.049  0.00  0.00    +0.000 A 
ATOM     18  C   UNL     1      -3.224  14.093  21.247  0.00  0.00    +0.000 A 
ATOM     19  C   UNL     1      -4.532  13.802  21.648  0.00  0.00    +0.000 A 
ATOM     20  C   UNL     1      -4.756  13.092  22.827  0.00  0.00    +0.000 A 
ATOM     21 CL   UNL     1      -6.367  12.720  23.307  0.00  0.00    +0.000 Cl
ATOM     22  C   UNL     1      -3.685  12.664  23.610  0.00  0.00    +0.000 A 
ATOM     23  C   UNL     1      -2.374  12.962  23.222  0.00  0.00    +0.000 A 
ENDBRANCH  14  17
ENDBRANCH   4  14
BRANCH   6  24
ATOM     24  C   UNL     1      -1.480  10.895  18.057  0.00  0.00    +0.000 C 
ATOM     25  O   UNL     1      -1.501  10.142  17.097  0.00  0.00    +0.000 OA
BRANCH  24  26
ATOM     26  O   UNL     1      -1.829  12.198  17.948  0.00  0.00    +0.000 OA
ATOM     27  H   UNL     1      -1.330  12.791  18.557  0.00  0.00    +0.000 HD
ENDBRANCH  24  26
ENDBRANCH   6  24
BRANCH   1  28
ATOM     28  S   UNL     1       1.023   9.117  20.923  0.00  0.00    +0.000 S 
BRANCH  28  30
ATOM     29  C   UNL     1      -0.473   9.432  23.168  0.00  0.00    +0.000 C 
ATOM     30  C   UNL     1      -0.546   8.800  21.787  0.00  0.00    +0.000 C 
ENDBRANCH  28  30
ENDBRANCH   1  28
TORSDOF 7
ENDMDL
MODEL 9
REMARK VINA RESULT:      -6.0      0.772      1.469
REMARK  Name = 
REMARK  9 active torsions:
REMARK  status: ('A' for Active; 'I' for Inactive)
REMARK    1  A    between atoms: C_1  and  C_2
REMARK    2  A    between atoms: C_2  and  S_3
REMARK    3  A    between atoms: S_3  and  C_4
REMARK    4  A    between atoms: C_6  and  C_7
REMARK    5  A    between atoms: C_10  and  C_11
REMARK    6  A    between atoms: N_14  and  S_15
REMARK    7  A    between atoms: S_15  and  C_18
REMARK    8  A    between atoms: C_26  and  C_27
REMARK    9  A    between atoms: C_27  and  O_29
REMARK                            x       y       z     vdW  Elec       q    Type
REMARK                         _______ _______ _______ _____ _____    ______ ____
ROOT
ATOM      1  C   UNL     1       1.203  14.947  20.246  0.00  0.00    +0.000 C 
ATOM      2  C   UNL     1      -0.118  14.401  19.694  0.00  0.00    +0.000 C 
ATOM      3  C   UNL     1      -0.506  13.013  20.268  0.00  0.00    +0.000 C 
ATOM      4  N   UNL     1       0.642  12.014  20.123  0.00  0.00    +0.000 NA
ATOM      5  C   UNL     1       1.937  12.565  20.689  0.00  0.00    +0.000 C 
ATOM      6  C   UNL     1       2.300  13.899  20.052  0.00  0.00    +0.000 C 
ENDROOT
BRANCH   3   7
ATOM      7  C   UNL     1      -1.773  12.558  19.570  0.00  0.00    +0.000 A 
ATOM      8  C   UNL     1      -3.032  12.713  20.169  0.00  0.00    +0.000 A 
ATOM      9  C   UNL     1      -4.182  12.256  19.528  0.00  0.00    +0.000 A 
ATOM     10  C   UNL     1      -4.096  11.651  18.273  0.00  0.00    +0.000 A 
ATOM     11  C   UNL     1      -5.327  11.150  17.582  0.00  0.00    +0.000 C 
ATOM     12  C   UNL     1      -2.846  11.513  17.660  0.00  0.00    +0.000 A 
ATOM     13  C   UNL     1      -1.693  11.956  18.306  0.00  0.00    +0.000 A 
ENDBRANCH   3   7
BRANCH   4  14
ATOM     14  S   UNL     1       0.283  10.470  20.925  0.00  0.00    +0.000 S 
ATOM     15  O   UNL     1       0.993  10.485  22.193  0.00  0.00    +0.000 OA
ATOM     16  O   UNL     1      -1.144  10.259  20.881  0.00  0.00    +0.000 OA
BRANCH  14  17
ATOM     17  C   UNL     1       1.104   9.237  19.947  0.00  0.00    +0.000 A 
ATOM     18  C   UNL     1       1.391   9.518  18.604  0.00  0.00    +0.000 A 
ATOM     19  C   UNL     1       2.124   8.597  17.848  0.00  0.00    +0.000 A 
ATOM     20  C   UNL     1       2.583   7.420  18.440  0.00  0.00    +0.000 A 
ATOM     21 CL   UNL     1       3.501   6.299  17.510  0.00  0.00    +0.000 Cl
ATOM     22  C   UNL     1       2.320   7.154  19.784  0.00  0.00    +0.000 A 
ATOM     23  C   UNL     1       1.576   8.064  20.543  0.00  0.00    +0.000 A 
ENDBRANCH  14  17
ENDBRANCH   4  14
BRANCH   6  24
ATOM     24  C   UNL     1       2.659  13.753  18.579  0.00  0.00    +0.000 C 
ATOM     25  O   UNL     1       2.832  12.667  18.048  0.00  0.00    +0.000 OA
BRANCH  24  26
ATOM     26  O   UNL     1       2.837  14.912  17.905  0.00  0.00    +0.000 OA
ATOM     27  H   UNL     1       2.887  14.794  16.928  0.00  0.00    +0.000 HD
ENDBRANCH  24  26
ENDBRANCH   6  24
BRANCH   1  28
ATOM     28  S   UNL     1       0.900  15.409  22.014  0.00  0.00    +0.000 S 
BRANCH  28  30
ATOM     29  C   UNL     1      -1.685  15.592  22.828  0.00  0.00    +0.000 C 
ATOM     30  C   UNL     1      -0.692  16.281  21.905  0.00  0.00    +0.000 C 
ENDBRANCH  28  30
ENDBRANCH   1  28
TORSDOF 7
ENDMDL
