MODEL 1
REMARK VINA RESULT:      -7.7      0.000      0.000
REMARK  Name = 
REMARK  6 active torsions:
REMARK  status: ('A' for Active; 'I' for Inactive)
REMARK    1  A    between atoms: C_1  and  C_2
REMARK    2  A    between atoms: C_7  and  C_8
REMARK    3  A    between atoms: C_10  and  C_11
REMARK    4  A    between atoms: N_24  and  C_25
REMARK    5  A    between atoms: C_29  and  C_30
REMARK    6  A    between atoms: C_30  and  C_31
REMARK                            x       y       z     vdW  Elec       q    Type
REMARK                         _______ _______ _______ _____ _____    ______ ____
ROOT
ATOM      1  C   UNL     1       2.753   5.651  18.857  0.00  0.00    +0.000 A 
ATOM      2  N   UNL     1       3.771   5.213  18.080  0.00  0.00    +0.000 NA
ATOM      3  C   UNL     1       4.331   6.069  17.210  0.00  0.00    +0.000 A 
ATOM      4  N   UNL     1       3.895   7.314  16.981  0.00  0.00    +0.000 NA
ATOM      5  C   UNL     1       2.848   7.734  17.716  0.00  0.00    +0.000 A 
ATOM      6  C   UNL     1       2.268   6.958  18.715  0.00  0.00    +0.000 A 
ATOM      7  C   UNL     1       1.197   7.538  19.592  0.00  0.00    +0.000 C 
ATOM      8  N   UNL     1       0.952   8.961  19.405  0.00  0.00    +0.000 N 
ATOM      9  C   UNL     1       0.445   9.625  20.506  0.00  0.00    +0.000 C 
ATOM     10  O   UNL     1       0.301   9.026  21.570  0.00  0.00    +0.000 OA
ATOM     11  N   UNL     1       0.124  10.951  20.335  0.00  0.00    +0.000 N 
ATOM     12  C   UNL     1       0.999   9.411  18.015  0.00  0.00    +0.000 C 
ATOM     13  C   UNL     1       2.378   9.138  17.433  0.00  0.00    +0.000 C 
ATOM     14  H   UNL     1      -0.135  11.248  19.413  0.00  0.00    +0.000 HD
ENDROOT
BRANCH   1  21
ATOM     15  C   UNL     1       0.805   3.407  18.064  0.00  0.00    +0.000 C 
ATOM     16  C   UNL     1       1.323   3.596  19.470  0.00  0.00    +0.000 A 
ATOM     17  C   UNL     1       0.863   2.681  20.443  0.00  0.00    +0.000 A 
ATOM     18  C   UNL     1       1.317   2.727  21.755  0.00  0.00    +0.000 A 
ATOM     19  C   UNL     1       2.205   3.718  22.128  0.00  0.00    +0.000 A 
ATOM     20  C   UNL     1       2.613   4.672  21.191  0.00  0.00    +0.000 A 
ATOM     21  C   UNL     1       2.234   4.630  19.829  0.00  0.00    +0.000 A 
ENDBRANCH   1  21
BRANCH   3  22
ATOM     22  C   UNL     1       5.524   5.623  16.482  0.00  0.00    +0.000 A 
ATOM     23  C   UNL     1       5.581   5.584  15.083  0.00  0.00    +0.000 A 
ATOM     24  C   UNL     1       6.738   5.157  14.431  0.00  0.00    +0.000 A 
ATOM     25  C   UNL     1       7.818   4.767  15.204  0.00  0.00    +0.000 A 
ATOM     26  N   UNL     1       7.812   4.773  16.551  0.00  0.00    +0.000 NA
ATOM     27  C   UNL     1       6.670   5.199  17.151  0.00  0.00    +0.000 A 
ENDBRANCH   3  22
BRANCH  11  28
ATOM     28  C   UNL     1      -0.262  11.813  21.390  0.00  0.00    +0.000 A 
ATOM     29  C   UNL     1      -1.168  11.438  22.389  0.00  0.00    +0.000 A 
ATOM     30  C   UNL     1      -1.571  12.345  23.365  0.00  0.00    +0.000 A 
ATOM     31  C   UNL     1      -1.056  13.640  23.366  0.00  0.00    +0.000 A 
ATOM     32  C   UNL     1      -0.123  14.027  22.395  0.00  0.00    +0.000 A 
ATOM     33  C   UNL     1       0.288  13.097  21.424  0.00  0.00    +0.000 A 
BRANCH  32  34
ATOM     34  C   UNL     1       0.424  15.432  22.387  0.00  0.00    +0.000 C 
ATOM     35  C   UNL     1      -0.106  16.247  23.558  0.00  0.00    +0.000 C 
ATOM     36  F   UNL     1       1.790  15.458  22.456  0.00  0.00    +0.000 F 
ENDBRANCH  32  34
ENDBRANCH  11  28
TORSDOF 4
ENDMDL
MODEL 2
REMARK VINA RESULT:      -7.7      3.942     10.796
REMARK  Name = 
REMARK  6 active torsions:
REMARK  status: ('A' for Active; 'I' for Inactive)
REMARK    1  A    between atoms: C_1  and  C_2
REMARK    2  A    between atoms: C_7  and  C_8
REMARK    3  A    between atoms: C_10  and  C_11
REMARK    4  A    between atoms: N_24  and  C_25
REMARK    5  A    between atoms: C_29  and  C_30
REMARK    6  A    between atoms: C_30  and  C_31
REMARK                            x       y       z     vdW  Elec       q    Type
REMARK                         _______ _______ _______ _____ _____    ______ ____
ROOT
ATOM      1  C   UNL     1      -1.738  13.132  19.873  0.00  0.00    +0.000 A 
ATOM      2  N   UNL     1      -3.012  13.462  20.189  0.00  0.00    +0.000 NA
ATOM      3  C   UNL     1      -4.000  12.624  19.835  0.00  0.00    +0.000 A 
ATOM      4  N   UNL     1      -3.831  11.517  19.100  0.00  0.00    +0.000 NA
ATOM      5  C   UNL     1      -2.569  11.216  18.739  0.00  0.00    +0.000 A 
ATOM      6  C   UNL     1      -1.469  11.965  19.147  0.00  0.00    +0.000 A 
ATOM      7  C   UNL     1      -0.081  11.495  18.828  0.00  0.00    +0.000 C 
ATOM      8  N   UNL     1      -0.001  10.174  18.221  0.00  0.00    +0.000 N 
ATOM      9  C   UNL     1       1.181   9.492  18.437  0.00  0.00    +0.000 C 
ATOM     10  O   UNL     1       2.045   9.979  19.164  0.00  0.00    +0.000 OA
ATOM     11  N   UNL     1       1.320   8.278  17.807  0.00  0.00    +0.000 N 
ATOM     12  C   UNL     1      -1.049   9.889  17.241  0.00  0.00    +0.000 C 
ATOM     13  C   UNL     1      -2.412   9.967  17.911  0.00  0.00    +0.000 C 
ATOM     14  H   UNL     1       0.819   8.144  16.948  0.00  0.00    +0.000 HD
ENDROOT
BRANCH   1  21
ATOM     15  C   UNL     1      -0.719  13.204  22.775  0.00  0.00    +0.000 C 
ATOM     16  C   UNL     1      -0.241  14.157  21.705  0.00  0.00    +0.000 A 
ATOM     17  C   UNL     1       0.718  15.117  22.095  0.00  0.00    +0.000 A 
ATOM     18  C   UNL     1       1.269  16.007  21.181  0.00  0.00    +0.000 A 
ATOM     19  C   UNL     1       0.836  15.980  19.868  0.00  0.00    +0.000 A 
ATOM     20  C   UNL     1      -0.163  15.080  19.486  0.00  0.00    +0.000 A 
ATOM     21  C   UNL     1      -0.708  14.111  20.360  0.00  0.00    +0.000 A 
ENDBRANCH   1  21
BRANCH   3  22
ATOM     22  C   UNL     1      -5.355  12.923  20.311  0.00  0.00    +0.000 A 
ATOM     23  C   UNL     1      -6.333  11.931  20.469  0.00  0.00    +0.000 A 
ATOM     24  C   UNL     1      -7.608  12.259  20.930  0.00  0.00    +0.000 A 
ATOM     25  C   UNL     1      -7.880  13.586  21.215  0.00  0.00    +0.000 A 
ATOM     26  N   UNL     1      -6.981  14.579  21.068  0.00  0.00    +0.000 NA
ATOM     27  C   UNL     1      -5.749  14.221  20.622  0.00  0.00    +0.000 A 
ENDBRANCH   3  22
BRANCH  11  28
ATOM     28  C   UNL     1       2.394   7.385  18.038  0.00  0.00    +0.000 A 
ATOM     29  C   UNL     1       3.624   7.485  17.377  0.00  0.00    +0.000 A 
ATOM     30  C   UNL     1       4.625   6.540  17.585  0.00  0.00    +0.000 A 
ATOM     31  C   UNL     1       4.415   5.489  18.475  0.00  0.00    +0.000 A 
ATOM     32  C   UNL     1       3.205   5.388  19.172  0.00  0.00    +0.000 A 
ATOM     33  C   UNL     1       2.207   6.357  18.965  0.00  0.00    +0.000 A 
BRANCH  32  34
ATOM     34  C   UNL     1       2.972   4.242  20.124  0.00  0.00    +0.000 C 
ATOM     35  C   UNL     1       1.605   4.333  20.788  0.00  0.00    +0.000 C 
ATOM     36  F   UNL     1       3.045   3.027  19.501  0.00  0.00    +0.000 F 
ENDBRANCH  32  34
ENDBRANCH  11  28
TORSDOF 4
ENDMDL
MODEL 3
REMARK VINA RESULT:      -7.7      3.274      9.976
REMARK  Name = 
REMARK  6 active torsions:
REMARK  status: ('A' for Active; 'I' for Inactive)
REMARK    1  A    between atoms: C_1  and  C_2
REMARK    2  A    between atoms: C_7  and  C_8
REMARK    3  A    between atoms: C_10  and  C_11
REMARK    4  A    between atoms: N_24  and  C_25
REMARK    5  A    between atoms: C_29  and  C_30
REMARK    6  A    between atoms: C_30  and  C_31
REMARK                            x       y       z     vdW  Elec       q    Type
REMARK                         _______ _______ _______ _____ _____    ______ ____
ROOT
ATOM      1  C   UNL     1      -1.170  11.216  19.988  0.00  0.00    +0.000 A 
ATOM      2  N   UNL     1      -1.374  12.283  20.795  0.00  0.00    +0.000 NA
ATOM      3  C   UNL     1      -0.626  12.404  21.903  0.00  0.00    +0.000 A 
ATOM      4  N   UNL     1       0.256  11.491  22.329  0.00  0.00    +0.000 NA
ATOM      5  C   UNL     1       0.421  10.402  21.554  0.00  0.00    +0.000 A 
ATOM      6  C   UNL     1      -0.230  10.237  20.335  0.00  0.00    +0.000 A 
ATOM      7  C   UNL     1       0.106   9.069  19.456  0.00  0.00    +0.000 C 
ATOM      8  N   UNL     1       1.229   8.260  19.908  0.00  0.00    +0.000 N 
ATOM      9  C   UNL     1       1.911   7.584  18.914  0.00  0.00    +0.000 C 
ATOM     10  O   UNL     1       1.599   7.748  17.736  0.00  0.00    +0.000 OA
ATOM     11  N   UNL     1       2.923   6.746  19.318  0.00  0.00    +0.000 N 
ATOM     12  C   UNL     1       1.287   8.051  21.354  0.00  0.00    +0.000 C 
ATOM     13  C   UNL     1       1.418   9.390  22.062  0.00  0.00    +0.000 C 
ATOM     14  H   UNL     1       2.850   6.342  20.234  0.00  0.00    +0.000 HD
ENDROOT
BRANCH   1  21
ATOM     15  C   UNL     1      -4.001  12.415  19.881  0.00  0.00    +0.000 C 
ATOM     16  C   UNL     1      -3.338  11.747  18.699  0.00  0.00    +0.000 A 
ATOM     17  C   UNL     1      -4.089  11.684  17.504  0.00  0.00    +0.000 A 
ATOM     18  C   UNL     1      -3.558  11.143  16.340  0.00  0.00    +0.000 A 
ATOM     19  C   UNL     1      -2.282  10.613  16.363  0.00  0.00    +0.000 A 
ATOM     20  C   UNL     1      -1.556  10.606  17.558  0.00  0.00    +0.000 A 
ATOM     21  C   UNL     1      -2.023  11.204  18.751  0.00  0.00    +0.000 A 
ENDBRANCH   1  21
BRANCH   3  22
ATOM     22  C   UNL     1      -0.758  13.638  22.687  0.00  0.00    +0.000 A 
ATOM     23  C   UNL     1      -1.773  13.821  23.635  0.00  0.00    +0.000 A 
ATOM     24  C   UNL     1      -1.858  15.009  24.362  0.00  0.00    +0.000 A 
ATOM     25  C   UNL     1      -0.921  15.997  24.113  0.00  0.00    +0.000 A 
ATOM     26  N   UNL     1       0.066  15.877  23.205  0.00  0.00    +0.000 NA
ATOM     27  C   UNL     1       0.120  14.705  22.520  0.00  0.00    +0.000 A 
ENDBRANCH   3  22
BRANCH  11  28
ATOM     28  C   UNL     1       3.815   6.098  18.430  0.00  0.00    +0.000 A 
ATOM     29  C   UNL     1       3.439   5.016  17.625  0.00  0.00    +0.000 A 
ATOM     30  C   UNL     1       4.371   4.366  16.820  0.00  0.00    +0.000 A 
ATOM     31  C   UNL     1       5.693   4.804  16.795  0.00  0.00    +0.000 A 
ATOM     32  C   UNL     1       6.085   5.905  17.568  0.00  0.00    +0.000 A 
ATOM     33  C   UNL     1       5.131   6.563  18.365  0.00  0.00    +0.000 A 
BRANCH  32  34
ATOM     34  C   UNL     1       7.519   6.370  17.552  0.00  0.00    +0.000 C 
ATOM     35  C   UNL     1       7.617   7.888  17.505  0.00  0.00    +0.000 C 
ATOM     36  F   UNL     1       8.213   5.950  18.654  0.00  0.00    +0.000 F 
ENDBRANCH  32  34
ENDBRANCH  11  28
TORSDOF 4
ENDMDL
MODEL 4
REMARK VINA RESULT:      -7.7      3.935     10.737
REMARK  Name = 
REMARK  6 active torsions:
REMARK  status: ('A' for Active; 'I' for Inactive)
REMARK    1  A    between atoms: C_1  and  C_2
REMARK    2  A    between atoms: C_7  and  C_8
REMARK    3  A    between atoms: C_10  and  C_11
REMARK    4  A    between atoms: N_24  and  C_25
REMARK    5  A    between atoms: C_29  and  C_30
REMARK    6  A    between atoms: C_30  and  C_31
REMARK                            x       y       z     vdW  Elec       q    Type
REMARK                         _______ _______ _______ _____ _____    ______ ____
ROOT
ATOM      1  C   UNL     1      -1.739  13.082  19.844  0.00  0.00    +0.000 A 
ATOM      2  N   UNL     1      -3.022  13.407  20.125  0.00  0.00    +0.000 NA
ATOM      3  C   UNL     1      -3.997  12.562  19.751  0.00  0.00    +0.000 A 
ATOM      4  N   UNL     1      -3.803  11.450  19.030  0.00  0.00    +0.000 NA
ATOM      5  C   UNL     1      -2.531  11.154  18.704  0.00  0.00    +0.000 A 
ATOM      6  C   UNL     1      -1.445  11.911  19.134  0.00  0.00    +0.000 A 
ATOM      7  C   UNL     1      -0.047  11.446  18.855  0.00  0.00    +0.000 C 
ATOM      8  N   UNL     1       0.055  10.121  18.259  0.00  0.00    +0.000 N 
ATOM      9  C   UNL     1       1.235   9.447  18.511  0.00  0.00    +0.000 C 
ATOM     10  O   UNL     1       2.078   9.945  19.256  0.00  0.00    +0.000 OA
ATOM     11  N   UNL     1       1.396   8.230  17.894  0.00  0.00    +0.000 N 
ATOM     12  C   UNL     1      -0.965   9.823  17.256  0.00  0.00    +0.000 C 
ATOM     13  C   UNL     1      -2.345   9.899  17.889  0.00  0.00    +0.000 C 
ATOM     14  H   UNL     1       0.918   8.087  17.024  0.00  0.00    +0.000 HD
ENDROOT
BRANCH   1  21
ATOM     15  C   UNL     1      -0.730  13.124  22.750  0.00  0.00    +0.000 C 
ATOM     16  C   UNL     1      -0.265  14.102  21.697  0.00  0.00    +0.000 A 
ATOM     17  C   UNL     1       0.677  15.072  22.106  0.00  0.00    +0.000 A 
ATOM     18  C   UNL     1       1.216  15.985  21.208  0.00  0.00    +0.000 A 
ATOM     19  C   UNL     1       0.787  15.973  19.894  0.00  0.00    +0.000 A 
ATOM     20  C   UNL     1      -0.196  15.063  19.494  0.00  0.00    +0.000 A 
ATOM     21  C   UNL     1      -0.726  14.071  20.350  0.00  0.00    +0.000 A 
ENDBRANCH   1  21
BRANCH   3  22
ATOM     22  C   UNL     1      -5.365  12.856  20.191  0.00  0.00    +0.000 A 
ATOM     23  C   UNL     1      -6.335  13.383  19.327  0.00  0.00    +0.000 A 
ATOM     24  C   UNL     1      -7.626  13.644  19.786  0.00  0.00    +0.000 A 
ATOM     25  C   UNL     1      -7.915  13.378  21.114  0.00  0.00    +0.000 A 
ATOM     26  N   UNL     1      -7.018  12.884  21.988  0.00  0.00    +0.000 NA
ATOM     27  C   UNL     1      -5.772  12.638  21.504  0.00  0.00    +0.000 A 
ENDBRANCH   3  22
BRANCH  11  28
ATOM     28  C   UNL     1       2.469   7.344  18.159  0.00  0.00    +0.000 A 
ATOM     29  C   UNL     1       2.455   6.422  19.211  0.00  0.00    +0.000 A 
ATOM     30  C   UNL     1       3.563   5.622  19.476  0.00  0.00    +0.000 A 
ATOM     31  C   UNL     1       4.699   5.722  18.675  0.00  0.00    +0.000 A 
ATOM     32  C   UNL     1       4.724   6.615  17.597  0.00  0.00    +0.000 A 
ATOM     33  C   UNL     1       3.593   7.407  17.331  0.00  0.00    +0.000 A 
BRANCH  32  34
ATOM     34  C   UNL     1       5.959   6.734  16.739  0.00  0.00    +0.000 C 
ATOM     35  C   UNL     1       7.229   6.675  17.574  0.00  0.00    +0.000 C 
ATOM     36  F   UNL     1       6.037   5.740  15.802  0.00  0.00    +0.000 F 
ENDBRANCH  32  34
ENDBRANCH  11  28
TORSDOF 4
ENDMDL
MODEL 5
REMARK VINA RESULT:      -7.6      3.207      9.874
REMARK  Name = 
REMARK  6 active torsions:
REMARK  status: ('A' for Active; 'I' for Inactive)
REMARK    1  A    between atoms: C_1  and  C_2
REMARK    2  A    between atoms: C_7  and  C_8
REMARK    3  A    between atoms: C_10  and  C_11
REMARK    4  A    between atoms: N_24  and  C_25
REMARK    5  A    between atoms: C_29  and  C_30
REMARK    6  A    between atoms: C_30  and  C_31
REMARK                            x       y       z     vdW  Elec       q    Type
REMARK                         _______ _______ _______ _____ _____    ______ ____
ROOT
ATOM      1  C   UNL     1      -0.970  10.917  19.960  0.00  0.00    +0.000 A 
ATOM      2  N   UNL     1      -1.238  12.001  20.726  0.00  0.00    +0.000 NA
ATOM      3  C   UNL     1      -0.592  12.137  21.896  0.00  0.00    +0.000 A 
ATOM      4  N   UNL     1       0.240  11.225  22.415  0.00  0.00    +0.000 NA
ATOM      5  C   UNL     1       0.466  10.122  21.678  0.00  0.00    +0.000 A 
ATOM      6  C   UNL     1      -0.074   9.939  20.408  0.00  0.00    +0.000 A 
ATOM      7  C   UNL     1       0.331   8.753  19.583  0.00  0.00    +0.000 C 
ATOM      8  N   UNL     1       1.402   7.945  20.149  0.00  0.00    +0.000 N 
ATOM      9  C   UNL     1       2.166   7.247  19.233  0.00  0.00    +0.000 C 
ATOM     10  O   UNL     1       1.963   7.392  18.029  0.00  0.00    +0.000 OA
ATOM     11  N   UNL     1       3.130   6.409  19.742  0.00  0.00    +0.000 N 
ATOM     12  C   UNL     1       1.327   7.762  21.598  0.00  0.00    +0.000 C 
ATOM     13  C   UNL     1       1.404   9.113  22.291  0.00  0.00    +0.000 C 
ATOM     14  H   UNL     1       2.972   6.023  20.654  0.00  0.00    +0.000 HD
ENDROOT
BRANCH   1  21
ATOM     15  C   UNL     1      -0.620  13.060  17.780  0.00  0.00    +0.000 C 
ATOM     16  C   UNL     1      -1.558  11.884  17.644  0.00  0.00    +0.000 A 
ATOM     17  C   UNL     1      -2.298  11.801  16.443  0.00  0.00    +0.000 A 
ATOM     18  C   UNL     1      -3.148  10.732  16.187  0.00  0.00    +0.000 A 
ATOM     19  C   UNL     1      -3.308   9.750  17.147  0.00  0.00    +0.000 A 
ATOM     20  C   UNL     1      -2.634   9.859  18.367  0.00  0.00    +0.000 A 
ATOM     21  C   UNL     1      -1.708  10.889  18.651  0.00  0.00    +0.000 A 
ENDBRANCH   1  21
BRANCH   3  22
ATOM     22  C   UNL     1      -0.785  13.385  22.643  0.00  0.00    +0.000 A 
ATOM     23  C   UNL     1      -1.727  13.507  23.673  0.00  0.00    +0.000 A 
ATOM     24  C   UNL     1      -1.873  14.712  24.360  0.00  0.00    +0.000 A 
ATOM     25  C   UNL     1      -1.071  15.779  23.990  0.00  0.00    +0.000 A 
ATOM     26  N   UNL     1      -0.160  15.718  23.000  0.00  0.00    +0.000 NA
ATOM     27  C   UNL     1      -0.043  14.528  22.356  0.00  0.00    +0.000 A 
ENDBRANCH   3  22
BRANCH  11  28
ATOM     28  C   UNL     1       4.094   5.740  18.949  0.00  0.00    +0.000 A 
ATOM     29  C   UNL     1       3.858   4.498  18.348  0.00  0.00    +0.000 A 
ATOM     30  C   UNL     1       4.862   3.846  17.638  0.00  0.00    +0.000 A 
ATOM     31  C   UNL     1       6.115   4.439  17.502  0.00  0.00    +0.000 A 
ATOM     32  C   UNL     1       6.363   5.697  18.067  0.00  0.00    +0.000 A 
ATOM     33  C   UNL     1       5.337   6.352  18.770  0.00  0.00    +0.000 A 
BRANCH  32  34
ATOM     34  C   UNL     1       7.724   6.332  17.933  0.00  0.00    +0.000 C 
ATOM     35  C   UNL     1       7.623   7.791  17.513  0.00  0.00    +0.000 C 
ATOM     36  F   UNL     1       8.434   6.291  19.102  0.00  0.00    +0.000 F 
ENDBRANCH  32  34
ENDBRANCH  11  28
TORSDOF 4
ENDMDL
MODEL 6
REMARK VINA RESULT:      -7.5      3.747     10.338
REMARK  Name = 
REMARK  6 active torsions:
REMARK  status: ('A' for Active; 'I' for Inactive)
REMARK    1  A    between atoms: C_1  and  C_2
REMARK    2  A    between atoms: C_7  and  C_8
REMARK    3  A    between atoms: C_10  and  C_11
REMARK    4  A    between atoms: N_24  and  C_25
REMARK    5  A    between atoms: C_29  and  C_30
REMARK    6  A    between atoms: C_30  and  C_31
REMARK                            x       y       z     vdW  Elec       q    Type
REMARK                         _______ _______ _______ _____ _____    ______ ____
ROOT
ATOM      1  C   UNL     1      -1.494  11.963  19.484  0.00  0.00    +0.000 A 
ATOM      2  N   UNL     1      -1.623  13.164  20.095  0.00  0.00    +0.000 NA
ATOM      3  C   UNL     1      -0.756  13.486  21.069  0.00  0.00    +0.000 A 
ATOM      4  N   UNL     1       0.183  12.664  21.554  0.00  0.00    +0.000 NA
ATOM      5  C   UNL     1       0.277  11.448  20.982  0.00  0.00    +0.000 A 
ATOM      6  C   UNL     1      -0.505  11.061  19.898  0.00  0.00    +0.000 A 
ATOM      7  C   UNL     1      -0.252   9.748  19.219  0.00  0.00    +0.000 C 
ATOM      8  N   UNL     1       0.929   9.032  19.683  0.00  0.00    +0.000 N 
ATOM      9  C   UNL     1       1.504   8.178  18.761  0.00  0.00    +0.000 C 
ATOM     10  O   UNL     1       1.058   8.121  17.616  0.00  0.00    +0.000 OA
ATOM     11  N   UNL     1       2.569   7.425  19.195  0.00  0.00    +0.000 N 
ATOM     12  C   UNL     1       1.154   9.097  21.126  0.00  0.00    +0.000 C 
ATOM     13  C   UNL     1       1.341  10.544  21.552  0.00  0.00    +0.000 C 
ATOM     14  H   UNL     1       2.607   7.200  20.172  0.00  0.00    +0.000 HD
ENDROOT
BRANCH   1  21
ATOM     15  C   UNL     1      -4.532  12.299  19.833  0.00  0.00    +0.000 C 
ATOM     16  C   UNL     1      -3.889  11.867  18.536  0.00  0.00    +0.000 A 
ATOM     17  C   UNL     1      -4.760  11.609  17.454  0.00  0.00    +0.000 A 
ATOM     18  C   UNL     1      -4.275  11.259  16.199  0.00  0.00    +0.000 A 
ATOM     19  C   UNL     1      -2.912  11.118  16.018  0.00  0.00    +0.000 A 
ATOM     20  C   UNL     1      -2.045  11.303  17.099  0.00  0.00    +0.000 A 
ATOM     21  C   UNL     1      -2.482  11.724  18.377  0.00  0.00    +0.000 A 
ENDBRANCH   1  21
BRANCH   3  22
ATOM     22  C   UNL     1      -0.818  14.845  21.619  0.00  0.00    +0.000 A 
ATOM     23  C   UNL     1      -1.611  15.851  21.050  0.00  0.00    +0.000 A 
ATOM     24  C   UNL     1      -1.643  17.128  21.609  0.00  0.00    +0.000 A 
ATOM     25  C   UNL     1      -0.868  17.373  22.730  0.00  0.00    +0.000 A 
ATOM     26  N   UNL     1      -0.080  16.446  23.308  0.00  0.00    +0.000 NA
ATOM     27  C   UNL     1      -0.077  15.212  22.739  0.00  0.00    +0.000 A 
ENDBRANCH   3  22
BRANCH  11  28
ATOM     28  C   UNL     1       3.365   6.618  18.347  0.00  0.00    +0.000 A 
ATOM     29  C   UNL     1       4.243   7.148  17.394  0.00  0.00    +0.000 A 
ATOM     30  C   UNL     1       4.952   6.314  16.534  0.00  0.00    +0.000 A 
ATOM     31  C   UNL     1       4.805   4.931  16.629  0.00  0.00    +0.000 A 
ATOM     32  C   UNL     1       3.957   4.378  17.597  0.00  0.00    +0.000 A 
ATOM     33  C   UNL     1       3.259   5.231  18.470  0.00  0.00    +0.000 A 
BRANCH  32  34
ATOM     34  C   UNL     1       3.788   2.883  17.691  0.00  0.00    +0.000 C 
ATOM     35  C   UNL     1       3.892   2.395  19.128  0.00  0.00    +0.000 C 
ATOM     36  F   UNL     1       2.578   2.467  17.204  0.00  0.00    +0.000 F 
ENDBRANCH  32  34
ENDBRANCH  11  28
TORSDOF 4
ENDMDL
MODEL 7
REMARK VINA RESULT:      -7.5      3.699     11.060
REMARK  Name = 
REMARK  6 active torsions:
REMARK  status: ('A' for Active; 'I' for Inactive)
REMARK    1  A    between atoms: C_1  and  C_2
REMARK    2  A    between atoms: C_7  and  C_8
REMARK    3  A    between atoms: C_10  and  C_11
REMARK    4  A    between atoms: N_24  and  C_25
REMARK    5  A    between atoms: C_29  and  C_30
REMARK    6  A    between atoms: C_30  and  C_31
REMARK                            x       y       z     vdW  Elec       q    Type
REMARK                         _______ _______ _______ _____ _____    ______ ____
ROOT
ATOM      1  C   UNL     1       0.777  14.241  20.322  0.00  0.00    +0.000 A 
ATOM      2  N   UNL     1       0.255  14.908  21.378  0.00  0.00    +0.000 NA
ATOM      3  C   UNL     1      -0.484  14.225  22.269  0.00  0.00    +0.000 A 
ATOM      4  N   UNL     1      -0.826  12.937  22.144  0.00  0.00    +0.000 NA
ATOM      5  C   UNL     1      -0.351  12.286  21.065  0.00  0.00    +0.000 A 
ATOM      6  C   UNL     1       0.507  12.878  20.143  0.00  0.00    +0.000 A 
ATOM      7  C   UNL     1       1.111  12.056  19.044  0.00  0.00    +0.000 C 
ATOM      8  N   UNL     1       0.849  10.626  19.127  0.00  0.00    +0.000 N 
ATOM      9  C   UNL     1       1.797   9.814  18.534  0.00  0.00    +0.000 C 
ATOM     10  O   UNL     1       2.813  10.310  18.050  0.00  0.00    +0.000 OA
ATOM     11  N   UNL     1       1.535   8.464  18.523  0.00  0.00    +0.000 N 
ATOM     12  C   UNL     1      -0.504  10.278  19.560  0.00  0.00    +0.000 C 
ATOM     13  C   UNL     1      -0.757  10.838  20.951  0.00  0.00    +0.000 C 
ATOM     14  H   UNL     1       0.573   8.180  18.531  0.00  0.00    +0.000 HD
ENDROOT
BRANCH   1  21
ATOM     15  C   UNL     1      -0.364  16.476  18.542  0.00  0.00    +0.000 C 
ATOM     16  C   UNL     1       1.102  16.114  18.582  0.00  0.00    +0.000 A 
ATOM     17  C   UNL     1       1.961  16.858  17.742  0.00  0.00    +0.000 A 
ATOM     18  C   UNL     1       3.334  16.649  17.739  0.00  0.00    +0.000 A 
ATOM     19  C   UNL     1       3.869  15.660  18.543  0.00  0.00    +0.000 A 
ATOM     20  C   UNL     1       3.021  14.871  19.327  0.00  0.00    +0.000 A 
ATOM     21  C   UNL     1       1.627  15.086  19.416  0.00  0.00    +0.000 A 
ENDBRANCH   1  21
BRANCH   3  22
ATOM     22  C   UNL     1      -0.919  14.929  23.480  0.00  0.00    +0.000 A 
ATOM     23  C   UNL     1      -1.990  14.483  24.265  0.00  0.00    +0.000 A 
ATOM     24  C   UNL     1      -2.367  15.182  25.413  0.00  0.00    +0.000 A 
ATOM     25  C   UNL     1      -1.662  16.326  25.744  0.00  0.00    +0.000 A 
ATOM     26  N   UNL     1      -0.633  16.804  25.018  0.00  0.00    +0.000 NA
ATOM     27  C   UNL     1      -0.292  16.096  23.910  0.00  0.00    +0.000 A 
ENDBRANCH   3  22
BRANCH  11  28
ATOM     28  C   UNL     1       2.462   7.483  18.094  0.00  0.00    +0.000 A 
ATOM     29  C   UNL     1       3.678   7.799  17.478  0.00  0.00    +0.000 A 
ATOM     30  C   UNL     1       4.523   6.798  17.009  0.00  0.00    +0.000 A 
ATOM     31  C   UNL     1       4.171   5.459  17.169  0.00  0.00    +0.000 A 
ATOM     32  C   UNL     1       2.974   5.119  17.812  0.00  0.00    +0.000 A 
ATOM     33  C   UNL     1       2.135   6.139  18.294  0.00  0.00    +0.000 A 
BRANCH  32  34
ATOM     34  C   UNL     1       2.585   3.671  17.972  0.00  0.00    +0.000 C 
ATOM     35  C   UNL     1       1.239   3.524  18.667  0.00  0.00    +0.000 C 
ATOM     36  F   UNL     1       2.497   3.021  16.770  0.00  0.00    +0.000 F 
ENDBRANCH  32  34
ENDBRANCH  11  28
TORSDOF 4
ENDMDL
MODEL 8
REMARK VINA RESULT:      -7.4      3.635     11.674
REMARK  Name = 
REMARK  6 active torsions:
REMARK  status: ('A' for Active; 'I' for Inactive)
REMARK    1  A    between atoms: C_1  and  C_2
REMARK    2  A    between atoms: C_7  and  C_8
REMARK    3  A    between atoms: C_10  and  C_11
REMARK    4  A    between atoms: N_24  and  C_25
REMARK    5  A    between atoms: C_29  and  C_30
REMARK    6  A    between atoms: C_30  and  C_31
REMARK                            x       y       z     vdW  Elec       q    Type
REMARK                         _______ _______ _______ _____ _____    ______ ____
ROOT
ATOM      1  C   UNL     1      -0.208  15.553  21.419  0.00  0.00    +0.000 A 
ATOM      2  N   UNL     1      -0.416  16.310  22.521  0.00  0.00    +0.000 NA
ATOM      3  C   UNL     1      -0.699  15.694  23.681  0.00  0.00    +0.000 A 
ATOM      4  N   UNL     1      -0.886  14.375  23.814  0.00  0.00    +0.000 NA
ATOM      5  C   UNL     1      -0.731  13.625  22.706  0.00  0.00    +0.000 A 
ATOM      6  C   UNL     1      -0.335  14.159  21.483  0.00  0.00    +0.000 A 
ATOM      7  C   UNL     1      -0.044  13.251  20.326  0.00  0.00    +0.000 C 
ATOM      8  N   UNL     1      -0.065  11.829  20.638  0.00  0.00    +0.000 N 
ATOM      9  C   UNL     1       0.719  11.032  19.824  0.00  0.00    +0.000 C 
ATOM     10  O   UNL     1       1.426  11.547  18.960  0.00  0.00    +0.000 OA
ATOM     11  N   UNL     1       0.656   9.676  20.040  0.00  0.00    +0.000 N 
ATOM     12  C   UNL     1      -1.122  11.422  21.562  0.00  0.00    +0.000 C 
ATOM     13  C   UNL     1      -0.951  12.145  22.888  0.00  0.00    +0.000 C 
ATOM     14  H   UNL     1      -0.196   9.309  20.424  0.00  0.00    +0.000 HD
ENDROOT
BRANCH   1  21
ATOM     15  C   UNL     1       2.693  16.138  20.580  0.00  0.00    +0.000 C 
ATOM     16  C   UNL     1       1.492  16.622  19.802  0.00  0.00    +0.000 A 
ATOM     17  C   UNL     1       1.754  17.382  18.641  0.00  0.00    +0.000 A 
ATOM     18  C   UNL     1       0.727  17.830  17.819  0.00  0.00    +0.000 A 
ATOM     19  C   UNL     1      -0.583  17.564  18.170  0.00  0.00    +0.000 A 
ATOM     20  C   UNL     1      -0.857  16.872  19.354  0.00  0.00    +0.000 A 
ATOM     21  C   UNL     1       0.151  16.338  20.189  0.00  0.00    +0.000 A 
ENDBRANCH   1  21
BRANCH   3  22
ATOM     22  C   UNL     1      -0.778  16.517  24.892  0.00  0.00    +0.000 A 
ATOM     23  C   UNL     1      -0.346  16.057  26.143  0.00  0.00    +0.000 A 
ATOM     24  C   UNL     1      -0.435  16.876  27.269  0.00  0.00    +0.000 A 
ATOM     25  C   UNL     1      -0.968  18.145  27.116  0.00  0.00    +0.000 A 
ATOM     26  N   UNL     1      -1.409  18.631  25.939  0.00  0.00    +0.000 NA
ATOM     27  C   UNL     1      -1.302  17.807  24.864  0.00  0.00    +0.000 A 
ENDBRANCH   3  22
BRANCH  11  28
ATOM     28  C   UNL     1       1.500   8.734  19.404  0.00  0.00    +0.000 A 
ATOM     29  C   UNL     1       1.979   8.898  18.099  0.00  0.00    +0.000 A 
ATOM     30  C   UNL     1       2.748   7.910  17.491  0.00  0.00    +0.000 A 
ATOM     31  C   UNL     1       3.065   6.747  18.190  0.00  0.00    +0.000 A 
ATOM     32  C   UNL     1       2.624   6.576  19.509  0.00  0.00    +0.000 A 
ATOM     33  C   UNL     1       1.861   7.588  20.117  0.00  0.00    +0.000 A 
BRANCH  32  34
ATOM     34  C   UNL     1       2.956   5.312  20.261  0.00  0.00    +0.000 C 
ATOM     35  C   UNL     1       1.858   4.269  20.116  0.00  0.00    +0.000 C 
ATOM     36  F   UNL     1       4.122   4.742  19.829  0.00  0.00    +0.000 F 
ENDBRANCH  32  34
ENDBRANCH  11  28
TORSDOF 4
ENDMDL
MODEL 9
REMARK VINA RESULT:      -7.3      3.946     10.766
REMARK  Name = 
REMARK  6 active torsions:
REMARK  status: ('A' for Active; 'I' for Inactive)
REMARK    1  A    between atoms: C_1  and  C_2
REMARK    2  A    between atoms: C_7  and  C_8
REMARK    3  A    between atoms: C_10  and  C_11
REMARK    4  A    between atoms: N_24  and  C_25
REMARK    5  A    between atoms: C_29  and  C_30
REMARK    6  A    between atoms: C_30  and  C_31
REMARK                            x       y       z     vdW  Elec       q    Type
REMARK                         _______ _______ _______ _____ _____    ______ ____
ROOT
ATOM      1  C   UNL     1      -1.698  13.081  19.995  0.00  0.00    +0.000 A 
ATOM      2  N   UNL     1      -2.984  13.420  20.246  0.00  0.00    +0.000 NA
ATOM      3  C   UNL     1      -3.962  12.624  19.783  0.00  0.00    +0.000 A 
ATOM      4  N   UNL     1      -3.765  11.555  19.001  0.00  0.00    +0.000 NA
ATOM      5  C   UNL     1      -2.488  11.247  18.707  0.00  0.00    +0.000 A 
ATOM      6  C   UNL     1      -1.403  11.948  19.225  0.00  0.00    +0.000 A 
ATOM      7  C   UNL     1      -0.006  11.466  18.971  0.00  0.00    +0.000 C 
ATOM      8  N   UNL     1       0.090  10.178  18.298  0.00  0.00    +0.000 N 
ATOM      9  C   UNL     1       1.243   9.460  18.552  0.00  0.00    +0.000 C 
ATOM     10  O   UNL     1       2.066   9.889  19.359  0.00  0.00    +0.000 OA
ATOM     11  N   UNL     1       1.401   8.279  17.867  0.00  0.00    +0.000 N 
ATOM     12  C   UNL     1      -0.896   9.969  17.239  0.00  0.00    +0.000 C 
ATOM     13  C   UNL     1      -2.299  10.040  17.822  0.00  0.00    +0.000 C 
ATOM     14  H   UNL     1       0.955   8.202  16.971  0.00  0.00    +0.000 HD
ENDROOT
BRANCH   1  21
ATOM     15  C   UNL     1      -0.056  15.091  18.344  0.00  0.00    +0.000 C 
ATOM     16  C   UNL     1       0.087  14.934  19.839  0.00  0.00    +0.000 A 
ATOM     17  C   UNL     1       1.035  15.766  20.475  0.00  0.00    +0.000 A 
ATOM     18  C   UNL     1       1.210  15.746  21.854  0.00  0.00    +0.000 A 
ATOM     19  C   UNL     1       0.470  14.861  22.616  0.00  0.00    +0.000 A 
ATOM     20  C   UNL     1      -0.421  13.984  21.989  0.00  0.00    +0.000 A 
ATOM     21  C   UNL     1      -0.684  14.010  20.600  0.00  0.00    +0.000 A 
ENDBRANCH   1  21
BRANCH   3  22
ATOM     22  C   UNL     1      -5.339  12.926  20.187  0.00  0.00    +0.000 A 
ATOM     23  C   UNL     1      -6.220  11.939  20.650  0.00  0.00    +0.000 A 
ATOM     24  C   UNL     1      -7.521  12.272  21.028  0.00  0.00    +0.000 A 
ATOM     25  C   UNL     1      -7.916  13.595  20.923  0.00  0.00    +0.000 A 
ATOM     26  N   UNL     1      -7.114  14.579  20.473  0.00  0.00    +0.000 NA
ATOM     27  C   UNL     1      -5.853  14.218  20.119  0.00  0.00    +0.000 A 
ENDBRANCH   3  22
BRANCH  11  28
ATOM     28  C   UNL     1       2.441   7.353  18.117  0.00  0.00    +0.000 A 
ATOM     29  C   UNL     1       3.671   7.388  17.449  0.00  0.00    +0.000 A 
ATOM     30  C   UNL     1       4.637   6.412  17.678  0.00  0.00    +0.000 A 
ATOM     31  C   UNL     1       4.391   5.393  18.596  0.00  0.00    +0.000 A 
ATOM     32  C   UNL     1       3.181   5.357  19.300  0.00  0.00    +0.000 A 
ATOM     33  C   UNL     1       2.220   6.357  19.071  0.00  0.00    +0.000 A 
BRANCH  32  34
ATOM     34  C   UNL     1       2.909   4.246  20.283  0.00  0.00    +0.000 C 
ATOM     35  C   UNL     1       1.474   3.750  20.187  0.00  0.00    +0.000 C 
ATOM     36  F   UNL     1       3.729   3.168  20.087  0.00  0.00    +0.000 F 
ENDBRANCH  32  34
ENDBRANCH  11  28
TORSDOF 4
ENDMDL
