MODEL 1
REMARK VINA RESULT:      -7.6      0.000      0.000
REMARK  Name = 
REMARK  8 active torsions:
REMARK  status: ('A' for Active; 'I' for Inactive)
REMARK    1  A    between atoms: C_1  and  S_2
REMARK    2  A    between atoms: S_2  and  C_3
REMARK    3  A    between atoms: C_6  and  C_7
REMARK    4  A    between atoms: C_7  and  C_8
REMARK    5  A    between atoms: C_8  and  N_9
REMARK    6  A    between atoms: C_10  and  C_12
REMARK    7  A    between atoms: C_13  and  C_14
REMARK    8  A    between atoms: N_19  and  C_20
REMARK                            x       y       z     vdW  Elec       q    Type
REMARK                         _______ _______ _______ _____ _____    ______ ____
ROOT
ATOM      1  N   UNL     1       2.215   7.644  20.076  0.00  0.00    +0.000 N 
ATOM      2  C   UNL     1       2.583   7.202  18.828  0.00  0.00    +0.000 C 
ATOM      3  O   UNL     1       2.178   7.732  17.794  0.00  0.00    +0.000 OA
ATOM      4  H   UNL     1       2.721   7.308  20.888  0.00  0.00    +0.000 HD
ENDROOT
BRANCH   2   5
ATOM      5  C   UNL     1       3.463   6.051  18.815  0.00  0.00    +0.000 A 
ATOM      6  C   UNL     1       4.651   5.961  18.101  0.00  0.00    +0.000 A 
ATOM      7  C   UNL     1       5.368   6.879  17.184  0.00  0.00    +0.000 C 
ATOM      8  O   UNL     1       5.237   4.742  18.305  0.00  0.00    +0.000 OA
ATOM      9  C   UNL     1       4.447   4.045  19.171  0.00  0.00    +0.000 A 
ATOM     10  N   UNL     1       4.732   2.801  19.621  0.00  0.00    +0.000 NA
ATOM     11  C   UNL     1       3.857   2.344  20.465  0.00  0.00    +0.000 A 
ATOM     12  N   UNL     1       2.720   3.010  20.893  0.00  0.00    +0.000 N 
ATOM     13  C   UNL     1       1.802   2.399  21.832  0.00  0.00    +0.000 C 
ATOM     14  C   UNL     1       2.389   4.270  20.411  0.00  0.00    +0.000 A 
ATOM     15  O   UNL     1       1.353   4.861  20.709  0.00  0.00    +0.000 OA
ATOM     16  C   UNL     1       3.355   4.812  19.495  0.00  0.00    +0.000 A 
ENDBRANCH   2   5
BRANCH   1  17
ATOM     17  C   UNL     1       1.374   8.806  20.255  0.00  0.00    +0.000 C 
BRANCH  17  18
ATOM     18  C   UNL     1       0.612   8.755  21.578  0.00  0.00    +0.000 C 
BRANCH  18  22
ATOM     19  C   UNL     1      -1.917  12.224  22.069  0.00  0.00    +0.000 A 
ATOM     20  C   UNL     1      -1.378  11.914  20.819  0.00  0.00    +0.000 A 
ATOM     21  C   UNL     1      -0.565  10.789  20.662  0.00  0.00    +0.000 A 
ATOM     22  C   UNL     1      -0.280   9.959  21.754  0.00  0.00    +0.000 A 
ATOM     23  C   UNL     1      -0.809  10.285  23.010  0.00  0.00    +0.000 A 
ATOM     24  C   UNL     1      -1.623  11.411  23.165  0.00  0.00    +0.000 A 
BRANCH  19  26
ATOM     25  C   UNL     1      -4.172  13.265  20.960  0.00  0.00    +0.000 C 
ATOM     26  S   UNL     1      -2.972  13.646  22.262  0.00  0.00    +0.000 S 
ENDBRANCH  19  26
ENDBRANCH  18  22
ENDBRANCH  17  18
ENDBRANCH   1  17
TORSDOF 5
ENDMDL
MODEL 2
REMARK VINA RESULT:      -7.5      5.646      7.581
REMARK  Name = 
REMARK  8 active torsions:
REMARK  status: ('A' for Active; 'I' for Inactive)
REMARK    1  A    between atoms: C_1  and  S_2
REMARK    2  A    between atoms: S_2  and  C_3
REMARK    3  A    between atoms: C_6  and  C_7
REMARK    4  A    between atoms: C_7  and  C_8
REMARK    5  A    between atoms: C_8  and  N_9
REMARK    6  A    between atoms: C_10  and  C_12
REMARK    7  A    between atoms: C_13  and  C_14
REMARK    8  A    between atoms: N_19  and  C_20
REMARK                            x       y       z     vdW  Elec       q    Type
REMARK                         _______ _______ _______ _____ _____    ______ ____
ROOT
ATOM      1  N   UNL     1       7.159   7.082  17.646  0.00  0.00    +0.000 N 
ATOM      2  C   UNL     1       7.054   5.759  18.003  0.00  0.00    +0.000 C 
ATOM      3  O   UNL     1       7.825   5.228  18.802  0.00  0.00    +0.000 OA
ATOM      4  H   UNL     1       6.394   7.521  17.145  0.00  0.00    +0.000 HD
ENDROOT
BRANCH   2   5
ATOM      5  C   UNL     1       5.987   5.026  17.353  0.00  0.00    +0.000 A 
ATOM      6  C   UNL     1       6.024   4.548  16.049  0.00  0.00    +0.000 A 
ATOM      7  C   UNL     1       7.028   4.615  14.961  0.00  0.00    +0.000 C 
ATOM      8  O   UNL     1       4.857   3.901  15.746  0.00  0.00    +0.000 OA
ATOM      9  C   UNL     1       4.067   3.935  16.857  0.00  0.00    +0.000 A 
ATOM     10  N   UNL     1       2.841   3.368  16.931  0.00  0.00    +0.000 NA
ATOM     11  C   UNL     1       2.283   3.492  18.097  0.00  0.00    +0.000 A 
ATOM     12  N   UNL     1       2.832   4.140  19.193  0.00  0.00    +0.000 N 
ATOM     13  C   UNL     1       2.114   4.231  20.447  0.00  0.00    +0.000 C 
ATOM     14  C   UNL     1       4.071   4.765  19.123  0.00  0.00    +0.000 A 
ATOM     15  O   UNL     1       4.558   5.412  20.048  0.00  0.00    +0.000 OA
ATOM     16  C   UNL     1       4.724   4.618  17.851  0.00  0.00    +0.000 A 
ENDBRANCH   2   5
BRANCH   1  17
ATOM     17  C   UNL     1       8.147   7.955  18.239  0.00  0.00    +0.000 C 
BRANCH  17  18
ATOM     18  C   UNL     1       8.296   9.257  17.454  0.00  0.00    +0.000 C 
BRANCH  18  22
ATOM     19  C   UNL     1       9.704  12.496  19.943  0.00  0.00    +0.000 A 
ATOM     20  C   UNL     1       9.217  12.752  18.660  0.00  0.00    +0.000 A 
ATOM     21  C   UNL     1       8.757  11.703  17.860  0.00  0.00    +0.000 A 
ATOM     22  C   UNL     1       8.779  10.384  18.332  0.00  0.00    +0.000 A 
ATOM     23  C   UNL     1       9.287  10.131  19.613  0.00  0.00    +0.000 A 
ATOM     24  C   UNL     1       9.746  11.182  20.414  0.00  0.00    +0.000 A 
BRANCH  19  26
ATOM     25  C   UNL     1      11.521  14.519  19.856  0.00  0.00    +0.000 C 
ATOM     26  S   UNL     1      10.268  13.836  20.971  0.00  0.00    +0.000 S 
ENDBRANCH  19  26
ENDBRANCH  18  22
ENDBRANCH  17  18
ENDBRANCH   1  17
TORSDOF 5
ENDMDL
MODEL 3
REMARK VINA RESULT:      -7.5      0.554      1.161
REMARK  Name = 
REMARK  8 active torsions:
REMARK  status: ('A' for Active; 'I' for Inactive)
REMARK    1  A    between atoms: C_1  and  S_2
REMARK    2  A    between atoms: S_2  and  C_3
REMARK    3  A    between atoms: C_6  and  C_7
REMARK    4  A    between atoms: C_7  and  C_8
REMARK    5  A    between atoms: C_8  and  N_9
REMARK    6  A    between atoms: C_10  and  C_12
REMARK    7  A    between atoms: C_13  and  C_14
REMARK    8  A    between atoms: N_19  and  C_20
REMARK                            x       y       z     vdW  Elec       q    Type
REMARK                         _______ _______ _______ _____ _____    ______ ____
ROOT
ATOM      1  N   UNL     1       2.182   7.658  20.064  0.00  0.00    +0.000 N 
ATOM      2  C   UNL     1       2.559   7.199  18.825  0.00  0.00    +0.000 C 
ATOM      3  O   UNL     1       2.159   7.714  17.781  0.00  0.00    +0.000 OA
ATOM      4  H   UNL     1       2.683   7.334  20.884  0.00  0.00    +0.000 HD
ENDROOT
BRANCH   2   5
ATOM      5  C   UNL     1       3.441   6.050  18.832  0.00  0.00    +0.000 A 
ATOM      6  C   UNL     1       4.642   5.958  18.141  0.00  0.00    +0.000 A 
ATOM      7  C   UNL     1       5.374   6.873  17.233  0.00  0.00    +0.000 C 
ATOM      8  O   UNL     1       5.227   4.742  18.362  0.00  0.00    +0.000 OA
ATOM      9  C   UNL     1       4.422   4.047  19.216  0.00  0.00    +0.000 A 
ATOM     10  N   UNL     1       4.701   2.806  19.677  0.00  0.00    +0.000 NA
ATOM     11  C   UNL     1       3.812   2.351  20.507  0.00  0.00    +0.000 A 
ATOM     12  N   UNL     1       2.665   3.016  20.911  0.00  0.00    +0.000 N 
ATOM     13  C   UNL     1       1.732   2.408  21.836  0.00  0.00    +0.000 C 
ATOM     14  C   UNL     1       2.341   4.274  20.417  0.00  0.00    +0.000 A 
ATOM     15  O   UNL     1       1.299   4.864  20.693  0.00  0.00    +0.000 OA
ATOM     16  C   UNL     1       3.323   4.813  19.517  0.00  0.00    +0.000 A 
ENDBRANCH   2   5
BRANCH   1  17
ATOM     17  C   UNL     1       1.338   8.820  20.221  0.00  0.00    +0.000 C 
BRANCH  17  18
ATOM     18  C   UNL     1       0.501   8.744  21.498  0.00  0.00    +0.000 C 
BRANCH  18  22
ATOM     19  C   UNL     1      -1.901  12.288  22.080  0.00  0.00    +0.000 A 
ATOM     20  C   UNL     1      -1.575  11.469  23.163  0.00  0.00    +0.000 A 
ATOM     21  C   UNL     1      -0.794  10.327  22.973  0.00  0.00    +0.000 A 
ATOM     22  C   UNL     1      -0.328   9.989  21.696  0.00  0.00    +0.000 A 
ATOM     23  C   UNL     1      -0.673  10.803  20.609  0.00  0.00    +0.000 A 
ATOM     24  C   UNL     1      -1.455  11.947  20.802  0.00  0.00    +0.000 A 
BRANCH  19  26
ATOM     25  C   UNL     1      -3.350  13.474  24.053  0.00  0.00    +0.000 C 
ATOM     26  S   UNL     1      -2.877  13.756  22.328  0.00  0.00    +0.000 S 
ENDBRANCH  19  26
ENDBRANCH  18  22
ENDBRANCH  17  18
ENDBRANCH   1  17
TORSDOF 5
ENDMDL
MODEL 4
REMARK VINA RESULT:      -7.5      1.873      2.634
REMARK  Name = 
REMARK  8 active torsions:
REMARK  status: ('A' for Active; 'I' for Inactive)
REMARK    1  A    between atoms: C_1  and  S_2
REMARK    2  A    between atoms: S_2  and  C_3
REMARK    3  A    between atoms: C_6  and  C_7
REMARK    4  A    between atoms: C_7  and  C_8
REMARK    5  A    between atoms: C_8  and  N_9
REMARK    6  A    between atoms: C_10  and  C_12
REMARK    7  A    between atoms: C_13  and  C_14
REMARK    8  A    between atoms: N_19  and  C_20
REMARK                            x       y       z     vdW  Elec       q    Type
REMARK                         _______ _______ _______ _____ _____    ______ ____
ROOT
ATOM      1  N   UNL     1       3.356   7.441  18.179  0.00  0.00    +0.000 N 
ATOM      2  C   UNL     1       4.304   6.680  17.539  0.00  0.00    +0.000 C 
ATOM      3  O   UNL     1       4.807   7.017  16.467  0.00  0.00    +0.000 OA
ATOM      4  H   UNL     1       3.118   7.226  19.141  0.00  0.00    +0.000 HD
ENDROOT
BRANCH   2   5
ATOM      5  C   UNL     1       4.652   5.439  18.201  0.00  0.00    +0.000 A 
ATOM      6  C   UNL     1       5.915   5.113  18.677  0.00  0.00    +0.000 A 
ATOM      7  C   UNL     1       7.223   5.810  18.673  0.00  0.00    +0.000 C 
ATOM      8  O   UNL     1       5.902   3.870  19.247  0.00  0.00    +0.000 OA
ATOM      9  C   UNL     1       4.628   3.392  19.166  0.00  0.00    +0.000 A 
ATOM     10  N   UNL     1       4.236   2.193  19.654  0.00  0.00    +0.000 NA
ATOM     11  C   UNL     1       2.968   1.959  19.496  0.00  0.00    +0.000 A 
ATOM     12  N   UNL     1       2.058   2.807  18.887  0.00  0.00    +0.000 N 
ATOM     13  C   UNL     1       0.664   2.440  18.753  0.00  0.00    +0.000 C 
ATOM     14  C   UNL     1       2.449   4.025  18.343  0.00  0.00    +0.000 A 
ATOM     15  O   UNL     1       1.688   4.770  17.730  0.00  0.00    +0.000 OA
ATOM     16  C   UNL     1       3.843   4.322  18.528  0.00  0.00    +0.000 A 
ENDBRANCH   2   5
BRANCH   1  17
ATOM     17  C   UNL     1       2.934   8.724  17.664  0.00  0.00    +0.000 C 
BRANCH  17  18
ATOM     18  C   UNL     1       1.412   8.856  17.650  0.00  0.00    +0.000 C 
BRANCH  18  22
ATOM     19  C   UNL     1      -0.123   9.936  21.541  0.00  0.00    +0.000 A 
ATOM     20  C   UNL     1      -0.558  10.611  20.398  0.00  0.00    +0.000 A 
ATOM     21  C   UNL     1      -0.064  10.255  19.141  0.00  0.00    +0.000 A 
ATOM     22  C   UNL     1       0.872   9.221  19.010  0.00  0.00    +0.000 A 
ATOM     23  C   UNL     1       1.318   8.560  20.162  0.00  0.00    +0.000 A 
ATOM     24  C   UNL     1       0.822   8.916  21.420  0.00  0.00    +0.000 A 
BRANCH  19  26
ATOM     25  C   UNL     1      -1.510  11.969  22.701  0.00  0.00    +0.000 C 
ATOM     26  S   UNL     1      -0.772  10.375  23.141  0.00  0.00    +0.000 S 
ENDBRANCH  19  26
ENDBRANCH  18  22
ENDBRANCH  17  18
ENDBRANCH   1  17
TORSDOF 5
ENDMDL
MODEL 5
REMARK VINA RESULT:      -7.5      2.283      2.827
REMARK  Name = 
REMARK  8 active torsions:
REMARK  status: ('A' for Active; 'I' for Inactive)
REMARK    1  A    between atoms: C_1  and  S_2
REMARK    2  A    between atoms: S_2  and  C_3
REMARK    3  A    between atoms: C_6  and  C_7
REMARK    4  A    between atoms: C_7  and  C_8
REMARK    5  A    between atoms: C_8  and  N_9
REMARK    6  A    between atoms: C_10  and  C_12
REMARK    7  A    between atoms: C_13  and  C_14
REMARK    8  A    between atoms: N_19  and  C_20
REMARK                            x       y       z     vdW  Elec       q    Type
REMARK                         _______ _______ _______ _____ _____    ______ ____
ROOT
ATOM      1  N   UNL     1       2.958   7.558  18.231  0.00  0.00    +0.000 N 
ATOM      2  C   UNL     1       3.951   6.966  17.488  0.00  0.00    +0.000 C 
ATOM      3  O   UNL     1       4.248   7.351  16.357  0.00  0.00    +0.000 OA
ATOM      4  H   UNL     1       2.883   7.338  19.218  0.00  0.00    +0.000 HD
ENDROOT
BRANCH   2   5
ATOM      5  C   UNL     1       4.608   5.839  18.119  0.00  0.00    +0.000 A 
ATOM      6  C   UNL     1       5.978   5.714  18.307  0.00  0.00    +0.000 A 
ATOM      7  C   UNL     1       7.142   6.565  17.960  0.00  0.00    +0.000 C 
ATOM      8  O   UNL     1       6.267   4.533  18.932  0.00  0.00    +0.000 OA
ATOM      9  C   UNL     1       5.087   3.896  19.175  0.00  0.00    +0.000 A 
ATOM     10  N   UNL     1       4.986   2.703  19.806  0.00  0.00    +0.000 NA
ATOM     11  C   UNL     1       3.760   2.301  19.960  0.00  0.00    +0.000 A 
ATOM     12  N   UNL     1       2.627   2.975  19.533  0.00  0.00    +0.000 N 
ATOM     13  C   UNL     1       1.304   2.427  19.747  0.00  0.00    +0.000 C 
ATOM     14  C   UNL     1       2.712   4.180  18.847  0.00  0.00    +0.000 A 
ATOM     15  O   UNL     1       1.737   4.770  18.387  0.00  0.00    +0.000 OA
ATOM     16  C   UNL     1       4.057   4.662  18.687  0.00  0.00    +0.000 A 
ENDBRANCH   2   5
BRANCH   1  17
ATOM     17  C   UNL     1       2.239   8.717  17.754  0.00  0.00    +0.000 C 
BRANCH  17  18
ATOM     18  C   UNL     1       1.749   9.593  18.907  0.00  0.00    +0.000 C 
BRANCH  18  22
ATOM     19  C   UNL     1      -2.318  10.923  18.313  0.00  0.00    +0.000 A 
ATOM     20  C   UNL     1      -1.582  11.370  19.412  0.00  0.00    +0.000 A 
ATOM     21  C   UNL     1      -0.266  10.943  19.598  0.00  0.00    +0.000 A 
ATOM     22  C   UNL     1       0.333  10.062  18.688  0.00  0.00    +0.000 A 
ATOM     23  C   UNL     1      -0.416   9.602  17.597  0.00  0.00    +0.000 A 
ATOM     24  C   UNL     1      -1.734  10.031  17.411  0.00  0.00    +0.000 A 
BRANCH  19  26
ATOM     25  C   UNL     1      -4.117  11.162  16.287  0.00  0.00    +0.000 C 
ATOM     26  S   UNL     1      -3.989  11.487  18.064  0.00  0.00    +0.000 S 
ENDBRANCH  19  26
ENDBRANCH  18  22
ENDBRANCH  17  18
ENDBRANCH   1  17
TORSDOF 5
ENDMDL
MODEL 6
REMARK VINA RESULT:      -7.5      5.859      7.982
REMARK  Name = 
REMARK  8 active torsions:
REMARK  status: ('A' for Active; 'I' for Inactive)
REMARK    1  A    between atoms: C_1  and  S_2
REMARK    2  A    between atoms: S_2  and  C_3
REMARK    3  A    between atoms: C_6  and  C_7
REMARK    4  A    between atoms: C_7  and  C_8
REMARK    5  A    between atoms: C_8  and  N_9
REMARK    6  A    between atoms: C_10  and  C_12
REMARK    7  A    between atoms: C_13  and  C_14
REMARK    8  A    between atoms: N_19  and  C_20
REMARK                            x       y       z     vdW  Elec       q    Type
REMARK                         _______ _______ _______ _____ _____    ______ ____
ROOT
ATOM      1  N   UNL     1       7.266   7.355  17.229  0.00  0.00    +0.000 N 
ATOM      2  C   UNL     1       7.153   6.084  17.740  0.00  0.00    +0.000 C 
ATOM      3  O   UNL     1       7.901   5.657  18.619  0.00  0.00    +0.000 OA
ATOM      4  H   UNL     1       6.515   7.725  16.657  0.00  0.00    +0.000 HD
ENDROOT
BRANCH   2   5
ATOM      5  C   UNL     1       6.106   5.272  17.153  0.00  0.00    +0.000 A 
ATOM      6  C   UNL     1       6.114   4.770  15.859  0.00  0.00    +0.000 A 
ATOM      7  C   UNL     1       7.063   4.875  14.725  0.00  0.00    +0.000 C 
ATOM      8  O   UNL     1       4.979   4.046  15.622  0.00  0.00    +0.000 OA
ATOM      9  C   UNL     1       4.238   4.054  16.766  0.00  0.00    +0.000 A 
ATOM     10  N   UNL     1       3.055   3.413  16.907  0.00  0.00    +0.000 NA
ATOM     11  C   UNL     1       2.543   3.528  18.096  0.00  0.00    +0.000 A 
ATOM     12  N   UNL     1       3.098   4.232  19.152  0.00  0.00    +0.000 N 
ATOM     13  C   UNL     1       2.433   4.305  20.436  0.00  0.00    +0.000 C 
ATOM     14  C   UNL     1       4.291   4.931  19.015  0.00  0.00    +0.000 A 
ATOM     15  O   UNL     1       4.777   5.626  19.903  0.00  0.00    +0.000 OA
ATOM     16  C   UNL     1       4.894   4.798  17.717  0.00  0.00    +0.000 A 
ENDBRANCH   2   5
BRANCH   1  17
ATOM     17  C   UNL     1       8.235   8.297  17.740  0.00  0.00    +0.000 C 
BRANCH  17  18
ATOM     18  C   UNL     1       7.669   9.715  17.801  0.00  0.00    +0.000 C 
BRANCH  18  22
ATOM     19  C   UNL     1      10.653  12.577  19.054  0.00  0.00    +0.000 A 
ATOM     20  C   UNL     1      10.596  11.312  19.643  0.00  0.00    +0.000 A 
ATOM     21  C   UNL     1       9.634  10.387  19.232  0.00  0.00    +0.000 A 
ATOM     22  C   UNL     1       8.715  10.715  18.226  0.00  0.00    +0.000 A 
ATOM     23  C   UNL     1       8.765  11.991  17.652  0.00  0.00    +0.000 A 
ATOM     24  C   UNL     1       9.729  12.917  18.064  0.00  0.00    +0.000 A 
BRANCH  19  26
ATOM     25  C   UNL     1      11.576  15.030  18.324  0.00  0.00    +0.000 C 
ATOM     26  S   UNL     1      11.896  13.747  19.562  0.00  0.00    +0.000 S 
ENDBRANCH  19  26
ENDBRANCH  18  22
ENDBRANCH  17  18
ENDBRANCH   1  17
TORSDOF 5
ENDMDL
MODEL 7
REMARK VINA RESULT:      -7.4      1.769      2.273
REMARK  Name = 
REMARK  8 active torsions:
REMARK  status: ('A' for Active; 'I' for Inactive)
REMARK    1  A    between atoms: C_1  and  S_2
REMARK    2  A    between atoms: S_2  and  C_3
REMARK    3  A    between atoms: C_6  and  C_7
REMARK    4  A    between atoms: C_7  and  C_8
REMARK    5  A    between atoms: C_8  and  N_9
REMARK    6  A    between atoms: C_10  and  C_12
REMARK    7  A    between atoms: C_13  and  C_14
REMARK    8  A    between atoms: N_19  and  C_20
REMARK                            x       y       z     vdW  Elec       q    Type
REMARK                         _______ _______ _______ _____ _____    ______ ____
ROOT
ATOM      1  N   UNL     1       2.786   7.281  17.817  0.00  0.00    +0.000 N 
ATOM      2  C   UNL     1       4.017   6.708  17.607  0.00  0.00    +0.000 C 
ATOM      3  O   UNL     1       5.051   7.371  17.537  0.00  0.00    +0.000 OA
ATOM      4  H   UNL     1       2.000   6.688  18.061  0.00  0.00    +0.000 HD
ENDROOT
BRANCH   2   5
ATOM      5  C   UNL     1       4.009   5.268  17.446  0.00  0.00    +0.000 A 
ATOM      6  C   UNL     1       4.685   4.569  16.454  0.00  0.00    +0.000 A 
ATOM      7  C   UNL     1       5.545   4.978  15.318  0.00  0.00    +0.000 C 
ATOM      8  O   UNL     1       4.468   3.226  16.586  0.00  0.00    +0.000 OA
ATOM      9  C   UNL     1       3.670   3.042  17.675  0.00  0.00    +0.000 A 
ATOM     10  N   UNL     1       3.268   1.830  18.123  0.00  0.00    +0.000 NA
ATOM     11  C   UNL     1       2.541   1.891  19.198  0.00  0.00    +0.000 A 
ATOM     12  N   UNL     1       2.169   3.051  19.860  0.00  0.00    +0.000 N 
ATOM     13  C   UNL     1       1.343   3.004  21.048  0.00  0.00    +0.000 C 
ATOM     14  C   UNL     1       2.538   4.306  19.392  0.00  0.00    +0.000 A 
ATOM     15  O   UNL     1       2.168   5.359  19.907  0.00  0.00    +0.000 OA
ATOM     16  C   UNL     1       3.367   4.266  18.219  0.00  0.00    +0.000 A 
ENDBRANCH   2   5
BRANCH   1  17
ATOM     17  C   UNL     1       2.636   8.702  18.035  0.00  0.00    +0.000 C 
BRANCH  17  18
ATOM     18  C   UNL     1       1.196   9.161  17.807  0.00  0.00    +0.000 C 
BRANCH  18  22
ATOM     19  C   UNL     1      -0.548  10.788  21.409  0.00  0.00    +0.000 A 
ATOM     20  C   UNL     1      -0.815  11.371  20.169  0.00  0.00    +0.000 A 
ATOM     21  C   UNL     1      -0.254  10.839  19.006  0.00  0.00    +0.000 A 
ATOM     22  C   UNL     1       0.582   9.717  19.067  0.00  0.00    +0.000 A 
ATOM     23  C   UNL     1       0.862   9.147  20.316  0.00  0.00    +0.000 A 
ATOM     24  C   UNL     1       0.299   9.680  21.480  0.00  0.00    +0.000 A 
BRANCH  19  26
ATOM     25  C   UNL     1      -2.503  12.542  22.115  0.00  0.00    +0.000 C 
ATOM     26  S   UNL     1      -1.282  11.452  22.889  0.00  0.00    +0.000 S 
ENDBRANCH  19  26
ENDBRANCH  18  22
ENDBRANCH  17  18
ENDBRANCH   1  17
TORSDOF 5
ENDMDL
MODEL 8
REMARK VINA RESULT:      -7.4      1.819      2.525
REMARK  Name = 
REMARK  8 active torsions:
REMARK  status: ('A' for Active; 'I' for Inactive)
REMARK    1  A    between atoms: C_1  and  S_2
REMARK    2  A    between atoms: S_2  and  C_3
REMARK    3  A    between atoms: C_6  and  C_7
REMARK    4  A    between atoms: C_7  and  C_8
REMARK    5  A    between atoms: C_8  and  N_9
REMARK    6  A    between atoms: C_10  and  C_12
REMARK    7  A    between atoms: C_13  and  C_14
REMARK    8  A    between atoms: N_19  and  C_20
REMARK                            x       y       z     vdW  Elec       q    Type
REMARK                         _______ _______ _______ _____ _____    ______ ____
ROOT
ATOM      1  N   UNL     1       2.871   7.273  17.790  0.00  0.00    +0.000 N 
ATOM      2  C   UNL     1       4.086   6.676  17.552  0.00  0.00    +0.000 C 
ATOM      3  O   UNL     1       5.130   7.320  17.455  0.00  0.00    +0.000 OA
ATOM      4  H   UNL     1       2.081   6.696  18.055  0.00  0.00    +0.000 HD
ENDROOT
BRANCH   2   5
ATOM      5  C   UNL     1       4.047   5.236  17.398  0.00  0.00    +0.000 A 
ATOM      6  C   UNL     1       4.712   4.519  16.411  0.00  0.00    +0.000 A 
ATOM      7  C   UNL     1       5.582   4.905  15.275  0.00  0.00    +0.000 C 
ATOM      8  O   UNL     1       4.466   3.181  16.548  0.00  0.00    +0.000 OA
ATOM      9  C   UNL     1       3.661   3.019  17.636  0.00  0.00    +0.000 A 
ATOM     10  N   UNL     1       3.232   1.818  18.089  0.00  0.00    +0.000 NA
ATOM     11  C   UNL     1       2.504   1.899  19.161  0.00  0.00    +0.000 A 
ATOM     12  N   UNL     1       2.156   3.069  19.817  0.00  0.00    +0.000 N 
ATOM     13  C   UNL     1       1.326   3.045  21.004  0.00  0.00    +0.000 C 
ATOM     14  C   UNL     1       2.552   4.314  19.344  0.00  0.00    +0.000 A 
ATOM     15  O   UNL     1       2.203   5.377  19.854  0.00  0.00    +0.000 OA
ATOM     16  C   UNL     1       3.383   4.252  18.173  0.00  0.00    +0.000 A 
ENDBRANCH   2   5
BRANCH   1  17
ATOM     17  C   UNL     1       2.752   8.697  18.006  0.00  0.00    +0.000 C 
BRANCH  17  18
ATOM     18  C   UNL     1       1.320   9.184  17.792  0.00  0.00    +0.000 C 
BRANCH  18  22
ATOM     19  C   UNL     1      -0.455  10.603  21.467  0.00  0.00    +0.000 A 
ATOM     20  C   UNL     1       0.292   9.423  21.453  0.00  0.00    +0.000 A 
ATOM     21  C   UNL     1       0.869   8.971  20.264  0.00  0.00    +0.000 A 
ATOM     22  C   UNL     1       0.707   9.691  19.074  0.00  0.00    +0.000 A 
ATOM     23  C   UNL     1      -0.059  10.864  19.090  0.00  0.00    +0.000 A 
ATOM     24  C   UNL     1      -0.636  11.317  20.281  0.00  0.00    +0.000 A 
BRANCH  19  26
ATOM     25  C   UNL     1      -1.135  12.966  22.629  0.00  0.00    +0.000 C 
ATOM     26  S   UNL     1      -1.171  11.192  22.988  0.00  0.00    +0.000 S 
ENDBRANCH  19  26
ENDBRANCH  18  22
ENDBRANCH  17  18
ENDBRANCH   1  17
TORSDOF 5
ENDMDL
MODEL 9
REMARK VINA RESULT:      -7.4      2.279      2.647
REMARK  Name = 
REMARK  8 active torsions:
REMARK  status: ('A' for Active; 'I' for Inactive)
REMARK    1  A    between atoms: C_1  and  S_2
REMARK    2  A    between atoms: S_2  and  C_3
REMARK    3  A    between atoms: C_6  and  C_7
REMARK    4  A    between atoms: C_7  and  C_8
REMARK    5  A    between atoms: C_8  and  N_9
REMARK    6  A    between atoms: C_10  and  C_12
REMARK    7  A    between atoms: C_13  and  C_14
REMARK    8  A    between atoms: N_19  and  C_20
REMARK                            x       y       z     vdW  Elec       q    Type
REMARK                         _______ _______ _______ _____ _____    ______ ____
ROOT
ATOM      1  N   UNL     1       2.876   7.566  18.253  0.00  0.00    +0.000 N 
ATOM      2  C   UNL     1       3.872   6.978  17.510  0.00  0.00    +0.000 C 
ATOM      3  O   UNL     1       4.170   7.368  16.381  0.00  0.00    +0.000 OA
ATOM      4  H   UNL     1       2.799   7.342  19.239  0.00  0.00    +0.000 HD
ENDROOT
BRANCH   2   5
ATOM      5  C   UNL     1       4.529   5.850  18.138  0.00  0.00    +0.000 A 
ATOM      6  C   UNL     1       5.898   5.728  18.333  0.00  0.00    +0.000 A 
ATOM      7  C   UNL     1       7.061   6.585  17.997  0.00  0.00    +0.000 C 
ATOM      8  O   UNL     1       6.188   4.545  18.953  0.00  0.00    +0.000 OA
ATOM      9  C   UNL     1       5.008   3.902  19.185  0.00  0.00    +0.000 A 
ATOM     10  N   UNL     1       4.908   2.706  19.809  0.00  0.00    +0.000 NA
ATOM     11  C   UNL     1       3.683   2.299  19.954  0.00  0.00    +0.000 A 
ATOM     12  N   UNL     1       2.550   2.971  19.525  0.00  0.00    +0.000 N 
ATOM     13  C   UNL     1       1.227   2.418  19.728  0.00  0.00    +0.000 C 
ATOM     14  C   UNL     1       2.635   4.181  18.846  0.00  0.00    +0.000 A 
ATOM     15  O   UNL     1       1.660   4.770  18.384  0.00  0.00    +0.000 OA
ATOM     16  C   UNL     1       3.978   4.668  18.696  0.00  0.00    +0.000 A 
ENDBRANCH   2   5
BRANCH   1  17
ATOM     17  C   UNL     1       2.156   8.726  17.779  0.00  0.00    +0.000 C 
BRANCH  17  18
ATOM     18  C   UNL     1       1.544   9.522  18.931  0.00  0.00    +0.000 C 
BRANCH  18  22
ATOM     19  C   UNL     1      -2.437  10.887  17.956  0.00  0.00    +0.000 A 
ATOM     20  C   UNL     1      -1.807   9.925  17.164  0.00  0.00    +0.000 A 
ATOM     21  C   UNL     1      -0.522   9.482  17.485  0.00  0.00    +0.000 A 
ATOM     22  C   UNL     1       0.150   9.994  18.602  0.00  0.00    +0.000 A 
ATOM     23  C   UNL     1      -0.480  10.972  19.383  0.00  0.00    +0.000 A 
ATOM     24  C   UNL     1      -1.767  11.415  19.061  0.00  0.00    +0.000 A 
BRANCH  19  26
ATOM     25  C   UNL     1      -4.531  12.128  19.171  0.00  0.00    +0.000 C 
ATOM     26  S   UNL     1      -4.085  11.434  17.559  0.00  0.00    +0.000 S 
ENDBRANCH  19  26
ENDBRANCH  18  22
ENDBRANCH  17  18
ENDBRANCH   1  17
TORSDOF 5
ENDMDL
