MODEL 1
REMARK VINA RESULT:      -7.0      0.000      0.000
REMARK  Name = 
REMARK  12 active torsions:
REMARK  status: ('A' for Active; 'I' for Inactive)
REMARK    1  A    between atoms: O_1  and  C_2
REMARK    2  A    between atoms: C_2  and  C_3
REMARK    3  A    between atoms: C_3  and  N_4
REMARK    4  A    between atoms: N_4  and  C_5
REMARK    5  A    between atoms: N_4  and  C_8
REMARK    6  A    between atoms: C_5  and  C_6
REMARK    7  A    between atoms: C_6  and  O_7
REMARK    8  A    between atoms: C_8  and  C_9
REMARK    9  A    between atoms: C_9  and  C_10
REMARK   10  A    between atoms: C_10  and  N_11
REMARK   11  A    between atoms: N_11  and  C_12
REMARK   12  A    between atoms: C_12  and  C_13
REMARK                            x       y       z     vdW  Elec       q    Type
REMARK                         _______ _______ _______ _____ _____    ______ ____
ROOT
ATOM      1  C   UNL     1       5.143   5.056  16.223  0.00  0.00    +0.000 A 
ATOM      2  C   UNL     1       5.183   6.458  16.321  0.00  0.00    +0.000 A 
ATOM      3  C   UNL     1       4.407   7.130  17.258  0.00  0.00    +0.000 A 
ATOM      4  C   UNL     1       3.572   6.422  18.129  0.00  0.00    +0.000 A 
ATOM      5  C   UNL     1       2.784   7.096  19.070  0.00  0.00    +0.000 A 
ATOM      6  C   UNL     1       1.955   6.393  19.936  0.00  0.00    +0.000 A 
ATOM      7  C   UNL     1       1.883   4.995  19.889  0.00  0.00    +0.000 A 
ATOM      8  C   UNL     1       1.045   4.276  20.757  0.00  0.00    +0.000 A 
ATOM      9  C   UNL     1       0.987   2.884  20.701  0.00  0.00    +0.000 A 
ATOM     10  C   UNL     1       1.773   2.193  19.781  0.00  0.00    +0.000 A 
ATOM     11  C   UNL     1       2.621   2.888  18.906  0.00  0.00    +0.000 A 
ATOM     12  C   UNL     1       3.424   2.203  17.989  0.00  0.00    +0.000 A 
ATOM     13  C   UNL     1       4.260   2.901  17.118  0.00  0.00    +0.000 A 
ATOM     14  C   UNL     1       4.322   4.311  17.115  0.00  0.00    +0.000 A 
ATOM     15  C   UNL     1       3.525   5.008  18.059  0.00  0.00    +0.000 A 
ATOM     16  C   UNL     1       2.676   4.296  18.945  0.00  0.00    +0.000 A 
ENDROOT
BRANCH   1  17
ATOM     17  C   UNL     1       6.030   4.389  15.192  0.00  0.00    +0.000 C 
BRANCH  17  18
ATOM     18  N   UNL     1       6.446   5.362  14.187  0.00  0.00    +0.000 NA
ATOM     19  H   UNL     1       5.684   5.489  13.520  0.00  0.00    +0.000 HD
BRANCH  18  20
ATOM     20  C   UNL     1       7.651   4.927  13.487  0.00  0.00    +0.000 C 
BRANCH  20  21
ATOM     21  C   UNL     1       7.317   4.766  12.006  0.00  0.00    +0.000 C 
BRANCH  21  22
ATOM     22  C   UNL     1       6.989   3.314  11.635  0.00  0.00    +0.000 C 
BRANCH  22  23
ATOM     23  N   UNL     1       5.615   2.880  11.986  0.00  0.00    +0.000 NA
BRANCH  23  24
ATOM     24  C   UNL     1       4.654   3.885  11.445  0.00  0.00    +0.000 C 
BRANCH  24  25
ATOM     25  C   UNL     1       3.452   3.355  10.654  0.00  0.00    +0.000 C 
BRANCH  25  26
ATOM     26  O   UNL     1       2.958   4.373   9.783  0.00  0.00    +0.000 OA
ATOM     27  H   UNL     1       2.588   5.069  10.355  0.00  0.00    +0.000 HD
ENDBRANCH  25  26
ENDBRANCH  24  25
ENDBRANCH  23  24
BRANCH  23  28
ATOM     28  C   UNL     1       5.352   1.520  11.437  0.00  0.00    +0.000 C 
BRANCH  28  29
ATOM     29  C   UNL     1       6.592   0.646  11.131  0.00  0.00    +0.000 C 
BRANCH  29  30
ATOM     30  O   UNL     1       6.313  -0.744  11.232  0.00  0.00    +0.000 OA
ATOM     31  H   UNL     1       6.074  -1.032  10.332  0.00  0.00    +0.000 HD
ENDBRANCH  29  30
ENDBRANCH  28  29
ENDBRANCH  23  28
ENDBRANCH  22  23
ENDBRANCH  21  22
ENDBRANCH  20  21
ENDBRANCH  18  20
ENDBRANCH  17  18
ENDBRANCH   1  17
TORSDOF 12
ENDMDL
MODEL 2
REMARK VINA RESULT:      -7.0      4.537      7.118
REMARK  Name = 
REMARK  12 active torsions:
REMARK  status: ('A' for Active; 'I' for Inactive)
REMARK    1  A    between atoms: O_1  and  C_2
REMARK    2  A    between atoms: C_2  and  C_3
REMARK    3  A    between atoms: C_3  and  N_4
REMARK    4  A    between atoms: N_4  and  C_5
REMARK    5  A    between atoms: N_4  and  C_8
REMARK    6  A    between atoms: C_5  and  C_6
REMARK    7  A    between atoms: C_6  and  O_7
REMARK    8  A    between atoms: C_8  and  C_9
REMARK    9  A    between atoms: C_9  and  C_10
REMARK   10  A    between atoms: C_10  and  N_11
REMARK   11  A    between atoms: N_11  and  C_12
REMARK   12  A    between atoms: C_12  and  C_13
REMARK                            x       y       z     vdW  Elec       q    Type
REMARK                         _______ _______ _______ _____ _____    ______ ____
ROOT
ATOM      1  C   UNL     1       2.058   7.888  19.259  0.00  0.00    +0.000 A 
ATOM      2  C   UNL     1       2.397   8.541  18.060  0.00  0.00    +0.000 A 
ATOM      3  C   UNL     1       1.966   9.839  17.809  0.00  0.00    +0.000 A 
ATOM      4  C   UNL     1       1.190  10.525  18.748  0.00  0.00    +0.000 A 
ATOM      5  C   UNL     1       0.750  11.831  18.496  0.00  0.00    +0.000 A 
ATOM      6  C   UNL     1      -0.021  12.513  19.429  0.00  0.00    +0.000 A 
ATOM      7  C   UNL     1      -0.380  11.915  20.643  0.00  0.00    +0.000 A 
ATOM      8  C   UNL     1      -1.162  12.596  21.590  0.00  0.00    +0.000 A 
ATOM      9  C   UNL     1      -1.508  11.989  22.797  0.00  0.00    +0.000 A 
ATOM     10  C   UNL     1      -1.069  10.695  23.075  0.00  0.00    +0.000 A 
ATOM     11  C   UNL     1      -0.283   9.997  22.147  0.00  0.00    +0.000 A 
ATOM     12  C   UNL     1       0.174   8.704  22.421  0.00  0.00    +0.000 A 
ATOM     13  C   UNL     1       0.950   8.013  21.491  0.00  0.00    +0.000 A 
ATOM     14  C   UNL     1       1.292   8.575  20.242  0.00  0.00    +0.000 A 
ATOM     15  C   UNL     1       0.848   9.895  19.969  0.00  0.00    +0.000 A 
ATOM     16  C   UNL     1       0.060  10.596  20.917  0.00  0.00    +0.000 A 
ENDROOT
BRANCH   1  17
ATOM     17  C   UNL     1       2.577   6.483  19.475  0.00  0.00    +0.000 C 
BRANCH  17  18
ATOM     18  N   UNL     1       2.235   5.643  18.332  0.00  0.00    +0.000 NA
ATOM     19  H   UNL     1       1.446   6.065  17.841  0.00  0.00    +0.000 HD
BRANCH  18  20
ATOM     20  C   UNL     1       1.891   4.286  18.747  0.00  0.00    +0.000 C 
BRANCH  20  21
ATOM     21  C   UNL     1       3.101   3.386  18.507  0.00  0.00    +0.000 C 
BRANCH  21  22
ATOM     22  C   UNL     1       3.740   3.621  17.132  0.00  0.00    +0.000 C 
BRANCH  22  23
ATOM     23  N   UNL     1       4.906   4.537  17.139  0.00  0.00    +0.000 NA
BRANCH  23  24
ATOM     24  C   UNL     1       5.619   4.377  18.440  0.00  0.00    +0.000 C 
BRANCH  24  25
ATOM     25  C   UNL     1       6.422   5.578  18.954  0.00  0.00    +0.000 C 
BRANCH  25  26
ATOM     26  O   UNL     1       7.270   5.169  20.028  0.00  0.00    +0.000 OA
ATOM     27  H   UNL     1       8.051   4.754  19.620  0.00  0.00    +0.000 HD
ENDBRANCH  25  26
ENDBRANCH  24  25
ENDBRANCH  23  24
BRANCH  23  28
ATOM     28  C   UNL     1       5.799   4.237  15.985  0.00  0.00    +0.000 C 
BRANCH  28  29
ATOM     29  C   UNL     1       6.319   5.451  15.179  0.00  0.00    +0.000 C 
BRANCH  29  30
ATOM     30  O   UNL     1       7.649   5.262  14.712  0.00  0.00    +0.000 OA
ATOM     31  H   UNL     1       8.133   6.072  14.957  0.00  0.00    +0.000 HD
ENDBRANCH  29  30
ENDBRANCH  28  29
ENDBRANCH  23  28
ENDBRANCH  22  23
ENDBRANCH  21  22
ENDBRANCH  20  21
ENDBRANCH  18  20
ENDBRANCH  17  18
ENDBRANCH   1  17
TORSDOF 12
ENDMDL
MODEL 3
REMARK VINA RESULT:      -6.9      4.304      6.860
REMARK  Name = 
REMARK  12 active torsions:
REMARK  status: ('A' for Active; 'I' for Inactive)
REMARK    1  A    between atoms: O_1  and  C_2
REMARK    2  A    between atoms: C_2  and  C_3
REMARK    3  A    between atoms: C_3  and  N_4
REMARK    4  A    between atoms: N_4  and  C_5
REMARK    5  A    between atoms: N_4  and  C_8
REMARK    6  A    between atoms: C_5  and  C_6
REMARK    7  A    between atoms: C_6  and  O_7
REMARK    8  A    between atoms: C_8  and  C_9
REMARK    9  A    between atoms: C_9  and  C_10
REMARK   10  A    between atoms: C_10  and  N_11
REMARK   11  A    between atoms: N_11  and  C_12
REMARK   12  A    between atoms: C_12  and  C_13
REMARK                            x       y       z     vdW  Elec       q    Type
REMARK                         _______ _______ _______ _____ _____    ______ ____
ROOT
ATOM      1  C   UNL     1       2.002   7.972  19.238  0.00  0.00    +0.000 A 
ATOM      2  C   UNL     1       2.363   8.641  18.056  0.00  0.00    +0.000 A 
ATOM      3  C   UNL     1       1.969   9.955  17.830  0.00  0.00    +0.000 A 
ATOM      4  C   UNL     1       1.207  10.641  18.782  0.00  0.00    +0.000 A 
ATOM      5  C   UNL     1       0.803  11.963  18.556  0.00  0.00    +0.000 A 
ATOM      6  C   UNL     1       0.047  12.646  19.500  0.00  0.00    +0.000 A 
ATOM      7  C   UNL     1      -0.334  12.032  20.700  0.00  0.00    +0.000 A 
ATOM      8  C   UNL     1      -1.101  12.713  21.659  0.00  0.00    +0.000 A 
ATOM      9  C   UNL     1      -1.469  12.089  22.851  0.00  0.00    +0.000 A 
ATOM     10  C   UNL     1      -1.065  10.779  23.102  0.00  0.00    +0.000 A 
ATOM     11  C   UNL     1      -0.294  10.080  22.162  0.00  0.00    +0.000 A 
ATOM     12  C   UNL     1       0.126   8.770  22.411  0.00  0.00    +0.000 A 
ATOM     13  C   UNL     1       0.887   8.079  21.469  0.00  0.00    +0.000 A 
ATOM     14  C   UNL     1       1.250   8.658  20.233  0.00  0.00    +0.000 A 
ATOM     15  C   UNL     1       0.843   9.994  19.987  0.00  0.00    +0.000 A 
ATOM     16  C   UNL     1       0.070  10.696  20.947  0.00  0.00    +0.000 A 
ENDROOT
BRANCH   1  17
ATOM     17  C   UNL     1       2.482   6.549  19.426  0.00  0.00    +0.000 C 
BRANCH  17  18
ATOM     18  N   UNL     1       2.937   6.003  18.151  0.00  0.00    +0.000 NA
ATOM     19  H   UNL     1       2.726   6.677  17.414  0.00  0.00    +0.000 HD
BRANCH  18  20
ATOM     20  C   UNL     1       2.293   4.726  17.855  0.00  0.00    +0.000 C 
BRANCH  20  21
ATOM     21  C   UNL     1       3.375   3.716  17.479  0.00  0.00    +0.000 C 
BRANCH  21  22
ATOM     22  C   UNL     1       4.743   4.076  18.074  0.00  0.00    +0.000 C 
BRANCH  22  23
ATOM     23  N   UNL     1       5.684   4.715  17.124  0.00  0.00    +0.000 NA
BRANCH  23  24
ATOM     24  C   UNL     1       6.988   4.917  17.821  0.00  0.00    +0.000 C 
BRANCH  24  25
ATOM     25  C   UNL     1       7.475   6.360  18.000  0.00  0.00    +0.000 C 
BRANCH  25  26
ATOM     26  O   UNL     1       7.631   6.979  16.722  0.00  0.00    +0.000 OA
ATOM     27  H   UNL     1       8.205   6.391  16.200  0.00  0.00    +0.000 HD
ENDBRANCH  25  26
ENDBRANCH  24  25
ENDBRANCH  23  24
BRANCH  23  28
ATOM     28  C   UNL     1       5.839   3.867  15.909  0.00  0.00    +0.000 C 
BRANCH  28  29
ATOM     29  C   UNL     1       6.023   4.611  14.565  0.00  0.00    +0.000 C 
BRANCH  29  30
ATOM     30  O   UNL     1       5.497   3.881  13.464  0.00  0.00    +0.000 OA
ATOM     31  H   UNL     1       6.248   3.729  12.864  0.00  0.00    +0.000 HD
ENDBRANCH  29  30
ENDBRANCH  28  29
ENDBRANCH  23  28
ENDBRANCH  22  23
ENDBRANCH  21  22
ENDBRANCH  20  21
ENDBRANCH  18  20
ENDBRANCH  17  18
ENDBRANCH   1  17
TORSDOF 12
ENDMDL
MODEL 4
REMARK VINA RESULT:      -6.9      5.601      7.980
REMARK  Name = 
REMARK  12 active torsions:
REMARK  status: ('A' for Active; 'I' for Inactive)
REMARK    1  A    between atoms: O_1  and  C_2
REMARK    2  A    between atoms: C_2  and  C_3
REMARK    3  A    between atoms: C_3  and  N_4
REMARK    4  A    between atoms: N_4  and  C_5
REMARK    5  A    between atoms: N_4  and  C_8
REMARK    6  A    between atoms: C_5  and  C_6
REMARK    7  A    between atoms: C_6  and  O_7
REMARK    8  A    between atoms: C_8  and  C_9
REMARK    9  A    between atoms: C_9  and  C_10
REMARK   10  A    between atoms: C_10  and  N_11
REMARK   11  A    between atoms: N_11  and  C_12
REMARK   12  A    between atoms: C_12  and  C_13
REMARK                            x       y       z     vdW  Elec       q    Type
REMARK                         _______ _______ _______ _____ _____    ______ ____
ROOT
ATOM      1  C   UNL     1       5.432   6.052  17.015  0.00  0.00    +0.000 A 
ATOM      2  C   UNL     1       5.924   5.059  16.149  0.00  0.00    +0.000 A 
ATOM      3  C   UNL     1       5.403   3.770  16.174  0.00  0.00    +0.000 A 
ATOM      4  C   UNL     1       4.373   3.436  17.061  0.00  0.00    +0.000 A 
ATOM      5  C   UNL     1       3.850   2.137  17.092  0.00  0.00    +0.000 A 
ATOM      6  C   UNL     1       2.827   1.805  17.972  0.00  0.00    +0.000 A 
ATOM      7  C   UNL     1       2.294   2.757  18.849  0.00  0.00    +0.000 A 
ATOM      8  C   UNL     1       1.262   2.429  19.744  0.00  0.00    +0.000 A 
ATOM      9  C   UNL     1       0.738   3.389  20.610  0.00  0.00    +0.000 A 
ATOM     10  C   UNL     1       1.234   4.691  20.585  0.00  0.00    +0.000 A 
ATOM     11  C   UNL     1       2.261   5.044  19.697  0.00  0.00    +0.000 A 
ATOM     12  C   UNL     1       2.756   6.351  19.655  0.00  0.00    +0.000 A 
ATOM     13  C   UNL     1       3.782   6.693  18.774  0.00  0.00    +0.000 A 
ATOM     14  C   UNL     1       4.366   5.744  17.907  0.00  0.00    +0.000 A 
ATOM     15  C   UNL     1       3.852   4.423  17.932  0.00  0.00    +0.000 A 
ATOM     16  C   UNL     1       2.808   4.077  18.828  0.00  0.00    +0.000 A 
ENDROOT
BRANCH   1  17
ATOM     17  C   UNL     1       6.032   7.439  16.920  0.00  0.00    +0.000 C 
BRANCH  17  18
ATOM     18  N   UNL     1       7.487   7.359  16.983  0.00  0.00    +0.000 NA
ATOM     19  H   UNL     1       7.758   6.377  17.049  0.00  0.00    +0.000 HD
BRANCH  18  20
ATOM     20  C   UNL     1       8.016   8.095  18.128  0.00  0.00    +0.000 C 
BRANCH  20  21
ATOM     21  C   UNL     1       8.269   9.539  17.699  0.00  0.00    +0.000 C 
BRANCH  21  22
ATOM     22  C   UNL     1       9.049  10.334  18.754  0.00  0.00    +0.000 C 
BRANCH  22  23
ATOM     23  N   UNL     1       9.359  11.733  18.372  0.00  0.00    +0.000 NA
BRANCH  23  24
ATOM     24  C   UNL     1       9.597  12.517  19.621  0.00  0.00    +0.000 C 
BRANCH  24  25
ATOM     25  C   UNL     1      10.318  11.805  20.771  0.00  0.00    +0.000 C 
BRANCH  25  26
ATOM     26  O   UNL     1       9.498  11.822  21.941  0.00  0.00    +0.000 OA
ATOM     27  H   UNL     1      10.082  11.608  22.690  0.00  0.00    +0.000 HD
ENDBRANCH  25  26
ENDBRANCH  24  25
ENDBRANCH  23  24
BRANCH  23  28
ATOM     28  C   UNL     1      10.545  11.767  17.471  0.00  0.00    +0.000 C 
BRANCH  28  29
ATOM     29  C   UNL     1      11.372  13.075  17.465  0.00  0.00    +0.000 C 
BRANCH  29  30
ATOM     30  O   UNL     1      10.939  13.985  16.463  0.00  0.00    +0.000 OA
ATOM     31  H   UNL     1      10.608  13.435  15.730  0.00  0.00    +0.000 HD
ENDBRANCH  29  30
ENDBRANCH  28  29
ENDBRANCH  23  28
ENDBRANCH  22  23
ENDBRANCH  21  22
ENDBRANCH  20  21
ENDBRANCH  18  20
ENDBRANCH  17  18
ENDBRANCH   1  17
TORSDOF 12
ENDMDL
MODEL 5
REMARK VINA RESULT:      -6.8      5.255      8.132
REMARK  Name = 
REMARK  12 active torsions:
REMARK  status: ('A' for Active; 'I' for Inactive)
REMARK    1  A    between atoms: O_1  and  C_2
REMARK    2  A    between atoms: C_2  and  C_3
REMARK    3  A    between atoms: C_3  and  N_4
REMARK    4  A    between atoms: N_4  and  C_5
REMARK    5  A    between atoms: N_4  and  C_8
REMARK    6  A    between atoms: C_5  and  C_6
REMARK    7  A    between atoms: C_6  and  O_7
REMARK    8  A    between atoms: C_8  and  C_9
REMARK    9  A    between atoms: C_9  and  C_10
REMARK   10  A    between atoms: C_10  and  N_11
REMARK   11  A    between atoms: N_11  and  C_12
REMARK   12  A    between atoms: C_12  and  C_13
REMARK                            x       y       z     vdW  Elec       q    Type
REMARK                         _______ _______ _______ _____ _____    ______ ____
ROOT
ATOM      1  C   UNL     1       1.463   8.676  19.293  0.00  0.00    +0.000 A 
ATOM      2  C   UNL     1       1.779   7.886  20.412  0.00  0.00    +0.000 A 
ATOM      3  C   UNL     1       1.246   8.176  21.663  0.00  0.00    +0.000 A 
ATOM      4  C   UNL     1       0.378   9.260  21.832  0.00  0.00    +0.000 A 
ATOM      5  C   UNL     1      -0.156   9.558  23.092  0.00  0.00    +0.000 A 
ATOM      6  C   UNL     1      -1.019  10.634  23.260  0.00  0.00    +0.000 A 
ATOM      7  C   UNL     1      -1.375  11.449  22.179  0.00  0.00    +0.000 A 
ATOM      8  C   UNL     1      -2.243  12.542  22.340  0.00  0.00    +0.000 A 
ATOM      9  C   UNL     1      -2.591  13.342  21.252  0.00  0.00    +0.000 A 
ATOM     10  C   UNL     1      -2.082  13.054  19.987  0.00  0.00    +0.000 A 
ATOM     11  C   UNL     1      -1.217  11.966  19.799  0.00  0.00    +0.000 A 
ATOM     12  C   UNL     1      -0.711  11.661  18.532  0.00  0.00    +0.000 A 
ATOM     13  C   UNL     1       0.153  10.581  18.354  0.00  0.00    +0.000 A 
ATOM     14  C   UNL     1       0.562   9.768  19.434  0.00  0.00    +0.000 A 
ATOM     15  C   UNL     1       0.034  10.062  20.717  0.00  0.00    +0.000 A 
ATOM     16  C   UNL     1      -0.846  11.160  20.895  0.00  0.00    +0.000 A 
ENDROOT
BRANCH   1  17
ATOM     17  C   UNL     1       2.065   8.291  17.958  0.00  0.00    +0.000 C 
BRANCH  17  18
ATOM     18  N   UNL     1       2.612   6.940  18.028  0.00  0.00    +0.000 NA
ATOM     19  H   UNL     1       2.516   6.598  18.985  0.00  0.00    +0.000 HD
BRANCH  18  20
ATOM     20  C   UNL     1       4.017   6.910  17.630  0.00  0.00    +0.000 C 
BRANCH  20  21
ATOM     21  C   UNL     1       4.455   5.452  17.514  0.00  0.00    +0.000 C 
BRANCH  21  22
ATOM     22  C   UNL     1       4.731   4.814  18.883  0.00  0.00    +0.000 C 
BRANCH  22  23
ATOM     23  N   UNL     1       3.994   3.553  19.139  0.00  0.00    +0.000 NA
BRANCH  23  24
ATOM     24  C   UNL     1       3.016   3.798  20.240  0.00  0.00    +0.000 C 
BRANCH  24  25
ATOM     25  C   UNL     1       2.896   2.722  21.326  0.00  0.00    +0.000 C 
BRANCH  25  26
ATOM     26  O   UNL     1       1.723   2.952  22.108  0.00  0.00    +0.000 OA
ATOM     27  H   UNL     1       1.798   2.378  22.891  0.00  0.00    +0.000 HD
ENDBRANCH  25  26
ENDBRANCH  24  25
ENDBRANCH  23  24
BRANCH  23  28
ATOM     28  C   UNL     1       3.313   3.097  17.895  0.00  0.00    +0.000 C 
BRANCH  28  29
ATOM     29  C   UNL     1       1.768   3.038  17.934  0.00  0.00    +0.000 C 
BRANCH  29  30
ATOM     30  O   UNL     1       1.167   4.189  17.353  0.00  0.00    +0.000 OA
ATOM     31  H   UNL     1       1.905   4.760  17.073  0.00  0.00    +0.000 HD
ENDBRANCH  29  30
ENDBRANCH  28  29
ENDBRANCH  23  28
ENDBRANCH  22  23
ENDBRANCH  21  22
ENDBRANCH  20  21
ENDBRANCH  18  20
ENDBRANCH  17  18
ENDBRANCH   1  17
TORSDOF 12
ENDMDL
MODEL 6
REMARK VINA RESULT:      -6.8      5.298      9.380
REMARK  Name = 
REMARK  12 active torsions:
REMARK  status: ('A' for Active; 'I' for Inactive)
REMARK    1  A    between atoms: O_1  and  C_2
REMARK    2  A    between atoms: C_2  and  C_3
REMARK    3  A    between atoms: C_3  and  N_4
REMARK    4  A    between atoms: N_4  and  C_5
REMARK    5  A    between atoms: N_4  and  C_8
REMARK    6  A    between atoms: C_5  and  C_6
REMARK    7  A    between atoms: C_6  and  O_7
REMARK    8  A    between atoms: C_8  and  C_9
REMARK    9  A    between atoms: C_9  and  C_10
REMARK   10  A    between atoms: C_10  and  N_11
REMARK   11  A    between atoms: N_11  and  C_12
REMARK   12  A    between atoms: C_12  and  C_13
REMARK                            x       y       z     vdW  Elec       q    Type
REMARK                         _______ _______ _______ _____ _____    ______ ____
ROOT
ATOM      1  C   UNL     1       1.462   5.832  20.191  0.00  0.00    +0.000 A 
ATOM      2  C   UNL     1       1.221   4.531  20.665  0.00  0.00    +0.000 A 
ATOM      3  C   UNL     1       1.852   3.433  20.090  0.00  0.00    +0.000 A 
ATOM      4  C   UNL     1       2.746   3.604  19.027  0.00  0.00    +0.000 A 
ATOM      5  C   UNL     1       3.379   2.500  18.441  0.00  0.00    +0.000 A 
ATOM      6  C   UNL     1       4.267   2.669  17.386  0.00  0.00    +0.000 A 
ATOM      7  C   UNL     1       4.551   3.943  16.880  0.00  0.00    +0.000 A 
ATOM      8  C   UNL     1       5.445   4.123  15.811  0.00  0.00    +0.000 A 
ATOM      9  C   UNL     1       5.720   5.399  15.320  0.00  0.00    +0.000 A 
ATOM     10  C   UNL     1       5.113   6.512  15.898  0.00  0.00    +0.000 A 
ATOM     11  C   UNL     1       4.220   6.359  16.969  0.00  0.00    +0.000 A 
ATOM     12  C   UNL     1       3.615   7.470  17.565  0.00  0.00    +0.000 A 
ATOM     13  C   UNL     1       2.724   7.309  18.625  0.00  0.00    +0.000 A 
ATOM     14  C   UNL     1       2.387   6.034  19.129  0.00  0.00    +0.000 A 
ATOM     15  C   UNL     1       3.016   4.906  18.541  0.00  0.00    +0.000 A 
ATOM     16  C   UNL     1       3.922   5.072  17.463  0.00  0.00    +0.000 A 
ENDROOT
BRANCH   1  17
ATOM     17  C   UNL     1       0.755   6.981  20.878  0.00  0.00    +0.000 C 
BRANCH  17  18
ATOM     18  N   UNL     1       1.712   7.764  21.652  0.00  0.00    +0.000 NA
ATOM     19  H   UNL     1       1.699   7.435  22.618  0.00  0.00    +0.000 HD
BRANCH  18  20
ATOM     20  C   UNL     1       1.397   9.190  21.611  0.00  0.00    +0.000 C 
BRANCH  20  21
ATOM     21  C   UNL     1       0.152   9.385  20.748  0.00  0.00    +0.000 C 
BRANCH  21  22
ATOM     22  C   UNL     1       0.394  10.355  19.584  0.00  0.00    +0.000 C 
BRANCH  22  23
ATOM     23  N   UNL     1      -0.720  11.297  19.320  0.00  0.00    +0.000 NA
BRANCH  23  24
ATOM     24  C   UNL     1      -1.748  10.588  18.501  0.00  0.00    +0.000 C 
BRANCH  24  25
ATOM     25  C   UNL     1      -2.231  11.282  17.223  0.00  0.00    +0.000 C 
BRANCH  25  26
ATOM     26  O   UNL     1      -1.479  12.477  17.008  0.00  0.00    +0.000 OA
ATOM     27  H   UNL     1      -0.560  12.199  16.844  0.00  0.00    +0.000 HD
ENDBRANCH  25  26
ENDBRANCH  24  25
ENDBRANCH  23  24
BRANCH  23  28
ATOM     28  C   UNL     1      -1.289  11.789  20.605  0.00  0.00    +0.000 C 
BRANCH  28  29
ATOM     29  C   UNL     1      -2.263  12.988  20.516  0.00  0.00    +0.000 C 
BRANCH  29  30
ATOM     30  O   UNL     1      -1.830  13.971  19.584  0.00  0.00    +0.000 OA
ATOM     31  H   UNL     1      -2.340  13.807  18.770  0.00  0.00    +0.000 HD
ENDBRANCH  29  30
ENDBRANCH  28  29
ENDBRANCH  23  28
ENDBRANCH  22  23
ENDBRANCH  21  22
ENDBRANCH  20  21
ENDBRANCH  18  20
ENDBRANCH  17  18
ENDBRANCH   1  17
TORSDOF 12
ENDMDL
MODEL 7
REMARK VINA RESULT:      -6.8      5.035      9.142
REMARK  Name = 
REMARK  12 active torsions:
REMARK  status: ('A' for Active; 'I' for Inactive)
REMARK    1  A    between atoms: O_1  and  C_2
REMARK    2  A    between atoms: C_2  and  C_3
REMARK    3  A    between atoms: C_3  and  N_4
REMARK    4  A    between atoms: N_4  and  C_5
REMARK    5  A    between atoms: N_4  and  C_8
REMARK    6  A    between atoms: C_5  and  C_6
REMARK    7  A    between atoms: C_6  and  O_7
REMARK    8  A    between atoms: C_8  and  C_9
REMARK    9  A    between atoms: C_9  and  C_10
REMARK   10  A    between atoms: C_10  and  N_11
REMARK   11  A    between atoms: N_11  and  C_12
REMARK   12  A    between atoms: C_12  and  C_13
REMARK                            x       y       z     vdW  Elec       q    Type
REMARK                         _______ _______ _______ _____ _____    ______ ____
ROOT
ATOM      1  C   UNL     1       1.970   6.829  19.936  0.00  0.00    +0.000 A 
ATOM      2  C   UNL     1       1.538   5.736  20.708  0.00  0.00    +0.000 A 
ATOM      3  C   UNL     1       1.937   4.440  20.395  0.00  0.00    +0.000 A 
ATOM      4  C   UNL     1       2.782   4.201  19.306  0.00  0.00    +0.000 A 
ATOM      5  C   UNL     1       3.181   2.897  18.985  0.00  0.00    +0.000 A 
ATOM      6  C   UNL     1       4.021   2.658  17.904  0.00  0.00    +0.000 A 
ATOM      7  C   UNL     1       4.487   3.710  17.107  0.00  0.00    +0.000 A 
ATOM      8  C   UNL     1       5.333   3.478  16.010  0.00  0.00    +0.000 A 
ATOM      9  C   UNL     1       5.794   4.536  15.229  0.00  0.00    +0.000 A 
ATOM     10  C   UNL     1       5.421   5.843  15.539  0.00  0.00    +0.000 A 
ATOM     11  C   UNL     1       4.581   6.101  16.633  0.00  0.00    +0.000 A 
ATOM     12  C   UNL     1       4.211   7.409  16.961  0.00  0.00    +0.000 A 
ATOM     13  C   UNL     1       3.371   7.658  18.045  0.00  0.00    +0.000 A 
ATOM     14  C   UNL     1       2.851   6.613  18.841  0.00  0.00    +0.000 A 
ATOM     15  C   UNL     1       3.241   5.287  18.523  0.00  0.00    +0.000 A 
ATOM     16  C   UNL     1       4.097   5.036  17.420  0.00  0.00    +0.000 A 
ENDROOT
BRANCH   1  17
ATOM     17  C   UNL     1       1.512   8.213  20.347  0.00  0.00    +0.000 C 
BRANCH  17  18
ATOM     18  N   UNL     1       1.705   8.398  21.781  0.00  0.00    +0.000 NA
ATOM     19  H   UNL     1       1.657   7.486  22.238  0.00  0.00    +0.000 HD
BRANCH  18  20
ATOM     20  C   UNL     1       0.697   9.289  22.347  0.00  0.00    +0.000 C 
BRANCH  20  21
ATOM     21  C   UNL     1      -0.216   9.764  21.219  0.00  0.00    +0.000 C 
BRANCH  21  22
ATOM     22  C   UNL     1      -0.111  11.277  20.980  0.00  0.00    +0.000 C 
BRANCH  22  23
ATOM     23  N   UNL     1      -0.673  11.741  19.689  0.00  0.00    +0.000 NA
BRANCH  23  24
ATOM     24  C   UNL     1       0.373  12.539  18.983  0.00  0.00    +0.000 C 
BRANCH  24  25
ATOM     25  C   UNL     1       1.809  12.006  19.021  0.00  0.00    +0.000 C 
BRANCH  25  26
ATOM     26  O   UNL     1       2.240  11.682  17.698  0.00  0.00    +0.000 OA
ATOM     27  H   UNL     1       3.179  11.432  17.768  0.00  0.00    +0.000 HD
ENDBRANCH  25  26
ENDBRANCH  24  25
ENDBRANCH  23  24
BRANCH  23  28
ATOM     28  C   UNL     1      -1.113  10.574  18.874  0.00  0.00    +0.000 C 
BRANCH  28  29
ATOM     29  C   UNL     1      -2.341  10.794  17.958  0.00  0.00    +0.000 C 
BRANCH  29  30
ATOM     30  O   UNL     1      -3.023  12.008  18.247  0.00  0.00    +0.000 OA
ATOM     31  H   UNL     1      -2.653  12.672  17.638  0.00  0.00    +0.000 HD
ENDBRANCH  29  30
ENDBRANCH  28  29
ENDBRANCH  23  28
ENDBRANCH  22  23
ENDBRANCH  21  22
ENDBRANCH  20  21
ENDBRANCH  18  20
ENDBRANCH  17  18
ENDBRANCH   1  17
TORSDOF 12
ENDMDL
MODEL 8
REMARK VINA RESULT:      -6.8      6.548      9.219
REMARK  Name = 
REMARK  12 active torsions:
REMARK  status: ('A' for Active; 'I' for Inactive)
REMARK    1  A    between atoms: O_1  and  C_2
REMARK    2  A    between atoms: C_2  and  C_3
REMARK    3  A    between atoms: C_3  and  N_4
REMARK    4  A    between atoms: N_4  and  C_5
REMARK    5  A    between atoms: N_4  and  C_8
REMARK    6  A    between atoms: C_5  and  C_6
REMARK    7  A    between atoms: C_6  and  O_7
REMARK    8  A    between atoms: C_8  and  C_9
REMARK    9  A    between atoms: C_9  and  C_10
REMARK   10  A    between atoms: C_10  and  N_11
REMARK   11  A    between atoms: N_11  and  C_12
REMARK   12  A    between atoms: C_12  and  C_13
REMARK                            x       y       z     vdW  Elec       q    Type
REMARK                         _______ _______ _______ _____ _____    ______ ____
ROOT
ATOM      1  C   UNL     1       0.034  10.005  18.513  0.00  0.00    +0.000 A 
ATOM      2  C   UNL     1       0.647  10.472  19.689  0.00  0.00    +0.000 A 
ATOM      3  C   UNL     1      -0.025  11.332  20.551  0.00  0.00    +0.000 A 
ATOM      4  C   UNL     1      -1.331  11.745  20.266  0.00  0.00    +0.000 A 
ATOM      5  C   UNL     1      -2.009  12.616  21.129  0.00  0.00    +0.000 A 
ATOM      6  C   UNL     1      -3.306  13.027  20.847  0.00  0.00    +0.000 A 
ATOM      7  C   UNL     1      -3.968  12.585  19.695  0.00  0.00    +0.000 A 
ATOM      8  C   UNL     1      -5.278  12.998  19.400  0.00  0.00    +0.000 A 
ATOM      9  C   UNL     1      -5.925  12.547  18.250  0.00  0.00    +0.000 A 
ATOM     10  C   UNL     1      -5.274  11.669  17.385  0.00  0.00    +0.000 A 
ATOM     11  C   UNL     1      -3.967  11.239  17.660  0.00  0.00    +0.000 A 
ATOM     12  C   UNL     1      -3.310  10.348  16.806  0.00  0.00    +0.000 A 
ATOM     13  C   UNL     1      -2.009   9.929  17.083  0.00  0.00    +0.000 A 
ATOM     14  C   UNL     1      -1.303  10.390  18.215  0.00  0.00    +0.000 A 
ATOM     15  C   UNL     1      -1.975  11.277  19.095  0.00  0.00    +0.000 A 
ATOM     16  C   UNL     1      -3.298  11.701  18.812  0.00  0.00    +0.000 A 
ENDROOT
BRANCH   1  17
ATOM     17  C   UNL     1       0.818   9.056  17.631  0.00  0.00    +0.000 C 
BRANCH  17  18
ATOM     18  N   UNL     1       2.248   9.314  17.767  0.00  0.00    +0.000 NA
ATOM     19  H   UNL     1       2.567   9.827  16.943  0.00  0.00    +0.000 HD
BRANCH  18  20
ATOM     20  C   UNL     1       3.006   8.074  17.903  0.00  0.00    +0.000 C 
BRANCH  20  21
ATOM     21  C   UNL     1       2.435   7.285  19.078  0.00  0.00    +0.000 C 
BRANCH  21  22
ATOM     22  C   UNL     1       3.162   5.951  19.296  0.00  0.00    +0.000 C 
BRANCH  22  23
ATOM     23  N   UNL     1       2.274   4.766  19.379  0.00  0.00    +0.000 NA
BRANCH  23  24
ATOM     24  C   UNL     1       2.984   3.606  18.762  0.00  0.00    +0.000 C 
BRANCH  24  25
ATOM     25  C   UNL     1       4.516   3.612  18.812  0.00  0.00    +0.000 C 
BRANCH  25  26
ATOM     26  O   UNL     1       4.973   2.658  19.772  0.00  0.00    +0.000 OA
ATOM     27  H   UNL     1       5.019   3.127  20.624  0.00  0.00    +0.000 HD
ENDBRANCH  25  26
ENDBRANCH  24  25
ENDBRANCH  23  24
BRANCH  23  28
ATOM     28  C   UNL     1       1.914   4.496  20.798  0.00  0.00    +0.000 C 
BRANCH  28  29
ATOM     29  C   UNL     1       1.695   3.014  21.186  0.00  0.00    +0.000 C 
BRANCH  29  30
ATOM     30  O   UNL     1       2.745   2.507  22.001  0.00  0.00    +0.000 OA
ATOM     31  H   UNL     1       3.515   2.413  21.412  0.00  0.00    +0.000 HD
ENDBRANCH  29  30
ENDBRANCH  28  29
ENDBRANCH  23  28
ENDBRANCH  22  23
ENDBRANCH  21  22
ENDBRANCH  20  21
ENDBRANCH  18  20
ENDBRANCH  17  18
ENDBRANCH   1  17
TORSDOF 12
ENDMDL
MODEL 9
REMARK VINA RESULT:      -6.8      4.562      7.154
REMARK  Name = 
REMARK  12 active torsions:
REMARK  status: ('A' for Active; 'I' for Inactive)
REMARK    1  A    between atoms: O_1  and  C_2
REMARK    2  A    between atoms: C_2  and  C_3
REMARK    3  A    between atoms: C_3  and  N_4
REMARK    4  A    between atoms: N_4  and  C_5
REMARK    5  A    between atoms: N_4  and  C_8
REMARK    6  A    between atoms: C_5  and  C_6
REMARK    7  A    between atoms: C_6  and  O_7
REMARK    8  A    between atoms: C_8  and  C_9
REMARK    9  A    between atoms: C_9  and  C_10
REMARK   10  A    between atoms: C_10  and  N_11
REMARK   11  A    between atoms: N_11  and  C_12
REMARK   12  A    between atoms: C_12  and  C_13
REMARK                            x       y       z     vdW  Elec       q    Type
REMARK                         _______ _______ _______ _____ _____    ______ ____
ROOT
ATOM      1  C   UNL     1       2.029   7.620  19.381  0.00  0.00    +0.000 A 
ATOM      2  C   UNL     1       2.438   8.164  18.151  0.00  0.00    +0.000 A 
ATOM      3  C   UNL     1       2.108   9.469  17.803  0.00  0.00    +0.000 A 
ATOM      4  C   UNL     1       1.363  10.270  18.675  0.00  0.00    +0.000 A 
ATOM      5  C   UNL     1       1.024  11.583  18.325  0.00  0.00    +0.000 A 
ATOM      6  C   UNL     1       0.285  12.380  19.191  0.00  0.00    +0.000 A 
ATOM      7  C   UNL     1      -0.141  11.893  20.433  0.00  0.00    +0.000 A 
ATOM      8  C   UNL     1      -0.891  12.690  21.313  0.00  0.00    +0.000 A 
ATOM      9  C   UNL     1      -1.305  12.192  22.548  0.00  0.00    +0.000 A 
ATOM     10  C   UNL     1      -0.965  10.893  22.922  0.00  0.00    +0.000 A 
ATOM     11  C   UNL     1      -0.213  10.079  22.063  0.00  0.00    +0.000 A 
ATOM     12  C   UNL     1       0.144   8.779  22.434  0.00  0.00    +0.000 A 
ATOM     13  C   UNL     1       0.887   7.974  21.572  0.00  0.00    +0.000 A 
ATOM     14  C   UNL     1       1.294   8.424  20.297  0.00  0.00    +0.000 A 
ATOM     15  C   UNL     1       0.952   9.750  19.926  0.00  0.00    +0.000 A 
ATOM     16  C   UNL     1       0.197  10.568  20.805  0.00  0.00    +0.000 A 
ENDROOT
BRANCH   1  17
ATOM     17  C   UNL     1       2.442   6.199  19.703  0.00  0.00    +0.000 C 
BRANCH  17  18
ATOM     18  N   UNL     1       3.090   5.593  18.545  0.00  0.00    +0.000 NA
ATOM     19  H   UNL     1       2.495   5.732  17.727  0.00  0.00    +0.000 HD
BRANCH  18  20
ATOM     20  C   UNL     1       3.327   4.167  18.749  0.00  0.00    +0.000 C 
BRANCH  20  21
ATOM     21  C   UNL     1       4.832   3.916  18.710  0.00  0.00    +0.000 C 
BRANCH  21  22
ATOM     22  C   UNL     1       5.644   5.200  18.928  0.00  0.00    +0.000 C 
BRANCH  22  23
ATOM     23  N   UNL     1       6.345   5.703  17.722  0.00  0.00    +0.000 NA
BRANCH  23  24
ATOM     24  C   UNL     1       7.506   6.530  18.166  0.00  0.00    +0.000 C 
BRANCH  24  25
ATOM     25  C   UNL     1       7.597   7.962  17.625  0.00  0.00    +0.000 C 
BRANCH  25  26
ATOM     26  O   UNL     1       8.530   8.714  18.402  0.00  0.00    +0.000 OA
ATOM     27  H   UNL     1       8.920   8.092  19.042  0.00  0.00    +0.000 HD
ENDBRANCH  25  26
ENDBRANCH  24  25
ENDBRANCH  23  24
BRANCH  23  28
ATOM     28  C   UNL     1       6.782   4.561  16.871  0.00  0.00    +0.000 C 
BRANCH  28  29
ATOM     29  C   UNL     1       6.680   4.760  15.340  0.00  0.00    +0.000 C 
BRANCH  29  30
ATOM     30  O   UNL     1       7.822   5.414  14.802  0.00  0.00    +0.000 OA
ATOM     31  H   UNL     1       8.263   4.754  14.237  0.00  0.00    +0.000 HD
ENDBRANCH  29  30
ENDBRANCH  28  29
ENDBRANCH  23  28
ENDBRANCH  22  23
ENDBRANCH  21  22
ENDBRANCH  20  21
ENDBRANCH  18  20
ENDBRANCH  17  18
ENDBRANCH   1  17
TORSDOF 12
ENDMDL
