MODEL 1
REMARK VINA RESULT:      -9.1      0.000      0.000
REMARK  Name = 
REMARK  8 active torsions:
REMARK  status: ('A' for Active; 'I' for Inactive)
REMARK    1  A    between atoms: C_1  and  C_2
REMARK    2  A    between atoms: C_2  and  O_3
REMARK    3  A    between atoms: O_3  and  C_4
REMARK    4  A    between atoms: C_6  and  C_7
REMARK    5  A    between atoms: N_12  and  C_13
REMARK    6  A    between atoms: C_16  and  O_17
REMARK    7  A    between atoms: O_17  and  C_18
REMARK    8  A    between atoms: C_30  and  O_31
REMARK                            x       y       z     vdW  Elec       q    Type
REMARK                         _______ _______ _______ _____ _____    ______ ____
ROOT
ATOM      1  C   UNL     1       3.989   3.999  19.490  0.00  0.00    +0.000 C 
ATOM      2  S   UNL     1       3.924   2.224  19.146  0.00  0.00    +0.000 S 
ATOM      3  C   UNL     1       2.141   2.134  19.375  0.00  0.00    +0.000 C 
ATOM      4  C   UNL     1       1.614   3.547  19.366  0.00  0.00    +0.000 C 
ATOM      5  O   UNL     1       0.407   3.788  19.373  0.00  0.00    +0.000 OA
ATOM      6  N   UNL     1       2.631   4.494  19.407  0.00  0.00    +0.000 N 
ENDROOT
BRANCH   6   7
ATOM      7  C   UNL     1       2.350   5.882  19.386  0.00  0.00    +0.000 A 
ATOM      8  C   UNL     1       2.494   6.567  18.180  0.00  0.00    +0.000 A 
ATOM      9  C   UNL     1       2.264   7.937  18.115  0.00  0.00    +0.000 A 
ATOM     10  C   UNL     1       1.749   8.622  19.221  0.00  0.00    +0.000 A 
ATOM     11  C   UNL     1       1.658   7.949  20.445  0.00  0.00    +0.000 A 
ATOM     12 CL   UNL     1       1.107   8.754  21.872  0.00  0.00    +0.000 Cl
ATOM     13  C   UNL     1       1.989   6.588  20.538  0.00  0.00    +0.000 A 
BRANCH  10  14
ATOM     14  O   UNL     1       1.337   9.941  19.146  0.00  0.00    +0.000 OA
BRANCH  14  15
ATOM     15  C   UNL     1       0.023  10.197  18.806  0.00  0.00    +0.000 A 
ATOM     16  C   UNL     1      -0.597   9.644  17.677  0.00  0.00    +0.000 A 
ATOM     17  C   UNL     1      -1.865  10.080  17.292  0.00  0.00    +0.000 A 
ATOM     18  C   UNL     1      -2.546  11.002  18.083  0.00  0.00    +0.000 A 
ATOM     19 CL   UNL     1      -4.088  11.577  17.584  0.00  0.00    +0.000 Cl
ATOM     20  C   UNL     1      -1.980  11.467  19.271  0.00  0.00    +0.000 A 
ATOM     21  C   UNL     1      -0.691  11.064  19.633  0.00  0.00    +0.000 A 
ENDBRANCH  14  15
ENDBRANCH  10  14
ENDBRANCH   6   7
BRANCH   1  24
ATOM     22  C   UNL     1       5.719   5.094  16.274  0.00  0.00    +0.000 A 
ATOM     23  C   UNL     1       4.821   4.519  17.177  0.00  0.00    +0.000 A 
ATOM     24  C   UNL     1       4.951   4.716  18.559  0.00  0.00    +0.000 A 
ATOM     25  C   UNL     1       6.007   5.519  19.025  0.00  0.00    +0.000 A 
ATOM     26  C   UNL     1       6.955   6.032  18.135  0.00  0.00    +0.000 A 
ATOM     27  C   UNL     1       6.823   5.796  16.767  0.00  0.00    +0.000 A 
BRANCH  27  28
ATOM     28  O   UNL     1       7.773   6.260  15.901  0.00  0.00    +0.000 OA
ATOM     29  H   UNL     1       7.383   6.959  15.351  0.00  0.00    +0.000 HD
ENDBRANCH  27  28
BRANCH  22  30
ATOM     30  O   UNL     1       5.574   4.986  14.912  0.00  0.00    +0.000 OA
BRANCH  30  32
ATOM     31  C   UNL     1       5.727   3.554  12.980  0.00  0.00    +0.000 C 
ATOM     32  C   UNL     1       6.311   3.906  14.333  0.00  0.00    +0.000 C 
ENDBRANCH  30  32
ENDBRANCH  22  30
ENDBRANCH   1  24
TORSDOF 7
ENDMDL
MODEL 2
REMARK VINA RESULT:      -8.6      0.974      2.023
REMARK  Name = 
REMARK  8 active torsions:
REMARK  status: ('A' for Active; 'I' for Inactive)
REMARK    1  A    between atoms: C_1  and  C_2
REMARK    2  A    between atoms: C_2  and  O_3
REMARK    3  A    between atoms: O_3  and  C_4
REMARK    4  A    between atoms: C_6  and  C_7
REMARK    5  A    between atoms: N_12  and  C_13
REMARK    6  A    between atoms: C_16  and  O_17
REMARK    7  A    between atoms: O_17  and  C_18
REMARK    8  A    between atoms: C_30  and  O_31
REMARK                            x       y       z     vdW  Elec       q    Type
REMARK                         _______ _______ _______ _____ _____    ______ ____
ROOT
ATOM      1  C   UNL     1       3.826   3.420  19.209  0.00  0.00    +0.000 C 
ATOM      2  S   UNL     1       3.528   1.642  19.062  0.00  0.00    +0.000 S 
ATOM      3  C   UNL     1       1.813   1.774  19.594  0.00  0.00    +0.000 C 
ATOM      4  C   UNL     1       1.433   3.233  19.529  0.00  0.00    +0.000 C 
ATOM      5  O   UNL     1       0.277   3.610  19.714  0.00  0.00    +0.000 OA
ATOM      6  N   UNL     1       2.529   4.058  19.304  0.00  0.00    +0.000 N 
ENDROOT
BRANCH   6   7
ATOM      7  C   UNL     1       2.386   5.463  19.189  0.00  0.00    +0.000 A 
ATOM      8  C   UNL     1       2.512   6.039  17.926  0.00  0.00    +0.000 A 
ATOM      9  C   UNL     1       2.413   7.417  17.765  0.00  0.00    +0.000 A 
ATOM     10  C   UNL     1       2.048   8.230  18.843  0.00  0.00    +0.000 A 
ATOM     11  C   UNL     1       1.978   7.663  20.120  0.00  0.00    +0.000 A 
ATOM     12 CL   UNL     1       1.611   8.623  21.510  0.00  0.00    +0.000 Cl
ATOM     13  C   UNL     1       2.179   6.285  20.301  0.00  0.00    +0.000 A 
BRANCH  10  14
ATOM     14  O   UNL     1       1.764   9.577  18.688  0.00  0.00    +0.000 OA
BRANCH  14  15
ATOM     15  C   UNL     1       0.440   9.960  18.616  0.00  0.00    +0.000 A 
ATOM     16  C   UNL     1      -0.442   9.488  17.633  0.00  0.00    +0.000 A 
ATOM     17  C   UNL     1      -1.713  10.048  17.508  0.00  0.00    +0.000 A 
ATOM     18  C   UNL     1      -2.133  11.015  18.417  0.00  0.00    +0.000 A 
ATOM     19 CL   UNL     1      -3.681  11.742  18.233  0.00  0.00    +0.000 Cl
ATOM     20  C   UNL     1      -1.301  11.404  19.469  0.00  0.00    +0.000 A 
ATOM     21  C   UNL     1      -0.010  10.876  19.567  0.00  0.00    +0.000 A 
ENDBRANCH  14  15
ENDBRANCH  10  14
ENDBRANCH   6   7
BRANCH   1  24
ATOM     22  C   UNL     1       6.665   5.164  17.355  0.00  0.00    +0.000 A 
ATOM     23  C   UNL     1       5.877   4.597  18.361  0.00  0.00    +0.000 A 
ATOM     24  C   UNL     1       4.673   3.944  18.062  0.00  0.00    +0.000 A 
ATOM     25  C   UNL     1       4.273   3.859  16.717  0.00  0.00    +0.000 A 
ATOM     26  C   UNL     1       5.013   4.491  15.714  0.00  0.00    +0.000 A 
ATOM     27  C   UNL     1       6.191   5.162  16.040  0.00  0.00    +0.000 A 
BRANCH  27  28
ATOM     28  O   UNL     1       6.893   5.817  15.066  0.00  0.00    +0.000 OA
ATOM     29  H   UNL     1       6.322   6.494  14.667  0.00  0.00    +0.000 HD
ENDBRANCH  27  28
BRANCH  22  30
ATOM     30  O   UNL     1       7.887   5.740  17.604  0.00  0.00    +0.000 OA
BRANCH  30  32
ATOM     31  C   UNL     1       7.754   8.146  17.651  0.00  0.00    +0.000 C 
ATOM     32  C   UNL     1       7.828   6.875  18.472  0.00  0.00    +0.000 C 
ENDBRANCH  30  32
ENDBRANCH  22  30
ENDBRANCH   1  24
TORSDOF 7
ENDMDL
MODEL 3
REMARK VINA RESULT:      -8.4      1.828      2.332
REMARK  Name = 
REMARK  8 active torsions:
REMARK  status: ('A' for Active; 'I' for Inactive)
REMARK    1  A    between atoms: C_1  and  C_2
REMARK    2  A    between atoms: C_2  and  O_3
REMARK    3  A    between atoms: O_3  and  C_4
REMARK    4  A    between atoms: C_6  and  C_7
REMARK    5  A    between atoms: N_12  and  C_13
REMARK    6  A    between atoms: C_16  and  O_17
REMARK    7  A    between atoms: O_17  and  C_18
REMARK    8  A    between atoms: C_30  and  O_31
REMARK                            x       y       z     vdW  Elec       q    Type
REMARK                         _______ _______ _______ _____ _____    ______ ____
ROOT
ATOM      1  C   UNL     1       3.829   3.565  19.267  0.00  0.00    +0.000 C 
ATOM      2  S   UNL     1       3.705   1.873  18.638  0.00  0.00    +0.000 S 
ATOM      3  C   UNL     1       1.926   1.789  18.901  0.00  0.00    +0.000 C 
ATOM      4  C   UNL     1       1.439   3.197  19.139  0.00  0.00    +0.000 C 
ATOM      5  O   UNL     1       0.241   3.463  19.221  0.00  0.00    +0.000 OA
ATOM      6  N   UNL     1       2.484   4.100  19.305  0.00  0.00    +0.000 N 
ENDROOT
BRANCH   6   7
ATOM      7  C   UNL     1       2.242   5.479  19.521  0.00  0.00    +0.000 A 
ATOM      8  C   UNL     1       1.892   5.895  20.805  0.00  0.00    +0.000 A 
ATOM      9  C   UNL     1       1.610   7.233  21.061  0.00  0.00    +0.000 A 
ATOM     10  C   UNL     1       1.811   8.200  20.071  0.00  0.00    +0.000 A 
ATOM     11  C   UNL     1       2.106   7.778  18.769  0.00  0.00    +0.000 A 
ATOM     12 CL   UNL     1       2.287   8.913  17.478  0.00  0.00    +0.000 Cl
ATOM     13  C   UNL     1       2.290   6.416  18.484  0.00  0.00    +0.000 A 
BRANCH  10  14
ATOM     14  O   UNL     1       1.717   9.556  20.334  0.00  0.00    +0.000 OA
BRANCH  14  15
ATOM     15  C   UNL     1       0.599  10.016  21.001  0.00  0.00    +0.000 A 
ATOM     16  C   UNL     1      -0.367  10.836  20.402  0.00  0.00    +0.000 A 
ATOM     17  C   UNL     1      -1.375  11.409  21.178  0.00  0.00    +0.000 A 
ATOM     18  C   UNL     1      -1.468  11.093  22.531  0.00  0.00    +0.000 A 
ATOM     19 CL   UNL     1      -2.679  11.837  23.498  0.00  0.00    +0.000 Cl
ATOM     20  C   UNL     1      -0.577  10.184  23.106  0.00  0.00    +0.000 A 
ATOM     21  C   UNL     1       0.460   9.645  22.339  0.00  0.00    +0.000 A 
ENDBRANCH  14  15
ENDBRANCH  10  14
ENDBRANCH   6   7
BRANCH   1  24
ATOM     22  C   UNL     1       5.650   4.976  16.229  0.00  0.00    +0.000 A 
ATOM     23  C   UNL     1       4.746   4.287  17.042  0.00  0.00    +0.000 A 
ATOM     24  C   UNL     1       4.788   4.403  18.438  0.00  0.00    +0.000 A 
ATOM     25  C   UNL     1       5.759   5.242  19.013  0.00  0.00    +0.000 A 
ATOM     26  C   UNL     1       6.716   5.873  18.213  0.00  0.00    +0.000 A 
ATOM     27  C   UNL     1       6.674   5.717  16.828  0.00  0.00    +0.000 A 
BRANCH  27  28
ATOM     28  O   UNL     1       7.635   6.298  16.048  0.00  0.00    +0.000 OA
ATOM     29  H   UNL     1       7.313   7.162  15.743  0.00  0.00    +0.000 HD
ENDBRANCH  27  28
BRANCH  22  30
ATOM     30  O   UNL     1       5.587   4.948  14.857  0.00  0.00    +0.000 OA
BRANCH  30  32
ATOM     31  C   UNL     1       5.763   3.611  12.860  0.00  0.00    +0.000 C 
ATOM     32  C   UNL     1       6.275   3.840  14.267  0.00  0.00    +0.000 C 
ENDBRANCH  30  32
ENDBRANCH  22  30
ENDBRANCH   1  24
TORSDOF 7
ENDMDL
MODEL 4
REMARK VINA RESULT:      -8.3      1.197      1.570
REMARK  Name = 
REMARK  8 active torsions:
REMARK  status: ('A' for Active; 'I' for Inactive)
REMARK    1  A    between atoms: C_1  and  C_2
REMARK    2  A    between atoms: C_2  and  O_3
REMARK    3  A    between atoms: O_3  and  C_4
REMARK    4  A    between atoms: C_6  and  C_7
REMARK    5  A    between atoms: N_12  and  C_13
REMARK    6  A    between atoms: C_16  and  O_17
REMARK    7  A    between atoms: O_17  and  C_18
REMARK    8  A    between atoms: C_30  and  O_31
REMARK                            x       y       z     vdW  Elec       q    Type
REMARK                         _______ _______ _______ _____ _____    ______ ____
ROOT
ATOM      1  C   UNL     1       3.871   3.638  19.308  0.00  0.00    +0.000 C 
ATOM      2  S   UNL     1       3.793   1.939  18.692  0.00  0.00    +0.000 S 
ATOM      3  C   UNL     1       2.007   1.833  18.892  0.00  0.00    +0.000 C 
ATOM      4  C   UNL     1       1.493   3.236  19.099  0.00  0.00    +0.000 C 
ATOM      5  O   UNL     1       0.289   3.485  19.135  0.00  0.00    +0.000 OA
ATOM      6  N   UNL     1       2.519   4.154  19.293  0.00  0.00    +0.000 N 
ENDROOT
BRANCH   6   7
ATOM      7  C   UNL     1       2.251   5.532  19.486  0.00  0.00    +0.000 A 
ATOM      8  C   UNL     1       1.771   5.943  20.729  0.00  0.00    +0.000 A 
ATOM      9  C   UNL     1       1.459   7.279  20.959  0.00  0.00    +0.000 A 
ATOM     10  C   UNL     1       1.755   8.250  19.996  0.00  0.00    +0.000 A 
ATOM     11  C   UNL     1       2.182   7.833  18.730  0.00  0.00    +0.000 A 
ATOM     12 CL   UNL     1       2.488   8.972  17.466  0.00  0.00    +0.000 Cl
ATOM     13  C   UNL     1       2.399   6.472  18.462  0.00  0.00    +0.000 A 
BRANCH  10  14
ATOM     14  O   UNL     1       1.629   9.605  20.251  0.00  0.00    +0.000 OA
BRANCH  14  15
ATOM     15  C   UNL     1       0.377  10.177  20.140  0.00  0.00    +0.000 A 
ATOM     16  C   UNL     1      -0.385  10.128  18.965  0.00  0.00    +0.000 A 
ATOM     17  C   UNL     1      -1.559  10.875  18.862  0.00  0.00    +0.000 A 
ATOM     18  C   UNL     1      -2.015  11.598  19.962  0.00  0.00    +0.000 A 
ATOM     19 CL   UNL     1      -3.434  12.558  19.820  0.00  0.00    +0.000 Cl
ATOM     20  C   UNL     1      -1.320  11.555  21.171  0.00  0.00    +0.000 A 
ATOM     21  C   UNL     1      -0.120  10.843  21.260  0.00  0.00    +0.000 A 
ENDBRANCH  14  15
ENDBRANCH  10  14
ENDBRANCH   6   7
BRANCH   1  24
ATOM     22  C   UNL     1       5.632   5.208  16.312  0.00  0.00    +0.000 A 
ATOM     23  C   UNL     1       4.722   4.509  17.110  0.00  0.00    +0.000 A 
ATOM     24  C   UNL     1       4.848   4.482  18.506  0.00  0.00    +0.000 A 
ATOM     25  C   UNL     1       5.912   5.185  19.097  0.00  0.00    +0.000 A 
ATOM     26  C   UNL     1       6.872   5.820  18.304  0.00  0.00    +0.000 A 
ATOM     27  C   UNL     1       6.743   5.807  16.915  0.00  0.00    +0.000 A 
BRANCH  27  28
ATOM     28  O   UNL     1       7.704   6.390  16.137  0.00  0.00    +0.000 OA
ATOM     29  H   UNL     1       8.570   6.262  16.557  0.00  0.00    +0.000 HD
ENDBRANCH  27  28
BRANCH  22  30
ATOM     30  O   UNL     1       5.493   5.321  14.951  0.00  0.00    +0.000 OA
BRANCH  30  32
ATOM     31  C   UNL     1       6.677   4.060  13.272  0.00  0.00    +0.000 C 
ATOM     32  C   UNL     1       5.526   4.070  14.257  0.00  0.00    +0.000 C 
ENDBRANCH  30  32
ENDBRANCH  22  30
ENDBRANCH   1  24
TORSDOF 7
ENDMDL
MODEL 5
REMARK VINA RESULT:      -8.2      0.996      1.581
REMARK  Name = 
REMARK  8 active torsions:
REMARK  status: ('A' for Active; 'I' for Inactive)
REMARK    1  A    between atoms: C_1  and  C_2
REMARK    2  A    between atoms: C_2  and  O_3
REMARK    3  A    between atoms: O_3  and  C_4
REMARK    4  A    between atoms: C_6  and  C_7
REMARK    5  A    between atoms: N_12  and  C_13
REMARK    6  A    between atoms: C_16  and  O_17
REMARK    7  A    between atoms: O_17  and  C_18
REMARK    8  A    between atoms: C_30  and  O_31
REMARK                            x       y       z     vdW  Elec       q    Type
REMARK                         _______ _______ _______ _____ _____    ______ ____
ROOT
ATOM      1  C   UNL     1       3.944   3.759  19.383  0.00  0.00    +0.000 C 
ATOM      2  S   UNL     1       3.912   2.030  18.851  0.00  0.00    +0.000 S 
ATOM      3  C   UNL     1       2.128   1.890  19.044  0.00  0.00    +0.000 C 
ATOM      4  C   UNL     1       1.578   3.288  19.178  0.00  0.00    +0.000 C 
ATOM      5  O   UNL     1       0.368   3.509  19.194  0.00  0.00    +0.000 OA
ATOM      6  N   UNL     1       2.580   4.240  19.334  0.00  0.00    +0.000 N 
ENDROOT
BRANCH   6   7
ATOM      7  C   UNL     1       2.276   5.618  19.457  0.00  0.00    +0.000 A 
ATOM      8  C   UNL     1       1.702   6.064  20.647  0.00  0.00    +0.000 A 
ATOM      9  C   UNL     1       1.353   7.402  20.805  0.00  0.00    +0.000 A 
ATOM     10  C   UNL     1       1.702   8.343  19.830  0.00  0.00    +0.000 A 
ATOM     11  C   UNL     1       2.225   7.890  18.614  0.00  0.00    +0.000 A 
ATOM     12 CL   UNL     1       2.603   8.989  17.334  0.00  0.00    +0.000 Cl
ATOM     13  C   UNL     1       2.483   6.524  18.412  0.00  0.00    +0.000 A 
BRANCH  10  14
ATOM     14  O   UNL     1       1.536   9.704  20.026  0.00  0.00    +0.000 OA
BRANCH  14  15
ATOM     15  C   UNL     1       0.351  10.283  19.618  0.00  0.00    +0.000 A 
ATOM     16  C   UNL     1      -0.328  11.249  20.372  0.00  0.00    +0.000 A 
ATOM     17  C   UNL     1      -1.605  11.663  19.991  0.00  0.00    +0.000 A 
ATOM     18  C   UNL     1      -2.163  11.177  18.812  0.00  0.00    +0.000 A 
ATOM     19 CL   UNL     1      -3.756  11.647  18.367  0.00  0.00    +0.000 Cl
ATOM     20  C   UNL     1      -1.441  10.303  17.997  0.00  0.00    +0.000 A 
ATOM     21  C   UNL     1      -0.181   9.854  18.402  0.00  0.00    +0.000 A 
ENDBRANCH  14  15
ENDBRANCH  10  14
ENDBRANCH   6   7
BRANCH   1  24
ATOM     22  C   UNL     1       5.740   5.168  16.329  0.00  0.00    +0.000 A 
ATOM     23  C   UNL     1       4.836   4.488  17.150  0.00  0.00    +0.000 A 
ATOM     24  C   UNL     1       4.906   4.586  18.547  0.00  0.00    +0.000 A 
ATOM     25  C   UNL     1       5.906   5.397  19.113  0.00  0.00    +0.000 A 
ATOM     26  C   UNL     1       6.862   6.016  18.303  0.00  0.00    +0.000 A 
ATOM     27  C   UNL     1       6.791   5.878  16.917  0.00  0.00    +0.000 A 
BRANCH  27  28
ATOM     28  O   UNL     1       7.750   6.448  16.126  0.00  0.00    +0.000 OA
ATOM     29  H   UNL     1       8.017   7.296  16.517  0.00  0.00    +0.000 HD
ENDBRANCH  27  28
BRANCH  22  30
ATOM     30  O   UNL     1       5.651   5.157  14.958  0.00  0.00    +0.000 OA
BRANCH  30  32
ATOM     31  C   UNL     1       5.550   3.577  13.142  0.00  0.00    +0.000 C 
ATOM     32  C   UNL     1       6.338   4.065  14.340  0.00  0.00    +0.000 C 
ENDBRANCH  30  32
ENDBRANCH  22  30
ENDBRANCH   1  24
TORSDOF 7
ENDMDL
MODEL 6
REMARK VINA RESULT:      -7.5      1.543      2.557
REMARK  Name = 
REMARK  8 active torsions:
REMARK  status: ('A' for Active; 'I' for Inactive)
REMARK    1  A    between atoms: C_1  and  C_2
REMARK    2  A    between atoms: C_2  and  O_3
REMARK    3  A    between atoms: O_3  and  C_4
REMARK    4  A    between atoms: C_6  and  C_7
REMARK    5  A    between atoms: N_12  and  C_13
REMARK    6  A    between atoms: C_16  and  O_17
REMARK    7  A    between atoms: O_17  and  C_18
REMARK    8  A    between atoms: C_30  and  O_31
REMARK                            x       y       z     vdW  Elec       q    Type
REMARK                         _______ _______ _______ _____ _____    ______ ____
ROOT
ATOM      1  C   UNL     1       3.869   3.109  19.152  0.00  0.00    +0.000 C 
ATOM      2  S   UNL     1       3.603   1.348  18.837  0.00  0.00    +0.000 S 
ATOM      3  C   UNL     1       1.906   1.384  19.436  0.00  0.00    +0.000 C 
ATOM      4  C   UNL     1       1.494   2.831  19.533  0.00  0.00    +0.000 C 
ATOM      5  O   UNL     1       0.337   3.159  19.793  0.00  0.00    +0.000 OA
ATOM      6  N   UNL     1       2.564   3.702  19.355  0.00  0.00    +0.000 N 
ENDROOT
BRANCH   6   7
ATOM      7  C   UNL     1       2.386   5.107  19.388  0.00  0.00    +0.000 A 
ATOM      8  C   UNL     1       1.929   5.687  20.571  0.00  0.00    +0.000 A 
ATOM      9  C   UNL     1       1.706   7.058  20.645  0.00  0.00    +0.000 A 
ATOM     10  C   UNL     1       2.069   7.892  19.582  0.00  0.00    +0.000 A 
ATOM     11  C   UNL     1       2.474   7.307  18.376  0.00  0.00    +0.000 A 
ATOM     12 CL   UNL     1       2.860   8.273  16.997  0.00  0.00    +0.000 Cl
ATOM     13  C   UNL     1       2.602   5.913  18.267  0.00  0.00    +0.000 A 
BRANCH  10  14
ATOM     14  O   UNL     1       2.033   9.272  19.682  0.00  0.00    +0.000 OA
BRANCH  14  15
ATOM     15  C   UNL     1       0.801   9.896  19.660  0.00  0.00    +0.000 A 
ATOM     16  C   UNL     1       0.012   9.992  18.505  0.00  0.00    +0.000 A 
ATOM     17  C   UNL     1      -1.135  10.786  18.507  0.00  0.00    +0.000 A 
ATOM     18  C   UNL     1      -1.539  11.410  19.684  0.00  0.00    +0.000 A 
ATOM     19 CL   UNL     1      -2.925  12.429  19.674  0.00  0.00    +0.000 Cl
ATOM     20  C   UNL     1      -0.820  11.222  20.865  0.00  0.00    +0.000 A 
ATOM     21  C   UNL     1       0.354  10.464  20.853  0.00  0.00    +0.000 A 
ENDBRANCH  14  15
ENDBRANCH  10  14
ENDBRANCH   6   7
BRANCH   1  24
ATOM     22  C   UNL     1       6.604   5.096  17.390  0.00  0.00    +0.000 A 
ATOM     23  C   UNL     1       5.865   4.412  18.359  0.00  0.00    +0.000 A 
ATOM     24  C   UNL     1       4.663   3.766  18.037  0.00  0.00    +0.000 A 
ATOM     25  C   UNL     1       4.215   3.810  16.705  0.00  0.00    +0.000 A 
ATOM     26  C   UNL     1       4.905   4.557  15.747  0.00  0.00    +0.000 A 
ATOM     27  C   UNL     1       6.082   5.219  16.099  0.00  0.00    +0.000 A 
BRANCH  27  28
ATOM     28  O   UNL     1       6.735   5.985  15.173  0.00  0.00    +0.000 OA
ATOM     29  H   UNL     1       6.670   6.918  15.436  0.00  0.00    +0.000 HD
ENDBRANCH  27  28
BRANCH  22  30
ATOM     30  O   UNL     1       7.823   5.672  17.654  0.00  0.00    +0.000 OA
BRANCH  30  32
ATOM     31  C   UNL     1       7.872   8.081  17.707  0.00  0.00    +0.000 C 
ATOM     32  C   UNL     1       7.753   6.808  18.520  0.00  0.00    +0.000 C 
ENDBRANCH  30  32
ENDBRANCH  22  30
ENDBRANCH   1  24
TORSDOF 7
ENDMDL
MODEL 7
REMARK VINA RESULT:      -7.5      3.424      8.106
REMARK  Name = 
REMARK  8 active torsions:
REMARK  status: ('A' for Active; 'I' for Inactive)
REMARK    1  A    between atoms: C_1  and  C_2
REMARK    2  A    between atoms: C_2  and  O_3
REMARK    3  A    between atoms: O_3  and  C_4
REMARK    4  A    between atoms: C_6  and  C_7
REMARK    5  A    between atoms: N_12  and  C_13
REMARK    6  A    between atoms: C_16  and  O_17
REMARK    7  A    between atoms: O_17  and  C_18
REMARK    8  A    between atoms: C_30  and  O_31
REMARK                            x       y       z     vdW  Elec       q    Type
REMARK                         _______ _______ _______ _____ _____    ______ ____
ROOT
ATOM      1  C   UNL     1       2.140   4.356  19.612  0.00  0.00    +0.000 C 
ATOM      2  S   UNL     1       1.547   3.823  21.236  0.00  0.00    +0.000 S 
ATOM      3  C   UNL     1       2.825   2.568  21.413  0.00  0.00    +0.000 C 
ATOM      4  C   UNL     1       3.875   2.844  20.366  0.00  0.00    +0.000 C 
ATOM      5  O   UNL     1       4.935   2.221  20.333  0.00  0.00    +0.000 OA
ATOM      6  N   UNL     1       3.472   3.810  19.451  0.00  0.00    +0.000 N 
ENDROOT
BRANCH   6   7
ATOM      7  C   UNL     1       4.321   4.230  18.397  0.00  0.00    +0.000 A 
ATOM      8  C   UNL     1       4.068   3.746  17.114  0.00  0.00    +0.000 A 
ATOM      9  C   UNL     1       4.893   4.100  16.051  0.00  0.00    +0.000 A 
ATOM     10  C   UNL     1       5.901   5.055  16.225  0.00  0.00    +0.000 A 
ATOM     11  C   UNL     1       6.192   5.497  17.521  0.00  0.00    +0.000 A 
ATOM     12 CL   UNL     1       7.476   6.615  17.821  0.00  0.00    +0.000 Cl
ATOM     13  C   UNL     1       5.424   5.061  18.613  0.00  0.00    +0.000 A 
BRANCH  10  14
ATOM     14  O   UNL     1       6.623   5.568  15.162  0.00  0.00    +0.000 OA
BRANCH  14  15
ATOM     15  C   UNL     1       6.674   4.834  13.993  0.00  0.00    +0.000 A 
ATOM     16  C   UNL     1       5.775   3.800  13.698  0.00  0.00    +0.000 A 
ATOM     17  C   UNL     1       5.989   2.984  12.588  0.00  0.00    +0.000 A 
ATOM     18  C   UNL     1       7.048   3.256  11.726  0.00  0.00    +0.000 A 
ATOM     19 CL   UNL     1       7.342   2.221  10.384  0.00  0.00    +0.000 Cl
ATOM     20  C   UNL     1       7.877   4.356  11.952  0.00  0.00    +0.000 A 
ATOM     21  C   UNL     1       7.690   5.147  13.089  0.00  0.00    +0.000 A 
ENDBRANCH  14  15
ENDBRANCH  10  14
ENDBRANCH   6   7
BRANCH   1  24
ATOM     22  C   UNL     1       1.660   8.032  20.503  0.00  0.00    +0.000 A 
ATOM     23  C   UNL     1       1.796   6.644  20.592  0.00  0.00    +0.000 A 
ATOM     24  C   UNL     1       2.085   5.866  19.461  0.00  0.00    +0.000 A 
ATOM     25  C   UNL     1       2.248   6.516  18.225  0.00  0.00    +0.000 A 
ATOM     26  C   UNL     1       2.036   7.893  18.112  0.00  0.00    +0.000 A 
ATOM     27  C   UNL     1       1.717   8.641  19.246  0.00  0.00    +0.000 A 
BRANCH  27  28
ATOM     28  O   UNL     1       1.467   9.980  19.129  0.00  0.00    +0.000 OA
ATOM     29  H   UNL     1       2.041  10.462  19.747  0.00  0.00    +0.000 HD
ENDBRANCH  27  28
BRANCH  22  30
ATOM     30  O   UNL     1       1.455   8.830  21.602  0.00  0.00    +0.000 OA
BRANCH  30  32
ATOM     31  C   UNL     1      -0.443  10.260  22.000  0.00  0.00    +0.000 C 
ATOM     32  C   UNL     1       0.101   8.848  22.063  0.00  0.00    +0.000 C 
ENDBRANCH  30  32
ENDBRANCH  22  30
ENDBRANCH   1  24
TORSDOF 7
ENDMDL
MODEL 8
REMARK VINA RESULT:      -7.2      1.417      2.582
REMARK  Name = 
REMARK  8 active torsions:
REMARK  status: ('A' for Active; 'I' for Inactive)
REMARK    1  A    between atoms: C_1  and  C_2
REMARK    2  A    between atoms: C_2  and  O_3
REMARK    3  A    between atoms: O_3  and  C_4
REMARK    4  A    between atoms: C_6  and  C_7
REMARK    5  A    between atoms: N_12  and  C_13
REMARK    6  A    between atoms: C_16  and  O_17
REMARK    7  A    between atoms: O_17  and  C_18
REMARK    8  A    between atoms: C_30  and  O_31
REMARK                            x       y       z     vdW  Elec       q    Type
REMARK                         _______ _______ _______ _____ _____    ______ ____
ROOT
ATOM      1  C   UNL     1       4.008   3.525  19.505  0.00  0.00    +0.000 C 
ATOM      2  S   UNL     1       3.801   1.729  19.457  0.00  0.00    +0.000 S 
ATOM      3  C   UNL     1       2.136   1.792  20.139  0.00  0.00    +0.000 C 
ATOM      4  C   UNL     1       1.668   3.224  20.052  0.00  0.00    +0.000 C 
ATOM      5  O   UNL     1       0.513   3.546  20.327  0.00  0.00    +0.000 OA
ATOM      6  N   UNL     1       2.690   4.096  19.693  0.00  0.00    +0.000 N 
ENDROOT
BRANCH   6   7
ATOM      7  C   UNL     1       2.456   5.484  19.537  0.00  0.00    +0.000 A 
ATOM      8  C   UNL     1       1.862   6.177  20.591  0.00  0.00    +0.000 A 
ATOM      9  C   UNL     1       1.580   7.533  20.475  0.00  0.00    +0.000 A 
ATOM     10  C   UNL     1       2.014   8.253  19.357  0.00  0.00    +0.000 A 
ATOM     11  C   UNL     1       2.559   7.551  18.275  0.00  0.00    +0.000 A 
ATOM     12 CL   UNL     1       3.043   8.365  16.829  0.00  0.00    +0.000 Cl
ATOM     13  C   UNL     1       2.751   6.162  18.350  0.00  0.00    +0.000 A 
BRANCH  10  14
ATOM     14  O   UNL     1       1.914   9.632  19.282  0.00  0.00    +0.000 OA
BRANCH  14  15
ATOM     15  C   UNL     1       0.665  10.186  19.086  0.00  0.00    +0.000 A 
ATOM     16  C   UNL     1       0.073  11.077  19.992  0.00  0.00    +0.000 A 
ATOM     17  C   UNL     1      -1.258  11.461  19.825  0.00  0.00    +0.000 A 
ATOM     18  C   UNL     1      -1.967  11.025  18.708  0.00  0.00    +0.000 A 
ATOM     19 CL   UNL     1      -3.621  11.457  18.528  0.00  0.00    +0.000 Cl
ATOM     20  C   UNL     1      -1.344  10.232  17.743  0.00  0.00    +0.000 A 
ATOM     21  C   UNL     1      -0.024   9.811  17.933  0.00  0.00    +0.000 A 
ENDBRANCH  14  15
ENDBRANCH  10  14
ENDBRANCH   6   7
BRANCH   1  24
ATOM     22  C   UNL     1       6.585   5.302  17.329  0.00  0.00    +0.000 A 
ATOM     23  C   UNL     1       5.922   4.740  18.423  0.00  0.00    +0.000 A 
ATOM     24  C   UNL     1       4.717   4.042  18.265  0.00  0.00    +0.000 A 
ATOM     25  C   UNL     1       4.186   3.906  16.970  0.00  0.00    +0.000 A 
ATOM     26  C   UNL     1       4.800   4.531  15.881  0.00  0.00    +0.000 A 
ATOM     27  C   UNL     1       5.982   5.248  16.069  0.00  0.00    +0.000 A 
BRANCH  27  28
ATOM     28  O   UNL     1       6.559   5.896  15.012  0.00  0.00    +0.000 OA
ATOM     29  H   UNL     1       6.193   6.794  14.955  0.00  0.00    +0.000 HD
ENDBRANCH  27  28
BRANCH  22  30
ATOM     30  O   UNL     1       7.805   5.923  17.437  0.00  0.00    +0.000 OA
BRANCH  30  32
ATOM     31  C   UNL     1       7.912   8.318  17.689  0.00  0.00    +0.000 C 
ATOM     32  C   UNL     1       7.835   6.982  18.399  0.00  0.00    +0.000 C 
ENDBRANCH  30  32
ENDBRANCH  22  30
ENDBRANCH   1  24
TORSDOF 7
ENDMDL
MODEL 9
REMARK VINA RESULT:      -7.1      2.021      3.054
REMARK  Name = 
REMARK  8 active torsions:
REMARK  status: ('A' for Active; 'I' for Inactive)
REMARK    1  A    between atoms: C_1  and  C_2
REMARK    2  A    between atoms: C_2  and  O_3
REMARK    3  A    between atoms: O_3  and  C_4
REMARK    4  A    between atoms: C_6  and  C_7
REMARK    5  A    between atoms: N_12  and  C_13
REMARK    6  A    between atoms: C_16  and  O_17
REMARK    7  A    between atoms: O_17  and  C_18
REMARK    8  A    between atoms: C_30  and  O_31
REMARK                            x       y       z     vdW  Elec       q    Type
REMARK                         _______ _______ _______ _____ _____    ______ ____
ROOT
ATOM      1  C   UNL     1       3.871   3.012  19.098  0.00  0.00    +0.000 C 
ATOM      2  S   UNL     1       3.606   1.266  18.707  0.00  0.00    +0.000 S 
ATOM      3  C   UNL     1       1.922   1.266  19.343  0.00  0.00    +0.000 C 
ATOM      4  C   UNL     1       1.506   2.706  19.514  0.00  0.00    +0.000 C 
ATOM      5  O   UNL     1       0.353   3.016  19.813  0.00  0.00    +0.000 OA
ATOM      6  N   UNL     1       2.568   3.589  19.354  0.00  0.00    +0.000 N 
ENDROOT
BRANCH   6   7
ATOM      7  C   UNL     1       2.385   4.990  19.455  0.00  0.00    +0.000 A 
ATOM      8  C   UNL     1       2.000   5.519  20.687  0.00  0.00    +0.000 A 
ATOM      9  C   UNL     1       1.775   6.884  20.830  0.00  0.00    +0.000 A 
ATOM     10  C   UNL     1       2.067   7.763  19.781  0.00  0.00    +0.000 A 
ATOM     11  C   UNL     1       2.398   7.230  18.529  0.00  0.00    +0.000 A 
ATOM     12 CL   UNL     1       2.692   8.253  17.168  0.00  0.00    +0.000 Cl
ATOM     13  C   UNL     1       2.526   5.842  18.355  0.00  0.00    +0.000 A 
BRANCH  10  14
ATOM     14  O   UNL     1       2.029   9.138  19.938  0.00  0.00    +0.000 OA
BRANCH  14  15
ATOM     15  C   UNL     1       0.962   9.688  20.620  0.00  0.00    +0.000 A 
ATOM     16  C   UNL     1       0.033  10.550  20.022  0.00  0.00    +0.000 A 
ATOM     17  C   UNL     1      -0.913  11.210  20.806  0.00  0.00    +0.000 A 
ATOM     18  C   UNL     1      -0.988  10.940  22.170  0.00  0.00    +0.000 A 
ATOM     19 CL   UNL     1      -2.122  11.789  23.145  0.00  0.00    +0.000 Cl
ATOM     20  C   UNL     1      -0.141   9.993  22.749  0.00  0.00    +0.000 A 
ATOM     21  C   UNL     1       0.837   9.366  21.972  0.00  0.00    +0.000 A 
ENDBRANCH  14  15
ENDBRANCH  10  14
ENDBRANCH   6   7
BRANCH   1  24
ATOM     22  C   UNL     1       6.570   5.076  17.369  0.00  0.00    +0.000 A 
ATOM     23  C   UNL     1       5.853   4.346  18.320  0.00  0.00    +0.000 A 
ATOM     24  C   UNL     1       4.639   3.724  17.997  0.00  0.00    +0.000 A 
ATOM     25  C   UNL     1       4.155   3.840  16.682  0.00  0.00    +0.000 A 
ATOM     26  C   UNL     1       4.825   4.634  15.746  0.00  0.00    +0.000 A 
ATOM     27  C   UNL     1       6.014   5.270  16.100  0.00  0.00    +0.000 A 
BRANCH  27  28
ATOM     28  O   UNL     1       6.647   6.081  15.199  0.00  0.00    +0.000 OA
ATOM     29  H   UNL     1       7.472   6.406  15.594  0.00  0.00    +0.000 HD
ENDBRANCH  27  28
BRANCH  22  30
ATOM     30  O   UNL     1       7.799   5.631  17.629  0.00  0.00    +0.000 OA
BRANCH  30  32
ATOM     31  C   UNL     1       7.925   8.037  17.696  0.00  0.00    +0.000 C 
ATOM     32  C   UNL     1       7.752   6.765  18.501  0.00  0.00    +0.000 C 
ENDBRANCH  30  32
ENDBRANCH  22  30
ENDBRANCH   1  24
TORSDOF 7
ENDMDL
