MODEL 1
REMARK VINA RESULT:      -8.3      0.000      0.000
REMARK  Name = 
REMARK  5 active torsions:
REMARK  status: ('A' for Active; 'I' for Inactive)
REMARK    1  A    between atoms: C_2  and  O_3
REMARK    2  A    between atoms: C_2  and  C_4
REMARK    3  A    between atoms: C_7  and  C_8
REMARK    4  A    between atoms: C_8  and  C_9
REMARK    5  A    between atoms: C_8  and  C_18
REMARK                            x       y       z     vdW  Elec       q    Type
REMARK                         _______ _______ _______ _____ _____    ______ ____
ROOT
ATOM      1  C   UNL     1      -0.555  10.875  20.253  0.00  0.00    +0.000 C 
ENDROOT
BRANCH   1   2
ATOM      2  C   UNL     1      -1.595  11.209  19.218  0.00  0.00    +0.000 A 
ATOM      3  C   UNL     1      -2.130  12.499  19.176  0.00  0.00    +0.000 A 
ATOM      4  N   UNL     1      -3.453  12.244  18.899  0.00  0.00    +0.000 N 
ATOM      5  C   UNL     1      -3.361  11.444  17.781  0.00  0.00    +0.000 A 
ATOM      6  C   UNL     1      -4.253  11.355  16.712  0.00  0.00    +0.000 A 
ATOM      7  C   UNL     1      -3.870  10.549  15.654  0.00  0.00    +0.000 A 
ATOM      8  C   UNL     1      -2.698   9.795  15.746  0.00  0.00    +0.000 A 
ATOM      9  C   UNL     1      -1.864   9.815  16.902  0.00  0.00    +0.000 A 
ATOM     10  C   UNL     1      -2.159  10.715  17.955  0.00  0.00    +0.000 A 
ATOM     11  H   UNL     1      -4.101  11.977  19.626  0.00  0.00    +0.000 HD
ENDBRANCH   1   2
BRANCH   1  12
ATOM     12  C   UNL     1      -0.651  11.711  21.500  0.00  0.00    +0.000 A 
ATOM     13  C   UNL     1      -0.999  11.110  22.705  0.00  0.00    +0.000 A 
ATOM     14  N   UNL     1      -1.879  11.992  23.267  0.00  0.00    +0.000 N 
ATOM     15  C   UNL     1      -1.240  13.201  23.141  0.00  0.00    +0.000 A 
ATOM     16  C   UNL     1      -1.408  14.343  23.934  0.00  0.00    +0.000 A 
ATOM     17  C   UNL     1      -0.580  15.415  23.658  0.00  0.00    +0.000 A 
ATOM     18  C   UNL     1       0.308  15.344  22.581  0.00  0.00    +0.000 A 
ATOM     19  C   UNL     1       0.373  14.212  21.716  0.00  0.00    +0.000 A 
ATOM     20  C   UNL     1      -0.401  13.065  22.005  0.00  0.00    +0.000 A 
ATOM     21  H   UNL     1      -2.879  11.950  23.123  0.00  0.00    +0.000 HD
ENDBRANCH   1  12
BRANCH   1  25
ATOM     22  C   UNL     1       2.142   7.596  19.417  0.00  0.00    +0.000 A 
ATOM     23  C   UNL     1       1.943   8.625  18.495  0.00  0.00    +0.000 A 
ATOM     24  C   UNL     1       1.108   9.707  18.805  0.00  0.00    +0.000 A 
ATOM     25  C   UNL     1       0.430   9.770  20.031  0.00  0.00    +0.000 A 
ATOM     26  C   UNL     1       0.646   8.735  20.957  0.00  0.00    +0.000 A 
ATOM     27  C   UNL     1       1.512   7.677  20.668  0.00  0.00    +0.000 A 
BRANCH  22  29
ATOM     28  O   UNL     1       3.243   6.155  17.857  0.00  0.00    +0.000 OA
ATOM     29  C   UNL     1       3.042   6.461  19.022  0.00  0.00    +0.000 C 
BRANCH  29  30
ATOM     30  O   UNL     1       3.544   5.756  20.059  0.00  0.00    +0.000 OA
ATOM     31  H   UNL     1       3.303   6.081  20.944  0.00  0.00    +0.000 HD
ENDBRANCH  29  30
ENDBRANCH  22  29
ENDBRANCH   1  25
TORSDOF 5
ENDMDL
MODEL 2
REMARK VINA RESULT:      -8.2      2.316      3.201
REMARK  Name = 
REMARK  5 active torsions:
REMARK  status: ('A' for Active; 'I' for Inactive)
REMARK    1  A    between atoms: C_2  and  O_3
REMARK    2  A    between atoms: C_2  and  C_4
REMARK    3  A    between atoms: C_7  and  C_8
REMARK    4  A    between atoms: C_8  and  C_9
REMARK    5  A    between atoms: C_8  and  C_18
REMARK                            x       y       z     vdW  Elec       q    Type
REMARK                         _______ _______ _______ _____ _____    ______ ____
ROOT
ATOM      1  C   UNL     1       0.080  11.097  18.732  0.00  0.00    +0.000 C 
ENDROOT
BRANCH   1   2
ATOM      2  C   UNL     1      -1.295  10.996  18.128  0.00  0.00    +0.000 A 
ATOM      3  C   UNL     1      -1.572   9.968  17.224  0.00  0.00    +0.000 A 
ATOM      4  N   UNL     1      -2.360  10.613  16.300  0.00  0.00    +0.000 N 
ATOM      5  C   UNL     1      -3.331  11.178  17.099  0.00  0.00    +0.000 A 
ATOM      6  C   UNL     1      -4.670  11.417  16.787  0.00  0.00    +0.000 A 
ATOM      7  C   UNL     1      -5.466  11.896  17.812  0.00  0.00    +0.000 A 
ATOM      8  C   UNL     1      -4.892  12.217  19.044  0.00  0.00    +0.000 A 
ATOM      9  C   UNL     1      -3.497  12.074  19.298  0.00  0.00    +0.000 A 
ATOM     10  C   UNL     1      -2.670  11.476  18.316  0.00  0.00    +0.000 A 
ATOM     11  H   UNL     1      -1.957  11.178  15.566  0.00  0.00    +0.000 HD
ENDBRANCH   1   2
BRANCH   1  12
ATOM     12  C   UNL     1       0.505  12.508  19.036  0.00  0.00    +0.000 A 
ATOM     13  C   UNL     1      -0.082  13.190  20.096  0.00  0.00    +0.000 A 
ATOM     14  N   UNL     1      -0.301  14.443  19.597  0.00  0.00    +0.000 N 
ATOM     15  C   UNL     1       0.899  14.767  19.016  0.00  0.00    +0.000 A 
ATOM     16  C   UNL     1       1.423  16.047  18.792  0.00  0.00    +0.000 A 
ATOM     17  C   UNL     1       2.700  16.110  18.267  0.00  0.00    +0.000 A 
ATOM     18  C   UNL     1       3.362  14.931  17.917  0.00  0.00    +0.000 A 
ATOM     19  C   UNL     1       2.759  13.646  18.046  0.00  0.00    +0.000 A 
ATOM     20  C   UNL     1       1.484  13.528  18.647  0.00  0.00    +0.000 A 
ATOM     21  H   UNL     1      -1.158  14.716  19.134  0.00  0.00    +0.000 HD
ENDBRANCH   1  12
BRANCH   1  25
ATOM     22  C   UNL     1       2.265   7.425  19.416  0.00  0.00    +0.000 A 
ATOM     23  C   UNL     1       2.304   8.074  18.180  0.00  0.00    +0.000 A 
ATOM     24  C   UNL     1       1.634   9.291  17.993  0.00  0.00    +0.000 A 
ATOM     25  C   UNL     1       0.887   9.872  19.027  0.00  0.00    +0.000 A 
ATOM     26  C   UNL     1       0.863   9.217  20.271  0.00  0.00    +0.000 A 
ATOM     27  C   UNL     1       1.566   8.026  20.474  0.00  0.00    +0.000 A 
BRANCH  22  29
ATOM     28  O   UNL     1       3.700   5.667  18.662  0.00  0.00    +0.000 OA
ATOM     29  C   UNL     1       2.996   6.121  19.550  0.00  0.00    +0.000 C 
BRANCH  29  30
ATOM     30  O   UNL     1       2.747   5.453  20.696  0.00  0.00    +0.000 OA
ATOM     31  H   UNL     1       3.179   4.585  20.780  0.00  0.00    +0.000 HD
ENDBRANCH  29  30
ENDBRANCH  22  29
ENDBRANCH   1  25
TORSDOF 5
ENDMDL
MODEL 3
REMARK VINA RESULT:      -8.2      2.233      5.047
REMARK  Name = 
REMARK  5 active torsions:
REMARK  status: ('A' for Active; 'I' for Inactive)
REMARK    1  A    between atoms: C_2  and  O_3
REMARK    2  A    between atoms: C_2  and  C_4
REMARK    3  A    between atoms: C_7  and  C_8
REMARK    4  A    between atoms: C_8  and  C_9
REMARK    5  A    between atoms: C_8  and  C_18
REMARK                            x       y       z     vdW  Elec       q    Type
REMARK                         _______ _______ _______ _____ _____    ______ ____
ROOT
ATOM      1  C   UNL     1      -0.002  10.874  18.732  0.00  0.00    +0.000 C 
ENDROOT
BRANCH   1   2
ATOM      2  C   UNL     1       0.462  12.271  19.043  0.00  0.00    +0.000 A 
ATOM      3  C   UNL     1      -0.027  12.919  20.179  0.00  0.00    +0.000 A 
ATOM      4  N   UNL     1      -0.192  14.205  19.718  0.00  0.00    +0.000 N 
ATOM      5  C   UNL     1       1.051  14.478  19.188  0.00  0.00    +0.000 A 
ATOM      6  C   UNL     1       1.709  15.707  19.129  0.00  0.00    +0.000 A 
ATOM      7  C   UNL     1       3.004  15.691  18.642  0.00  0.00    +0.000 A 
ATOM      8  C   UNL     1       3.541  14.503  18.140  0.00  0.00    +0.000 A 
ATOM      9  C   UNL     1       2.801  13.285  18.103  0.00  0.00    +0.000 A 
ATOM     10  C   UNL     1       1.518  13.233  18.700  0.00  0.00    +0.000 A 
ATOM     11  H   UNL     1      -1.008  14.474  19.188  0.00  0.00    +0.000 HD
ENDBRANCH   1   2
BRANCH   1  12
ATOM     12  C   UNL     1      -1.382  10.812  18.137  0.00  0.00    +0.000 A 
ATOM     13  C   UNL     1      -1.651   9.904  17.119  0.00  0.00    +0.000 A 
ATOM     14  N   UNL     1      -2.404  10.621  16.232  0.00  0.00    +0.000 N 
ATOM     15  C   UNL     1      -3.348  11.220  17.029  0.00  0.00    +0.000 A 
ATOM     16  C   UNL     1      -4.628  11.652  16.659  0.00  0.00    +0.000 A 
ATOM     17  C   UNL     1      -5.429  12.148  17.671  0.00  0.00    +0.000 A 
ATOM     18  C   UNL     1      -4.915  12.268  18.964  0.00  0.00    +0.000 A 
ATOM     19  C   UNL     1      -3.568  11.931  19.287  0.00  0.00    +0.000 A 
ATOM     20  C   UNL     1      -2.737  11.350  18.302  0.00  0.00    +0.000 A 
ATOM     21  H   UNL     1      -2.009  11.146  15.463  0.00  0.00    +0.000 HD
ENDBRANCH   1  12
BRANCH   1  25
ATOM     22  C   UNL     1       2.423   7.327  19.247  0.00  0.00    +0.000 A 
ATOM     23  C   UNL     1       2.399   8.021  18.035  0.00  0.00    +0.000 A 
ATOM     24  C   UNL     1       1.651   9.199  17.904  0.00  0.00    +0.000 A 
ATOM     25  C   UNL     1       0.887   9.693  18.970  0.00  0.00    +0.000 A 
ATOM     26  C   UNL     1       0.926   8.994  20.189  0.00  0.00    +0.000 A 
ATOM     27  C   UNL     1       1.706   7.843  20.336  0.00  0.00    +0.000 A 
BRANCH  22  29
ATOM     28  O   UNL     1       3.854   5.625  18.365  0.00  0.00    +0.000 OA
ATOM     29  C   UNL     1       3.238   6.068  19.321  0.00  0.00    +0.000 C 
BRANCH  29  30
ATOM     30  O   UNL     1       3.167   5.424  20.506  0.00  0.00    +0.000 OA
ATOM     31  H   UNL     1       2.785   5.935  21.241  0.00  0.00    +0.000 HD
ENDBRANCH  29  30
ENDBRANCH  22  29
ENDBRANCH   1  25
TORSDOF 5
ENDMDL
MODEL 4
REMARK VINA RESULT:      -8.1      4.468      9.168
REMARK  Name = 
REMARK  5 active torsions:
REMARK  status: ('A' for Active; 'I' for Inactive)
REMARK    1  A    between atoms: C_2  and  O_3
REMARK    2  A    between atoms: C_2  and  C_4
REMARK    3  A    between atoms: C_7  and  C_8
REMARK    4  A    between atoms: C_8  and  C_9
REMARK    5  A    between atoms: C_8  and  C_18
REMARK                            x       y       z     vdW  Elec       q    Type
REMARK                         _______ _______ _______ _____ _____    ______ ____
ROOT
ATOM      1  C   UNL     1       2.919   6.673  18.322  0.00  0.00    +0.000 C 
ENDROOT
BRANCH   1   2
ATOM      2  C   UNL     1       2.360   5.338  18.734  0.00  0.00    +0.000 A 
ATOM      3  C   UNL     1       2.163   4.349  17.767  0.00  0.00    +0.000 A 
ATOM      4  N   UNL     1       0.974   3.792  18.176  0.00  0.00    +0.000 N 
ATOM      5  C   UNL     1       1.238   3.495  19.496  0.00  0.00    +0.000 A 
ATOM      6  C   UNL     1       0.733   2.439  20.256  0.00  0.00    +0.000 A 
ATOM      7  C   UNL     1       1.245   2.300  21.534  0.00  0.00    +0.000 A 
ATOM      8  C   UNL     1       2.133   3.255  22.033  0.00  0.00    +0.000 A 
ATOM      9  C   UNL     1       2.540   4.391  21.274  0.00  0.00    +0.000 A 
ATOM     10  C   UNL     1       2.132   4.506  19.923  0.00  0.00    +0.000 A 
ATOM     11  H   UNL     1       0.087   4.220  17.950  0.00  0.00    +0.000 HD
ENDBRANCH   1   2
BRANCH   1  12
ATOM     12  C   UNL     1       4.188   6.576  17.519  0.00  0.00    +0.000 A 
ATOM     13  C   UNL     1       4.453   7.523  16.535  0.00  0.00    +0.000 A 
ATOM     14  N   UNL     1       4.938   6.783  15.493  0.00  0.00    +0.000 N 
ATOM     15  C   UNL     1       5.875   5.976  16.087  0.00  0.00    +0.000 A 
ATOM     16  C   UNL     1       6.998   5.388  15.490  0.00  0.00    +0.000 A 
ATOM     17  C   UNL     1       7.845   4.683  16.324  0.00  0.00    +0.000 A 
ATOM     18  C   UNL     1       7.513   4.524  17.672  0.00  0.00    +0.000 A 
ATOM     19  C   UNL     1       6.303   5.033  18.228  0.00  0.00    +0.000 A 
ATOM     20  C   UNL     1       5.444   5.824  17.430  0.00  0.00    +0.000 A 
ATOM     21  H   UNL     1       4.352   6.398  14.763  0.00  0.00    +0.000 HD
ENDBRANCH   1  12
BRANCH   1  25
ATOM     22  C   UNL     1       0.667  10.214  19.375  0.00  0.00    +0.000 A 
ATOM     23  C   UNL     1       1.029   9.271  20.339  0.00  0.00    +0.000 A 
ATOM     24  C   UNL     1       1.806   8.158  19.989  0.00  0.00    +0.000 A 
ATOM     25  C   UNL     1       2.212   7.947  18.664  0.00  0.00    +0.000 A 
ATOM     26  C   UNL     1       1.852   8.908  17.704  0.00  0.00    +0.000 A 
ATOM     27  C   UNL     1       1.115  10.041  18.057  0.00  0.00    +0.000 A 
BRANCH  22  29
ATOM     28  O   UNL     1       0.214  12.199  20.631  0.00  0.00    +0.000 OA
ATOM     29  C   UNL     1      -0.172  11.380  19.812  0.00  0.00    +0.000 C 
BRANCH  29  30
ATOM     30  O   UNL     1      -1.417  11.402  19.289  0.00  0.00    +0.000 OA
ATOM     31  H   UNL     1      -1.505  11.858  18.433  0.00  0.00    +0.000 HD
ENDBRANCH  29  30
ENDBRANCH  22  29
ENDBRANCH   1  25
TORSDOF 5
ENDMDL
MODEL 5
REMARK VINA RESULT:      -8.1      2.198      2.908
REMARK  Name = 
REMARK  5 active torsions:
REMARK  status: ('A' for Active; 'I' for Inactive)
REMARK    1  A    between atoms: C_2  and  O_3
REMARK    2  A    between atoms: C_2  and  C_4
REMARK    3  A    between atoms: C_7  and  C_8
REMARK    4  A    between atoms: C_8  and  C_9
REMARK    5  A    between atoms: C_8  and  C_18
REMARK                            x       y       z     vdW  Elec       q    Type
REMARK                         _______ _______ _______ _____ _____    ______ ____
ROOT
ATOM      1  C   UNL     1       0.612  11.160  19.103  0.00  0.00    +0.000 C 
ENDROOT
BRANCH   1   2
ATOM      2  C   UNL     1      -0.779  11.452  18.608  0.00  0.00    +0.000 A 
ATOM      3  C   UNL     1      -1.310  12.733  18.772  0.00  0.00    +0.000 A 
ATOM      4  N   UNL     1      -2.618  12.454  19.094  0.00  0.00    +0.000 N 
ATOM      5  C   UNL     1      -2.995  11.623  18.061  0.00  0.00    +0.000 A 
ATOM      6  C   UNL     1      -4.257  11.493  17.480  0.00  0.00    +0.000 A 
ATOM      7  C   UNL     1      -4.344  10.662  16.377  0.00  0.00    +0.000 A 
ATOM      8  C   UNL     1      -3.229   9.925  15.973  0.00  0.00    +0.000 A 
ATOM      9  C   UNL     1      -1.981   9.988  16.660  0.00  0.00    +0.000 A 
ATOM     10  C   UNL     1      -1.817  10.914  17.718  0.00  0.00    +0.000 A 
ATOM     11  H   UNL     1      -2.885  12.200  20.034  0.00  0.00    +0.000 HD
ENDBRANCH   1   2
BRANCH   1  12
ATOM     12  C   UNL     1       1.355  12.380  19.575  0.00  0.00    +0.000 A 
ATOM     13  C   UNL     1       1.519  12.600  20.938  0.00  0.00    +0.000 A 
ATOM     14  N   UNL     1       1.280  13.938  21.083  0.00  0.00    +0.000 N 
ATOM     15  C   UNL     1       2.042  14.506  20.092  0.00  0.00    +0.000 A 
ATOM     16  C   UNL     1       2.573  15.801  20.059  0.00  0.00    +0.000 A 
ATOM     17  C   UNL     1       3.385  16.110  18.984  0.00  0.00    +0.000 A 
ATOM     18  C   UNL     1       3.571  15.170  17.966  0.00  0.00    +0.000 A 
ATOM     19  C   UNL     1       2.921  13.901  17.967  0.00  0.00    +0.000 A 
ATOM     20  C   UNL     1       2.142  13.515  19.082  0.00  0.00    +0.000 A 
ATOM     21  H   UNL     1       0.365  14.322  21.278  0.00  0.00    +0.000 HD
ENDBRANCH   1  12
BRANCH   1  25
ATOM     22  C   UNL     1       2.315   7.193  19.400  0.00  0.00    +0.000 A 
ATOM     23  C   UNL     1       1.661   7.786  20.483  0.00  0.00    +0.000 A 
ATOM     24  C   UNL     1       1.067   9.048  20.352  0.00  0.00    +0.000 A 
ATOM     25  C   UNL     1       1.140   9.760  19.146  0.00  0.00    +0.000 A 
ATOM     26  C   UNL     1       1.790   9.151  18.059  0.00  0.00    +0.000 A 
ATOM     27  C   UNL     1       2.345   7.873  18.174  0.00  0.00    +0.000 A 
BRANCH  22  29
ATOM     28  O   UNL     1       3.604   5.287  18.749  0.00  0.00    +0.000 OA
ATOM     29  C   UNL     1       2.937   5.843  19.607  0.00  0.00    +0.000 C 
BRANCH  29  30
ATOM     30  O   UNL     1       2.632   5.259  20.786  0.00  0.00    +0.000 OA
ATOM     31  H   UNL     1       3.362   5.198  21.427  0.00  0.00    +0.000 HD
ENDBRANCH  29  30
ENDBRANCH  22  29
ENDBRANCH   1  25
TORSDOF 5
ENDMDL
MODEL 6
REMARK VINA RESULT:      -8.0      4.663      9.466
REMARK  Name = 
REMARK  5 active torsions:
REMARK  status: ('A' for Active; 'I' for Inactive)
REMARK    1  A    between atoms: C_2  and  O_3
REMARK    2  A    between atoms: C_2  and  C_4
REMARK    3  A    between atoms: C_7  and  C_8
REMARK    4  A    between atoms: C_8  and  C_9
REMARK    5  A    between atoms: C_8  and  C_18
REMARK                            x       y       z     vdW  Elec       q    Type
REMARK                         _______ _______ _______ _____ _____    ______ ____
ROOT
ATOM      1  C   UNL     1       3.256   6.338  18.206  0.00  0.00    +0.000 C 
ENDROOT
BRANCH   1   2
ATOM      2  C   UNL     1       2.598   5.067  18.671  0.00  0.00    +0.000 A 
ATOM      3  C   UNL     1       2.353   4.046  17.750  0.00  0.00    +0.000 A 
ATOM      4  N   UNL     1       1.120   3.592  18.156  0.00  0.00    +0.000 N 
ATOM      5  C   UNL     1       1.336   3.345  19.495  0.00  0.00    +0.000 A 
ATOM      6  C   UNL     1       0.744   2.366  20.295  0.00  0.00    +0.000 A 
ATOM      7  C   UNL     1       1.219   2.258  21.590  0.00  0.00    +0.000 A 
ATOM      8  C   UNL     1       2.160   3.176  22.062  0.00  0.00    +0.000 A 
ATOM      9  C   UNL     1       2.660   4.242  21.258  0.00  0.00    +0.000 A 
ATOM     10  C   UNL     1       2.289   4.315  19.893  0.00  0.00    +0.000 A 
ATOM     11  H   UNL     1       0.270   4.066  17.888  0.00  0.00    +0.000 HD
ENDBRANCH   1   2
BRANCH   1  12
ATOM     12  C   UNL     1       4.542   6.116  17.458  0.00  0.00    +0.000 A 
ATOM     13  C   UNL     1       5.705   6.746  17.889  0.00  0.00    +0.000 A 
ATOM     14  N   UNL     1       6.290   7.177  16.732  0.00  0.00    +0.000 N 
ATOM     15  C   UNL     1       6.244   6.070  15.922  0.00  0.00    +0.000 A 
ATOM     16  C   UNL     1       7.091   5.758  14.851  0.00  0.00    +0.000 A 
ATOM     17  C   UNL     1       6.893   4.534  14.242  0.00  0.00    +0.000 A 
ATOM     18  C   UNL     1       5.837   3.718  14.655  0.00  0.00    +0.000 A 
ATOM     19  C   UNL     1       4.916   4.113  15.669  0.00  0.00    +0.000 A 
ATOM     20  C   UNL     1       5.124   5.323  16.370  0.00  0.00    +0.000 A 
ATOM     21  H   UNL     1       6.118   8.088  16.326  0.00  0.00    +0.000 HD
ENDBRANCH   1  12
BRANCH   1  25
ATOM     22  C   UNL     1       1.192  10.072  18.927  0.00  0.00    +0.000 A 
ATOM     23  C   UNL     1       1.252   9.076  19.903  0.00  0.00    +0.000 A 
ATOM     24  C   UNL     1       1.971   7.895  19.673  0.00  0.00    +0.000 A 
ATOM     25  C   UNL     1       2.621   7.672  18.451  0.00  0.00    +0.000 A 
ATOM     26  C   UNL     1       2.564   8.685  17.479  0.00  0.00    +0.000 A 
ATOM     27  C   UNL     1       1.884   9.882  17.722  0.00  0.00    +0.000 A 
BRANCH  22  29
ATOM     28  O   UNL     1      -0.006  11.573  20.354  0.00  0.00    +0.000 OA
ATOM     29  C   UNL     1       0.398  11.310  19.232  0.00  0.00    +0.000 C 
BRANCH  29  30
ATOM     30  O   UNL     1       0.099  12.065  18.153  0.00  0.00    +0.000 OA
ATOM     31  H   UNL     1       0.214  13.025  18.267  0.00  0.00    +0.000 HD
ENDBRANCH  29  30
ENDBRANCH  22  29
ENDBRANCH   1  25
TORSDOF 5
ENDMDL
MODEL 7
REMARK VINA RESULT:      -8.0      2.299      2.885
REMARK  Name = 
REMARK  5 active torsions:
REMARK  status: ('A' for Active; 'I' for Inactive)
REMARK    1  A    between atoms: C_2  and  O_3
REMARK    2  A    between atoms: C_2  and  C_4
REMARK    3  A    between atoms: C_7  and  C_8
REMARK    4  A    between atoms: C_8  and  C_9
REMARK    5  A    between atoms: C_8  and  C_18
REMARK                            x       y       z     vdW  Elec       q    Type
REMARK                         _______ _______ _______ _____ _____    ______ ____
ROOT
ATOM      1  C   UNL     1       0.749  11.365  19.119  0.00  0.00    +0.000 C 
ENDROOT
BRANCH   1   2
ATOM      2  C   UNL     1      -0.665  11.588  18.656  0.00  0.00    +0.000 A 
ATOM      3  C   UNL     1      -1.224  12.864  18.750  0.00  0.00    +0.000 A 
ATOM      4  N   UNL     1      -2.511  12.578  19.140  0.00  0.00    +0.000 N 
ATOM      5  C   UNL     1      -2.903  11.668  18.182  0.00  0.00    +0.000 A 
ATOM      6  C   UNL     1      -4.181  11.467  17.658  0.00  0.00    +0.000 A 
ATOM      7  C   UNL     1      -4.286  10.558  16.620  0.00  0.00    +0.000 A 
ATOM      8  C   UNL     1      -3.166   9.822  16.227  0.00  0.00    +0.000 A 
ATOM      9  C   UNL     1      -1.897   9.963  16.861  0.00  0.00    +0.000 A 
ATOM     10  C   UNL     1      -1.720  10.965  17.846  0.00  0.00    +0.000 A 
ATOM     11  H   UNL     1      -2.739  12.385  20.105  0.00  0.00    +0.000 HD
ENDBRANCH   1   2
BRANCH   1  12
ATOM     12  C   UNL     1       1.458  12.626  19.530  0.00  0.00    +0.000 A 
ATOM     13  C   UNL     1       1.615  12.917  20.881  0.00  0.00    +0.000 A 
ATOM     14  N   UNL     1       1.339  14.253  20.962  0.00  0.00    +0.000 N 
ATOM     15  C   UNL     1       2.085  14.793  19.944  0.00  0.00    +0.000 A 
ATOM     16  C   UNL     1       2.580  16.100  19.848  0.00  0.00    +0.000 A 
ATOM     17  C   UNL     1       3.384  16.378  18.758  0.00  0.00    +0.000 A 
ATOM     18  C   UNL     1       3.596  15.397  17.787  0.00  0.00    +0.000 A 
ATOM     19  C   UNL     1       2.982  14.112  17.850  0.00  0.00    +0.000 A 
ATOM     20  C   UNL     1       2.214  13.758  18.983  0.00  0.00    +0.000 A 
ATOM     21  H   UNL     1       0.413  14.620  21.138  0.00  0.00    +0.000 HD
ENDBRANCH   1  12
BRANCH   1  25
ATOM     22  C   UNL     1       2.265   7.312  19.137  0.00  0.00    +0.000 A 
ATOM     23  C   UNL     1       2.416   8.138  18.022  0.00  0.00    +0.000 A 
ATOM     24  C   UNL     1       1.967   9.466  18.053  0.00  0.00    +0.000 A 
ATOM     25  C   UNL     1       1.332   9.988  19.189  0.00  0.00    +0.000 A 
ATOM     26  C   UNL     1       1.196   9.152  20.310  0.00  0.00    +0.000 A 
ATOM     27  C   UNL     1       1.681   7.841  20.298  0.00  0.00    +0.000 A 
BRANCH  22  29
ATOM     28  O   UNL     1       2.286   5.089  18.255  0.00  0.00    +0.000 OA
ATOM     29  C   UNL     1       2.760   5.898  19.037  0.00  0.00    +0.000 C 
BRANCH  29  30
ATOM     30  O   UNL     1       3.712   5.572  19.938  0.00  0.00    +0.000 OA
ATOM     31  H   UNL     1       4.519   6.115  19.911  0.00  0.00    +0.000 HD
ENDBRANCH  29  30
ENDBRANCH  22  29
ENDBRANCH   1  25
TORSDOF 5
ENDMDL
MODEL 8
REMARK VINA RESULT:      -7.9      2.636      5.004
REMARK  Name = 
REMARK  5 active torsions:
REMARK  status: ('A' for Active; 'I' for Inactive)
REMARK    1  A    between atoms: C_2  and  O_3
REMARK    2  A    between atoms: C_2  and  C_4
REMARK    3  A    between atoms: C_7  and  C_8
REMARK    4  A    between atoms: C_8  and  C_9
REMARK    5  A    between atoms: C_8  and  C_18
REMARK                            x       y       z     vdW  Elec       q    Type
REMARK                         _______ _______ _______ _____ _____    ______ ____
ROOT
ATOM      1  C   UNL     1       0.246  10.760  18.677  0.00  0.00    +0.000 C 
ENDROOT
BRANCH   1   2
ATOM      2  C   UNL     1       0.855  12.135  18.733  0.00  0.00    +0.000 A 
ATOM      3  C   UNL     1       2.150  12.332  18.246  0.00  0.00    +0.000 A 
ATOM      4  N   UNL     1       2.665  13.213  19.168  0.00  0.00    +0.000 N 
ATOM      5  C   UNL     1       1.714  14.212  19.168  0.00  0.00    +0.000 A 
ATOM      6  C   UNL     1       1.903  15.577  19.383  0.00  0.00    +0.000 A 
ATOM      7  C   UNL     1       0.792  16.386  19.219  0.00  0.00    +0.000 A 
ATOM      8  C   UNL     1      -0.454  15.810  18.965  0.00  0.00    +0.000 A 
ATOM      9  C   UNL     1      -0.639  14.400  18.868  0.00  0.00    +0.000 A 
ATOM     10  C   UNL     1       0.490  13.547  18.912  0.00  0.00    +0.000 A 
ATOM     11  H   UNL     1       3.025  12.895  20.056  0.00  0.00    +0.000 HD
ENDBRANCH   1   2
BRANCH   1  12
ATOM     12  C   UNL     1      -1.161  10.743  18.147  0.00  0.00    +0.000 A 
ATOM     13  C   UNL     1      -1.502   9.855  17.132  0.00  0.00    +0.000 A 
ATOM     14  N   UNL     1      -2.276  10.604  16.290  0.00  0.00    +0.000 N 
ATOM     15  C   UNL     1      -3.165  11.216  17.137  0.00  0.00    +0.000 A 
ATOM     16  C   UNL     1      -4.449  11.686  16.834  0.00  0.00    +0.000 A 
ATOM     17  C   UNL     1      -5.189  12.190  17.887  0.00  0.00    +0.000 A 
ATOM     18  C   UNL     1      -4.612  12.280  19.156  0.00  0.00    +0.000 A 
ATOM     19  C   UNL     1      -3.260  11.903  19.412  0.00  0.00    +0.000 A 
ATOM     20  C   UNL     1      -2.492  11.313  18.382  0.00  0.00    +0.000 A 
ATOM     21  H   UNL     1      -1.903  11.128  15.509  0.00  0.00    +0.000 HD
ENDBRANCH   1  12
BRANCH   1  25
ATOM     22  C   UNL     1       2.361   7.121  19.681  0.00  0.00    +0.000 A 
ATOM     23  C   UNL     1       2.424   7.667  18.397  0.00  0.00    +0.000 A 
ATOM     24  C   UNL     1       1.778   8.876  18.105  0.00  0.00    +0.000 A 
ATOM     25  C   UNL     1       1.030   9.550  19.080  0.00  0.00    +0.000 A 
ATOM     26  C   UNL     1       0.981   8.999  20.372  0.00  0.00    +0.000 A 
ATOM     27  C   UNL     1       1.661   7.816  20.678  0.00  0.00    +0.000 A 
BRANCH  22  29
ATOM     28  O   UNL     1       3.982   5.423  19.222  0.00  0.00    +0.000 OA
ATOM     29  C   UNL     1       3.069   5.820  19.928  0.00  0.00    +0.000 C 
BRANCH  29  30
ATOM     30  O   UNL     1       2.560   5.089  20.943  0.00  0.00    +0.000 OA
ATOM     31  H   UNL     1       2.285   5.594  21.728  0.00  0.00    +0.000 HD
ENDBRANCH  29  30
ENDBRANCH  22  29
ENDBRANCH   1  25
TORSDOF 5
ENDMDL
MODEL 9
REMARK VINA RESULT:      -7.9      1.396      2.020
REMARK  Name = 
REMARK  5 active torsions:
REMARK  status: ('A' for Active; 'I' for Inactive)
REMARK    1  A    between atoms: C_2  and  O_3
REMARK    2  A    between atoms: C_2  and  C_4
REMARK    3  A    between atoms: C_7  and  C_8
REMARK    4  A    between atoms: C_8  and  C_9
REMARK    5  A    between atoms: C_8  and  C_18
REMARK                            x       y       z     vdW  Elec       q    Type
REMARK                         _______ _______ _______ _____ _____    ______ ____
ROOT
ATOM      1  C   UNL     1       0.279  10.920  19.398  0.00  0.00    +0.000 C 
ENDROOT
BRANCH   1   2
ATOM      2  C   UNL     1      -0.977  11.266  18.646  0.00  0.00    +0.000 A 
ATOM      3  C   UNL     1      -1.447  12.581  18.666  0.00  0.00    +0.000 A 
ATOM      4  N   UNL     1      -2.807  12.390  18.751  0.00  0.00    +0.000 N 
ATOM      5  C   UNL     1      -3.041  11.536  17.695  0.00  0.00    +0.000 A 
ATOM      6  C   UNL     1      -4.182  11.450  16.896  0.00  0.00    +0.000 A 
ATOM      7  C   UNL     1      -4.120  10.577  15.824  0.00  0.00    +0.000 A 
ATOM      8  C   UNL     1      -2.998   9.763  15.657  0.00  0.00    +0.000 A 
ATOM      9  C   UNL     1      -1.894   9.787  16.560  0.00  0.00    +0.000 A 
ATOM     10  C   UNL     1      -1.867  10.749  17.599  0.00  0.00    +0.000 A 
ATOM     11  H   UNL     1      -3.256  12.194  19.634  0.00  0.00    +0.000 HD
ENDBRANCH   1   2
BRANCH   1  12
ATOM     12  C   UNL     1       0.711  11.979  20.376  0.00  0.00    +0.000 A 
ATOM     13  C   UNL     1       0.214  11.959  21.675  0.00  0.00    +0.000 A 
ATOM     14  N   UNL     1      -0.068  13.271  21.936  0.00  0.00    +0.000 N 
ATOM     15  C   UNL     1       1.069  13.926  21.534  0.00  0.00    +0.000 A 
ATOM     16  C   UNL     1       1.551  15.159  21.990  0.00  0.00    +0.000 A 
ATOM     17  C   UNL     1       2.773  15.569  21.491  0.00  0.00    +0.000 A 
ATOM     18  C   UNL     1       3.418  14.796  20.522  0.00  0.00    +0.000 A 
ATOM     19  C   UNL     1       2.847  13.604  19.988  0.00  0.00    +0.000 A 
ATOM     20  C   UNL     1       1.635  13.108  20.523  0.00  0.00    +0.000 A 
ATOM     21  H   UNL     1      -0.968  13.694  21.751  0.00  0.00    +0.000 HD
ENDBRANCH   1  12
BRANCH   1  25
ATOM     22  C   UNL     1       2.458   7.206  18.963  0.00  0.00    +0.000 A 
ATOM     23  C   UNL     1       1.849   7.554  20.171  0.00  0.00    +0.000 A 
ATOM     24  C   UNL     1       1.102   8.735  20.278  0.00  0.00    +0.000 A 
ATOM     25  C   UNL     1       0.970   9.608  19.190  0.00  0.00    +0.000 A 
ATOM     26  C   UNL     1       1.576   9.244  17.975  0.00  0.00    +0.000 A 
ATOM     27  C   UNL     1       2.286   8.046  17.853  0.00  0.00    +0.000 A 
BRANCH  22  29
ATOM     28  O   UNL     1       2.997   5.028  18.137  0.00  0.00    +0.000 OA
ATOM     29  C   UNL     1       3.251   5.933  18.916  0.00  0.00    +0.000 C 
BRANCH  29  30
ATOM     30  O   UNL     1       4.214   5.836  19.858  0.00  0.00    +0.000 OA
ATOM     31  H   UNL     1       5.094   6.157  19.593  0.00  0.00    +0.000 HD
ENDBRANCH  29  30
ENDBRANCH  22  29
ENDBRANCH   1  25
TORSDOF 5
ENDMDL
