MODEL 1
REMARK VINA RESULT:      -7.9      0.000      0.000
REMARK  Name = 
REMARK  10 active torsions:
REMARK  status: ('A' for Active; 'I' for Inactive)
REMARK    1  A    between atoms: C_1  and  C_2
REMARK    2  A    between atoms: C_5  and  N_6
REMARK    3  A    between atoms: N_6  and  P_7
REMARK    4  A    between atoms: P_7  and  O_9
REMARK    5  A    between atoms: P_7  and  N_21
REMARK    6  A    between atoms: O_9  and  C_10
REMARK    7  A    between atoms: N_21  and  C_22
REMARK    8  A    between atoms: N_21  and  C_25
REMARK    9  A    between atoms: C_22  and  C_23
REMARK   10  A    between atoms: C_25  and  C_26
REMARK                            x       y       z     vdW  Elec       q    Type
REMARK                         _______ _______ _______ _____ _____    ______ ____
ROOT
ATOM      1  P   UNL     1       4.605   5.663  17.779  0.00  0.00    +0.000 P 
ATOM      2  O   UNL     1       5.300   5.897  19.090  0.00  0.00    +0.000 OA
ENDROOT
BRANCH   1   3
ATOM      3  N   UNL     1       3.459   6.748  17.290  0.00  0.00    +0.000 N 
ATOM      4  H   UNL     1       2.873   6.375  16.556  0.00  0.00    +0.000 HD
BRANCH   3   9
ATOM      5  C   UNL     1       0.272   9.938  20.860  0.00  0.00    +0.000 C 
ATOM      6  C   UNL     1       1.116   9.102  19.945  0.00  0.00    +0.000 A 
ATOM      7  C   UNL     1       1.662   7.892  20.378  0.00  0.00    +0.000 A 
ATOM      8  C   UNL     1       2.439   7.111  19.513  0.00  0.00    +0.000 A 
ATOM      9  C   UNL     1       2.668   7.504  18.189  0.00  0.00    +0.000 A 
ATOM     10  C   UNL     1       2.169   8.749  17.784  0.00  0.00    +0.000 A 
ATOM     11  C   UNL     1       1.392   9.532  18.645  0.00  0.00    +0.000 A 
ENDBRANCH   3   9
ENDBRANCH   1   3
BRANCH   1  12
ATOM     12  O   UNL     1       3.790   4.262  17.762  0.00  0.00    +0.000 OA
BRANCH  12  13
ATOM     13  C   UNL     1       3.116   3.715  18.816  0.00  0.00    +0.000 A 
ATOM     14  C   UNL     1       1.725   3.829  18.796  0.00  0.00    +0.000 A 
ATOM     15  F   UNL     1       1.116   4.397  17.744  0.00  0.00    +0.000 F 
ATOM     16  C   UNL     1       0.959   3.342  19.850  0.00  0.00    +0.000 A 
ATOM     17  F   UNL     1      -0.376   3.455  19.817  0.00  0.00    +0.000 F 
ATOM     18  C   UNL     1       1.577   2.736  20.932  0.00  0.00    +0.000 A 
ATOM     19  F   UNL     1       0.845   2.281  21.957  0.00  0.00    +0.000 F 
ATOM     20  C   UNL     1       2.958   2.576  20.938  0.00  0.00    +0.000 A 
ATOM     21  F   UNL     1       3.553   1.955  21.964  0.00  0.00    +0.000 F 
ATOM     22  C   UNL     1       3.720   3.042  19.874  0.00  0.00    +0.000 A 
ATOM     23  F   UNL     1       5.032   2.777  19.856  0.00  0.00    +0.000 F 
ENDBRANCH  12  13
ENDBRANCH   1  12
BRANCH   1  24
ATOM     24  N   UNL     1       5.655   5.629  16.490  0.00  0.00    +0.000 NA
BRANCH  24  25
ATOM     25  C   UNL     1       7.080   5.900  16.755  0.00  0.00    +0.000 C 
BRANCH  25  26
ATOM     26  C   UNL     1       7.474   7.347  17.078  0.00  0.00    +0.000 C 
ATOM     27 CL   UNL     1       8.324   7.403  18.650  0.00  0.00    +0.000 Cl
ENDBRANCH  25  26
ENDBRANCH  24  25
BRANCH  24  28
ATOM     28  C   UNL     1       5.472   4.584  15.466  0.00  0.00    +0.000 C 
BRANCH  28  29
ATOM     29  C   UNL     1       6.627   4.387  14.477  0.00  0.00    +0.000 C 
ATOM     30 CL   UNL     1       6.001   3.593  12.999  0.00  0.00    +0.000 Cl
ENDBRANCH  28  29
ENDBRANCH  24  28
ENDBRANCH   1  24
TORSDOF 9
ENDMDL
MODEL 2
REMARK VINA RESULT:      -7.6      0.539      1.115
REMARK  Name = 
REMARK  10 active torsions:
REMARK  status: ('A' for Active; 'I' for Inactive)
REMARK    1  A    between atoms: C_1  and  C_2
REMARK    2  A    between atoms: C_5  and  N_6
REMARK    3  A    between atoms: N_6  and  P_7
REMARK    4  A    between atoms: P_7  and  O_9
REMARK    5  A    between atoms: P_7  and  N_21
REMARK    6  A    between atoms: O_9  and  C_10
REMARK    7  A    between atoms: N_21  and  C_22
REMARK    8  A    between atoms: N_21  and  C_25
REMARK    9  A    between atoms: C_22  and  C_23
REMARK   10  A    between atoms: C_25  and  C_26
REMARK                            x       y       z     vdW  Elec       q    Type
REMARK                         _______ _______ _______ _____ _____    ______ ____
ROOT
ATOM      1  P   UNL     1       4.604   5.897  17.740  0.00  0.00    +0.000 P 
ATOM      2  O   UNL     1       5.246   6.114  19.081  0.00  0.00    +0.000 OA
ENDROOT
BRANCH   1   3
ATOM      3  N   UNL     1       3.464   6.975  17.227  0.00  0.00    +0.000 N 
ATOM      4  H   UNL     1       2.880   6.591  16.496  0.00  0.00    +0.000 HD
BRANCH   3   9
ATOM      5  C   UNL     1       0.216   9.994  20.891  0.00  0.00    +0.000 C 
ATOM      6  C   UNL     1       1.049   9.211  19.920  0.00  0.00    +0.000 A 
ATOM      7  C   UNL     1       1.237   9.659  18.612  0.00  0.00    +0.000 A 
ATOM      8  C   UNL     1       2.028   8.928  17.715  0.00  0.00    +0.000 A 
ATOM      9  C   UNL     1       2.669   7.748  18.109  0.00  0.00    +0.000 A 
ATOM     10  C   UNL     1       2.423   7.274  19.404  0.00  0.00    +0.000 A 
ATOM     11  C   UNL     1       1.634   8.002  20.303  0.00  0.00    +0.000 A 
ENDBRANCH   3   9
ENDBRANCH   1   3
BRANCH   1  12
ATOM     12  O   UNL     1       3.810   4.486  17.665  0.00  0.00    +0.000 OA
BRANCH  12  13
ATOM     13  C   UNL     1       3.184   3.862  18.706  0.00  0.00    +0.000 A 
ATOM     14  C   UNL     1       1.789   3.920  18.722  0.00  0.00    +0.000 A 
ATOM     15  F   UNL     1       1.134   4.511  17.712  0.00  0.00    +0.000 F 
ATOM     16  C   UNL     1       1.069   3.355  19.768  0.00  0.00    +0.000 A 
ATOM     17  F   UNL     1      -0.270   3.414  19.769  0.00  0.00    +0.000 F 
ATOM     18  C   UNL     1       1.736   2.725  20.807  0.00  0.00    +0.000 A 
ATOM     19  F   UNL     1       1.047   2.193  21.824  0.00  0.00    +0.000 F 
ATOM     20  C   UNL     1       3.122   2.622  20.774  0.00  0.00    +0.000 A 
ATOM     21  F   UNL     1       3.766   1.978  21.757  0.00  0.00    +0.000 F 
ATOM     22  C   UNL     1       3.839   3.167  19.718  0.00  0.00    +0.000 A 
ATOM     23  F   UNL     1       5.160   2.957  19.659  0.00  0.00    +0.000 F 
ENDBRANCH  12  13
ENDBRANCH   1  12
BRANCH   1  24
ATOM     24  N   UNL     1       5.704   5.901  16.491  0.00  0.00    +0.000 NA
BRANCH  24  25
ATOM     25  C   UNL     1       7.137   5.856  16.836  0.00  0.00    +0.000 C 
BRANCH  25  26
ATOM     26  C   UNL     1       7.604   4.733  17.771  0.00  0.00    +0.000 C 
ATOM     27 CL   UNL     1       8.264   5.438  19.276  0.00  0.00    +0.000 Cl
ENDBRANCH  25  26
ENDBRANCH  24  25
BRANCH  24  28
ATOM     28  C   UNL     1       5.399   5.106  15.288  0.00  0.00    +0.000 C 
BRANCH  28  29
ATOM     29  C   UNL     1       6.589   4.733  14.396  0.00  0.00    +0.000 C 
ATOM     30 CL   UNL     1       6.025   3.644  13.093  0.00  0.00    +0.000 Cl
ENDBRANCH  28  29
ENDBRANCH  24  28
ENDBRANCH   1  24
TORSDOF 9
ENDMDL
MODEL 3
REMARK VINA RESULT:      -7.5      0.603      2.052
REMARK  Name = 
REMARK  10 active torsions:
REMARK  status: ('A' for Active; 'I' for Inactive)
REMARK    1  A    between atoms: C_1  and  C_2
REMARK    2  A    between atoms: C_5  and  N_6
REMARK    3  A    between atoms: N_6  and  P_7
REMARK    4  A    between atoms: P_7  and  O_9
REMARK    5  A    between atoms: P_7  and  N_21
REMARK    6  A    between atoms: O_9  and  C_10
REMARK    7  A    between atoms: N_21  and  C_22
REMARK    8  A    between atoms: N_21  and  C_25
REMARK    9  A    between atoms: C_22  and  C_23
REMARK   10  A    between atoms: C_25  and  C_26
REMARK                            x       y       z     vdW  Elec       q    Type
REMARK                         _______ _______ _______ _____ _____    ______ ____
ROOT
ATOM      1  P   UNL     1       4.686   6.165  17.595  0.00  0.00    +0.000 P 
ATOM      2  O   UNL     1       5.319   6.324  18.948  0.00  0.00    +0.000 OA
ENDROOT
BRANCH   1   3
ATOM      3  N   UNL     1       3.453   7.181  17.176  0.00  0.00    +0.000 N 
ATOM      4  H   UNL     1       2.884   6.800  16.433  0.00  0.00    +0.000 HD
BRANCH   3   9
ATOM      5  C   UNL     1       0.099   9.940  20.947  0.00  0.00    +0.000 C 
ATOM      6  C   UNL     1       0.987   9.216  19.979  0.00  0.00    +0.000 A 
ATOM      7  C   UNL     1       1.599   8.011  20.331  0.00  0.00    +0.000 A 
ATOM      8  C   UNL     1       2.417   7.335  19.416  0.00  0.00    +0.000 A 
ATOM      9  C   UNL     1       2.622   7.830  18.123  0.00  0.00    +0.000 A 
ATOM     10  C   UNL     1       2.056   9.069  17.802  0.00  0.00    +0.000 A 
ATOM     11  C   UNL     1       1.237   9.748  18.713  0.00  0.00    +0.000 A 
ENDBRANCH   3   9
ENDBRANCH   1   3
BRANCH   1  12
ATOM     12  O   UNL     1       4.014   4.702  17.405  0.00  0.00    +0.000 OA
BRANCH  12  13
ATOM     13  C   UNL     1       3.318   4.011  18.355  0.00  0.00    +0.000 A 
ATOM     14  C   UNL     1       4.073   3.361  19.333  0.00  0.00    +0.000 A 
ATOM     15  F   UNL     1       5.408   3.489  19.342  0.00  0.00    +0.000 F 
ATOM     16  C   UNL     1       3.451   2.594  20.313  0.00  0.00    +0.000 A 
ATOM     17  F   UNL     1       4.187   1.978  21.249  0.00  0.00    +0.000 F 
ATOM     18  C   UNL     1       2.071   2.472  20.325  0.00  0.00    +0.000 A 
ATOM     19  F   UNL     1       1.470   1.721  21.257  0.00  0.00    +0.000 F 
ATOM     20  C   UNL     1       1.310   3.154  19.382  0.00  0.00    +0.000 A 
ATOM     21  F   UNL     1      -0.026   3.070  19.416  0.00  0.00    +0.000 F 
ATOM     22  C   UNL     1       1.930   3.938  18.418  0.00  0.00    +0.000 A 
ATOM     23  F   UNL     1       1.168   4.669  17.594  0.00  0.00    +0.000 F 
ENDBRANCH  12  13
ENDBRANCH   1  12
BRANCH   1  24
ATOM     24  N   UNL     1       5.770   6.365  16.349  0.00  0.00    +0.000 NA
BRANCH  24  25
ATOM     25  C   UNL     1       7.196   6.515  16.694  0.00  0.00    +0.000 C 
BRANCH  25  26
ATOM     26  C   UNL     1       7.644   7.865  17.269  0.00  0.00    +0.000 C 
ATOM     27 CL   UNL     1       8.498   7.605  18.819  0.00  0.00    +0.000 Cl
ENDBRANCH  25  26
ENDBRANCH  24  25
BRANCH  24  28
ATOM     28  C   UNL     1       5.577   5.573  15.120  0.00  0.00    +0.000 C 
BRANCH  28  29
ATOM     29  C   UNL     1       6.644   4.514  14.817  0.00  0.00    +0.000 C 
ATOM     30 CL   UNL     1       6.243   3.707  13.270  0.00  0.00    +0.000 Cl
ENDBRANCH  28  29
ENDBRANCH  24  28
ENDBRANCH   1  24
TORSDOF 9
ENDMDL
MODEL 4
REMARK VINA RESULT:      -7.4      0.502      2.190
REMARK  Name = 
REMARK  10 active torsions:
REMARK  status: ('A' for Active; 'I' for Inactive)
REMARK    1  A    between atoms: C_1  and  C_2
REMARK    2  A    between atoms: C_5  and  N_6
REMARK    3  A    between atoms: N_6  and  P_7
REMARK    4  A    between atoms: P_7  and  O_9
REMARK    5  A    between atoms: P_7  and  N_21
REMARK    6  A    between atoms: O_9  and  C_10
REMARK    7  A    between atoms: N_21  and  C_22
REMARK    8  A    between atoms: N_21  and  C_25
REMARK    9  A    between atoms: C_22  and  C_23
REMARK   10  A    between atoms: C_25  and  C_26
REMARK                            x       y       z     vdW  Elec       q    Type
REMARK                         _______ _______ _______ _____ _____    ______ ____
ROOT
ATOM      1  P   UNL     1       4.897   5.550  18.237  0.00  0.00    +0.000 P 
ATOM      2  O   UNL     1       5.354   5.811  19.644  0.00  0.00    +0.000 OA
ENDROOT
BRANCH   1   3
ATOM      3  N   UNL     1       3.914   6.660  17.508  0.00  0.00    +0.000 N 
ATOM      4  H   UNL     1       3.487   6.294  16.668  0.00  0.00    +0.000 HD
BRANCH   3   9
ATOM      5  C   UNL     1       0.115   9.970  20.282  0.00  0.00    +0.000 C 
ATOM      6  C   UNL     1       1.117   9.105  19.576  0.00  0.00    +0.000 A 
ATOM      7  C   UNL     1       1.667   7.986  20.205  0.00  0.00    +0.000 A 
ATOM      8  C   UNL     1       2.593   7.176  19.534  0.00  0.00    +0.000 A 
ATOM      9  C   UNL     1       2.971   7.447  18.213  0.00  0.00    +0.000 A 
ATOM     10  C   UNL     1       2.461   8.606  17.615  0.00  0.00    +0.000 A 
ATOM     11  C   UNL     1       1.536   9.418  18.282  0.00  0.00    +0.000 A 
ENDBRANCH   3   9
ENDBRANCH   1   3
BRANCH   1  12
ATOM     12  O   UNL     1       4.030   4.186  18.121  0.00  0.00    +0.000 OA
BRANCH  12  13
ATOM     13  C   UNL     1       3.257   3.641  19.106  0.00  0.00    +0.000 A 
ATOM     14  C   UNL     1       1.881   3.860  19.013  0.00  0.00    +0.000 A 
ATOM     15  F   UNL     1       1.379   4.520  17.959  0.00  0.00    +0.000 F 
ATOM     16  C   UNL     1       1.020   3.384  19.996  0.00  0.00    +0.000 A 
ATOM     17  F   UNL     1      -0.299   3.597  19.893  0.00  0.00    +0.000 F 
ATOM     18  C   UNL     1       1.527   2.683  21.080  0.00  0.00    +0.000 A 
ATOM     19  F   UNL     1       0.704   2.237  22.037  0.00  0.00    +0.000 F 
ATOM     20  C   UNL     1       2.891   2.421  21.155  0.00  0.00    +0.000 A 
ATOM     21  F   UNL     1       3.377   1.710  22.180  0.00  0.00    +0.000 F 
ATOM     22  C   UNL     1       3.746   2.878  20.161  0.00  0.00    +0.000 A 
ATOM     23  F   UNL     1       5.035   2.517  20.204  0.00  0.00    +0.000 F 
ENDBRANCH  12  13
ENDBRANCH   1  12
BRANCH   1  24
ATOM     24  N   UNL     1       6.160   5.414  17.163  0.00  0.00    +0.000 NA
BRANCH  24  25
ATOM     25  C   UNL     1       6.171   4.252  16.256  0.00  0.00    +0.000 C 
BRANCH  25  26
ATOM     26  C   UNL     1       6.782   4.449  14.863  0.00  0.00    +0.000 C 
ATOM     27 CL   UNL     1       5.583   4.012  13.610  0.00  0.00    +0.000 Cl
ENDBRANCH  25  26
ENDBRANCH  24  25
BRANCH  24  28
ATOM     28  C   UNL     1       6.651   6.637  16.502  0.00  0.00    +0.000 C 
BRANCH  28  29
ATOM     29  C   UNL     1       7.449   7.612  17.375  0.00  0.00    +0.000 C 
ATOM     30 CL   UNL     1       8.228   6.702  18.706  0.00  0.00    +0.000 Cl
ENDBRANCH  28  29
ENDBRANCH  24  28
ENDBRANCH   1  24
TORSDOF 9
ENDMDL
MODEL 5
REMARK VINA RESULT:      -7.3      3.470      5.609
REMARK  Name = 
REMARK  10 active torsions:
REMARK  status: ('A' for Active; 'I' for Inactive)
REMARK    1  A    between atoms: C_1  and  C_2
REMARK    2  A    between atoms: C_5  and  N_6
REMARK    3  A    between atoms: N_6  and  P_7
REMARK    4  A    between atoms: P_7  and  O_9
REMARK    5  A    between atoms: P_7  and  N_21
REMARK    6  A    between atoms: O_9  and  C_10
REMARK    7  A    between atoms: N_21  and  C_22
REMARK    8  A    between atoms: N_21  and  C_25
REMARK    9  A    between atoms: C_22  and  C_23
REMARK   10  A    between atoms: C_25  and  C_26
REMARK                            x       y       z     vdW  Elec       q    Type
REMARK                         _______ _______ _______ _____ _____    ______ ____
ROOT
ATOM      1  P   UNL     1       2.705   5.140  18.307  0.00  0.00    +0.000 P 
ATOM      2  O   UNL     1       1.564   5.203  17.332  0.00  0.00    +0.000 OA
ENDROOT
BRANCH   1   3
ATOM      3  N   UNL     1       2.969   6.433  19.299  0.00  0.00    +0.000 N 
ATOM      4  H   UNL     1       3.953   6.645  19.392  0.00  0.00    +0.000 HD
BRANCH   3   9
ATOM      5  C   UNL     1       0.054  11.372  18.862  0.00  0.00    +0.000 C 
ATOM      6  C   UNL     1       0.820  10.090  18.995  0.00  0.00    +0.000 A 
ATOM      7  C   UNL     1       0.834   9.385  20.199  0.00  0.00    +0.000 A 
ATOM      8  C   UNL     1       1.542   8.181  20.311  0.00  0.00    +0.000 A 
ATOM      9  C   UNL     1       2.231   7.640  19.219  0.00  0.00    +0.000 A 
ATOM     10  C   UNL     1       2.263   8.387  18.035  0.00  0.00    +0.000 A 
ATOM     11  C   UNL     1       1.556   9.590  17.919  0.00  0.00    +0.000 A 
ENDBRANCH   3   9
ENDBRANCH   1   3
BRANCH   1  12
ATOM     12  O   UNL     1       4.134   4.974  17.561  0.00  0.00    +0.000 OA
BRANCH  12  13
ATOM     13  C   UNL     1       5.306   5.569  17.932  0.00  0.00    +0.000 A 
ATOM     14  C   UNL     1       5.667   6.726  17.238  0.00  0.00    +0.000 A 
ATOM     15  F   UNL     1       4.845   7.229  16.305  0.00  0.00    +0.000 F 
ATOM     16  C   UNL     1       6.867   7.373  17.515  0.00  0.00    +0.000 A 
ATOM     17  F   UNL     1       7.200   8.484  16.844  0.00  0.00    +0.000 F 
ATOM     18  C   UNL     1       7.714   6.871  18.491  0.00  0.00    +0.000 A 
ATOM     19  F   UNL     1       8.877   7.482  18.750  0.00  0.00    +0.000 F 
ATOM     20  C   UNL     1       7.339   5.747  19.219  0.00  0.00    +0.000 A 
ATOM     21  F   UNL     1       8.138   5.285  20.189  0.00  0.00    +0.000 F 
ATOM     22  C   UNL     1       6.131   5.115  18.956  0.00  0.00    +0.000 A 
ATOM     23  F   UNL     1       5.748   4.104  19.745  0.00  0.00    +0.000 F 
ENDBRANCH  12  13
ENDBRANCH   1  12
BRANCH   1  24
ATOM     24  N   UNL     1       2.568   3.874  19.378  0.00  0.00    +0.000 NA
BRANCH  24  25
ATOM     25  C   UNL     1       3.129   2.570  18.978  0.00  0.00    +0.000 C 
BRANCH  25  26
ATOM     26  C   UNL     1       2.171   1.556  18.341  0.00  0.00    +0.000 C 
ATOM     27 CL   UNL     1       0.481   2.090  18.578  0.00  0.00    +0.000 Cl
ENDBRANCH  25  26
ENDBRANCH  24  25
BRANCH  24  28
ATOM     28  C   UNL     1       2.769   4.147  20.812  0.00  0.00    +0.000 C 
BRANCH  28  29
ATOM     29  C   UNL     1       2.709   2.938  21.753  0.00  0.00    +0.000 C 
ATOM     30 CL   UNL     1       0.998   2.468  21.991  0.00  0.00    +0.000 Cl
ENDBRANCH  28  29
ENDBRANCH  24  28
ENDBRANCH   1  24
TORSDOF 9
ENDMDL
MODEL 6
REMARK VINA RESULT:      -7.3      0.790      2.594
REMARK  Name = 
REMARK  10 active torsions:
REMARK  status: ('A' for Active; 'I' for Inactive)
REMARK    1  A    between atoms: C_1  and  C_2
REMARK    2  A    between atoms: C_5  and  N_6
REMARK    3  A    between atoms: N_6  and  P_7
REMARK    4  A    between atoms: P_7  and  O_9
REMARK    5  A    between atoms: P_7  and  N_21
REMARK    6  A    between atoms: O_9  and  C_10
REMARK    7  A    between atoms: N_21  and  C_22
REMARK    8  A    between atoms: N_21  and  C_25
REMARK    9  A    between atoms: C_22  and  C_23
REMARK   10  A    between atoms: C_25  and  C_26
REMARK                            x       y       z     vdW  Elec       q    Type
REMARK                         _______ _______ _______ _____ _____    ______ ____
ROOT
ATOM      1  P   UNL     1       5.225   5.370  17.948  0.00  0.00    +0.000 P 
ATOM      2  O   UNL     1       5.756   5.698  19.315  0.00  0.00    +0.000 OA
ENDROOT
BRANCH   1   3
ATOM      3  N   UNL     1       4.022   6.313  17.323  0.00  0.00    +0.000 N 
ATOM      4  H   UNL     1       3.473   5.818  16.634  0.00  0.00    +0.000 HD
BRANCH   3   9
ATOM      5  C   UNL     1       0.529   9.467  20.629  0.00  0.00    +0.000 C 
ATOM      6  C   UNL     1       1.427   8.649  19.750  0.00  0.00    +0.000 A 
ATOM      7  C   UNL     1       1.761   9.081  18.465  0.00  0.00    +0.000 A 
ATOM      8  C   UNL     1       2.612   8.317  17.656  0.00  0.00    +0.000 A 
ATOM      9  C   UNL     1       3.170   7.119  18.117  0.00  0.00    +0.000 A 
ATOM     10  C   UNL     1       2.779   6.663  19.383  0.00  0.00    +0.000 A 
ATOM     11  C   UNL     1       1.929   7.424  20.195  0.00  0.00    +0.000 A 
ENDBRANCH   3   9
ENDBRANCH   1   3
BRANCH   1  12
ATOM     12  O   UNL     1       4.575   3.887  17.887  0.00  0.00    +0.000 OA
BRANCH  12  13
ATOM     13  C   UNL     1       3.599   3.405  18.712  0.00  0.00    +0.000 A 
ATOM     14  C   UNL     1       2.312   3.325  18.178  0.00  0.00    +0.000 A 
ATOM     15  F   UNL     1       2.100   3.652  16.894  0.00  0.00    +0.000 F 
ATOM     16  C   UNL     1       1.246   2.891  18.959  0.00  0.00    +0.000 A 
ATOM     17  F   UNL     1       0.016   2.814  18.433  0.00  0.00    +0.000 F 
ATOM     18  C   UNL     1       1.459   2.531  20.281  0.00  0.00    +0.000 A 
ATOM     19  F   UNL     1       0.433   2.128  21.041  0.00  0.00    +0.000 F 
ATOM     20  C   UNL     1       2.746   2.564  20.806  0.00  0.00    +0.000 A 
ATOM     21  F   UNL     1       2.959   2.179  22.071  0.00  0.00    +0.000 F 
ATOM     22  C   UNL     1       3.812   2.976  20.018  0.00  0.00    +0.000 A 
ATOM     23  F   UNL     1       5.052   2.892  20.517  0.00  0.00    +0.000 F 
ENDBRANCH  12  13
ENDBRANCH   1  12
BRANCH   1  24
ATOM     24  N   UNL     1       6.397   5.435  16.769  0.00  0.00    +0.000 NA
BRANCH  24  25
ATOM     25  C   UNL     1       5.960   5.374  15.361  0.00  0.00    +0.000 C 
BRANCH  25  26
ATOM     26  C   UNL     1       6.773   4.487  14.409  0.00  0.00    +0.000 C 
ATOM     27 CL   UNL     1       5.687   3.757  13.190  0.00  0.00    +0.000 Cl
ENDBRANCH  25  26
ENDBRANCH  24  25
BRANCH  24  28
ATOM     28  C   UNL     1       7.529   6.358  16.958  0.00  0.00    +0.000 C 
BRANCH  28  29
ATOM     29  C   UNL     1       7.176   7.822  17.250  0.00  0.00    +0.000 C 
ATOM     30 CL   UNL     1       8.425   8.522  18.324  0.00  0.00    +0.000 Cl
ENDBRANCH  28  29
ENDBRANCH  24  28
ENDBRANCH   1  24
TORSDOF 9
ENDMDL
MODEL 7
REMARK VINA RESULT:      -7.3      3.209      5.229
REMARK  Name = 
REMARK  10 active torsions:
REMARK  status: ('A' for Active; 'I' for Inactive)
REMARK    1  A    between atoms: C_1  and  C_2
REMARK    2  A    between atoms: C_5  and  N_6
REMARK    3  A    between atoms: N_6  and  P_7
REMARK    4  A    between atoms: P_7  and  O_9
REMARK    5  A    between atoms: P_7  and  N_21
REMARK    6  A    between atoms: O_9  and  C_10
REMARK    7  A    between atoms: N_21  and  C_22
REMARK    8  A    between atoms: N_21  and  C_25
REMARK    9  A    between atoms: C_22  and  C_23
REMARK   10  A    between atoms: C_25  and  C_26
REMARK                            x       y       z     vdW  Elec       q    Type
REMARK                         _______ _______ _______ _____ _____    ______ ____
ROOT
ATOM      1  P   UNL     1       2.452   4.854  18.076  0.00  0.00    +0.000 P 
ATOM      2  O   UNL     1       1.379   5.174  17.075  0.00  0.00    +0.000 OA
ENDROOT
BRANCH   1   3
ATOM      3  N   UNL     1       2.740   5.931  19.295  0.00  0.00    +0.000 N 
ATOM      4  H   UNL     1       3.713   5.942  19.569  0.00  0.00    +0.000 HD
BRANCH   3   9
ATOM      5  C   UNL     1       0.591  11.265  19.438  0.00  0.00    +0.000 C 
ATOM      6  C   UNL     1       1.143   9.871  19.381  0.00  0.00    +0.000 A 
ATOM      7  C   UNL     1       1.737   9.382  18.216  0.00  0.00    +0.000 A 
ATOM      8  C   UNL     1       2.263   8.084  18.176  0.00  0.00    +0.000 A 
ATOM      9  C   UNL     1       2.232   7.254  19.302  0.00  0.00    +0.000 A 
ATOM     10  C   UNL     1       1.578   7.731  20.445  0.00  0.00    +0.000 A 
ATOM     11  C   UNL     1       1.052   9.028  20.490  0.00  0.00    +0.000 A 
ENDBRANCH   3   9
ENDBRANCH   1   3
BRANCH   1  12
ATOM     12  O   UNL     1       3.910   4.713  17.383  0.00  0.00    +0.000 OA
BRANCH  12  13
ATOM     13  C   UNL     1       5.057   5.329  17.795  0.00  0.00    +0.000 A 
ATOM     14  C   UNL     1       5.489   6.418  17.036  0.00  0.00    +0.000 A 
ATOM     15  F   UNL     1       4.751   6.846  16.001  0.00  0.00    +0.000 F 
ATOM     16  C   UNL     1       6.672   7.078  17.353  0.00  0.00    +0.000 A 
ATOM     17  F   UNL     1       7.074   8.125  16.619  0.00  0.00    +0.000 F 
ATOM     18  C   UNL     1       7.431   6.655  18.433  0.00  0.00    +0.000 A 
ATOM     19  F   UNL     1       8.579   7.277  18.732  0.00  0.00    +0.000 F 
ATOM     20  C   UNL     1       6.983   5.601  19.222  0.00  0.00    +0.000 A 
ATOM     21  F   UNL     1       7.695   5.218  20.289  0.00  0.00    +0.000 F 
ATOM     22  C   UNL     1       5.791   4.959  18.918  0.00  0.00    +0.000 A 
ATOM     23  F   UNL     1       5.331   4.022  19.756  0.00  0.00    +0.000 F 
ENDBRANCH  12  13
ENDBRANCH   1  12
BRANCH   1  24
ATOM     24  N   UNL     1       2.166   3.436  18.897  0.00  0.00    +0.000 NA
BRANCH  24  25
ATOM     25  C   UNL     1       1.016   3.393  19.819  0.00  0.00    +0.000 C 
BRANCH  25  26
ATOM     26  C   UNL     1       1.250   2.794  21.212  0.00  0.00    +0.000 C 
ATOM     27 CL   UNL     1       2.518   3.725  22.063  0.00  0.00    +0.000 Cl
ENDBRANCH  25  26
ENDBRANCH  24  25
BRANCH  24  28
ATOM     28  C   UNL     1       2.346   2.162  18.177  0.00  0.00    +0.000 C 
BRANCH  28  29
ATOM     29  C   UNL     1       3.748   1.544  18.223  0.00  0.00    +0.000 C 
ATOM     30 CL   UNL     1       4.312   1.500  19.921  0.00  0.00    +0.000 Cl
ENDBRANCH  28  29
ENDBRANCH  24  28
ENDBRANCH   1  24
TORSDOF 9
ENDMDL
MODEL 8
REMARK VINA RESULT:      -7.2      3.117      5.704
REMARK  Name = 
REMARK  10 active torsions:
REMARK  status: ('A' for Active; 'I' for Inactive)
REMARK    1  A    between atoms: C_1  and  C_2
REMARK    2  A    between atoms: C_5  and  N_6
REMARK    3  A    between atoms: N_6  and  P_7
REMARK    4  A    between atoms: P_7  and  O_9
REMARK    5  A    between atoms: P_7  and  N_21
REMARK    6  A    between atoms: O_9  and  C_10
REMARK    7  A    between atoms: N_21  and  C_22
REMARK    8  A    between atoms: N_21  and  C_25
REMARK    9  A    between atoms: C_22  and  C_23
REMARK   10  A    between atoms: C_25  and  C_26
REMARK                            x       y       z     vdW  Elec       q    Type
REMARK                         _______ _______ _______ _____ _____    ______ ____
ROOT
ATOM      1  P   UNL     1       2.435   5.175  19.080  0.00  0.00    +0.000 P 
ATOM      2  O   UNL     1       1.724   5.278  17.761  0.00  0.00    +0.000 OA
ENDROOT
BRANCH   1   3
ATOM      3  N   UNL     1       2.808   6.567  19.886  0.00  0.00    +0.000 N 
ATOM      4  H   UNL     1       3.756   6.868  19.703  0.00  0.00    +0.000 HD
BRANCH   3   9
ATOM      5  C   UNL     1      -0.589  11.207  19.955  0.00  0.00    +0.000 C 
ATOM      6  C   UNL     1       0.303  10.001  19.957  0.00  0.00    +0.000 A 
ATOM      7  C   UNL     1       0.416   9.194  21.090  0.00  0.00    +0.000 A 
ATOM      8  C   UNL     1       1.242   8.062  21.079  0.00  0.00    +0.000 A 
ATOM      9  C   UNL     1       1.953   7.695  19.930  0.00  0.00    +0.000 A 
ATOM     10  C   UNL     1       1.882   8.546  18.820  0.00  0.00    +0.000 A 
ATOM     11  C   UNL     1       1.058   9.678  18.827  0.00  0.00    +0.000 A 
ENDBRANCH   3   9
ENDBRANCH   1   3
BRANCH   1  12
ATOM     12  O   UNL     1       3.880   4.454  18.938  0.00  0.00    +0.000 OA
BRANCH  12  13
ATOM     13  C   UNL     1       4.781   4.656  17.932  0.00  0.00    +0.000 A 
ATOM     14  C   UNL     1       5.945   5.352  18.265  0.00  0.00    +0.000 A 
ATOM     15  F   UNL     1       6.159   5.727  19.535  0.00  0.00    +0.000 F 
ATOM     16  C   UNL     1       6.897   5.645  17.294  0.00  0.00    +0.000 A 
ATOM     17  F   UNL     1       8.012   6.310  17.628  0.00  0.00    +0.000 F 
ATOM     18  C   UNL     1       6.694   5.244  15.983  0.00  0.00    +0.000 A 
ATOM     19  F   UNL     1       7.601   5.538  15.042  0.00  0.00    +0.000 F 
ATOM     20  C   UNL     1       5.560   4.510  15.653  0.00  0.00    +0.000 A 
ATOM     21  F   UNL     1       5.383   4.087  14.395  0.00  0.00    +0.000 F 
ATOM     22  C   UNL     1       4.622   4.198  16.628  0.00  0.00    +0.000 A 
ATOM     23  F   UNL     1       3.598   3.399  16.304  0.00  0.00    +0.000 F 
ENDBRANCH  12  13
ENDBRANCH   1  12
BRANCH   1  24
ATOM     24  N   UNL     1       1.573   4.312  20.211  0.00  0.00    +0.000 NA
BRANCH  24  25
ATOM     25  C   UNL     1       0.736   3.195  19.734  0.00  0.00    +0.000 C 
BRANCH  25  26
ATOM     26  C   UNL     1       1.054   2.617  18.350  0.00  0.00    +0.000 C 
ATOM     27 CL   UNL     1       2.420   1.469  18.475  0.00  0.00    +0.000 Cl
ENDBRANCH  25  26
ENDBRANCH  24  25
BRANCH  24  28
ATOM     28  C   UNL     1       2.219   4.008  21.501  0.00  0.00    +0.000 C 
BRANCH  28  29
ATOM     29  C   UNL     1       2.507   2.530  21.788  0.00  0.00    +0.000 C 
ATOM     30 CL   UNL     1       4.116   2.108  21.127  0.00  0.00    +0.000 Cl
ENDBRANCH  28  29
ENDBRANCH  24  28
ENDBRANCH   1  24
TORSDOF 9
ENDMDL
MODEL 9
REMARK VINA RESULT:      -7.2      0.797      2.176
REMARK  Name = 
REMARK  10 active torsions:
REMARK  status: ('A' for Active; 'I' for Inactive)
REMARK    1  A    between atoms: C_1  and  C_2
REMARK    2  A    between atoms: C_5  and  N_6
REMARK    3  A    between atoms: N_6  and  P_7
REMARK    4  A    between atoms: P_7  and  O_9
REMARK    5  A    between atoms: P_7  and  N_21
REMARK    6  A    between atoms: O_9  and  C_10
REMARK    7  A    between atoms: N_21  and  C_22
REMARK    8  A    between atoms: N_21  and  C_25
REMARK    9  A    between atoms: C_22  and  C_23
REMARK   10  A    between atoms: C_25  and  C_26
REMARK                            x       y       z     vdW  Elec       q    Type
REMARK                         _______ _______ _______ _____ _____    ______ ____
ROOT
ATOM      1  P   UNL     1       4.496   5.953  18.024  0.00  0.00    +0.000 P 
ATOM      2  O   UNL     1       5.030   6.196  19.407  0.00  0.00    +0.000 OA
ENDROOT
BRANCH   1   3
ATOM      3  N   UNL     1       3.362   6.991  17.422  0.00  0.00    +0.000 N 
ATOM      4  H   UNL     1       2.788   6.556  16.713  0.00  0.00    +0.000 HD
BRANCH   3   9
ATOM      5  C   UNL     1       0.063  10.258  20.818  0.00  0.00    +0.000 C 
ATOM      6  C   UNL     1       0.910   9.409  19.916  0.00  0.00    +0.000 A 
ATOM      7  C   UNL     1       1.165   9.796  18.599  0.00  0.00    +0.000 A 
ATOM      8  C   UNL     1       1.968   9.004  17.767  0.00  0.00    +0.000 A 
ATOM      9  C   UNL     1       2.557   7.824  18.237  0.00  0.00    +0.000 A 
ATOM     10  C   UNL     1       2.244   7.413  19.539  0.00  0.00    +0.000 A 
ATOM     11  C   UNL     1       1.442   8.202  20.373  0.00  0.00    +0.000 A 
ENDBRANCH   3   9
ENDBRANCH   1   3
BRANCH   1  12
ATOM     12  O   UNL     1       3.755   4.516  17.901  0.00  0.00    +0.000 OA
BRANCH  12  13
ATOM     13  C   UNL     1       3.103   3.863  18.907  0.00  0.00    +0.000 A 
ATOM     14  C   UNL     1       1.708   3.912  18.884  0.00  0.00    +0.000 A 
ATOM     15  F   UNL     1       1.078   4.526  17.871  0.00  0.00    +0.000 F 
ATOM     16  C   UNL     1       0.961   3.315  19.894  0.00  0.00    +0.000 A 
ATOM     17  F   UNL     1      -0.378   3.367  19.858  0.00  0.00    +0.000 F 
ATOM     18  C   UNL     1       1.602   2.662  20.935  0.00  0.00    +0.000 A 
ATOM     19  F   UNL     1       0.888   2.100  21.918  0.00  0.00    +0.000 F 
ATOM     20  C   UNL     1       2.990   2.568  20.940  0.00  0.00    +0.000 A 
ATOM     21  F   UNL     1       3.609   1.902  21.923  0.00  0.00    +0.000 F 
ATOM     22  C   UNL     1       3.733   3.144  19.919  0.00  0.00    +0.000 A 
ATOM     23  F   UNL     1       5.056   2.944  19.892  0.00  0.00    +0.000 F 
ENDBRANCH  12  13
ENDBRANCH   1  12
BRANCH   1  24
ATOM     24  N   UNL     1       5.683   5.986  16.859  0.00  0.00    +0.000 NA
BRANCH  24  25
ATOM     25  C   UNL     1       5.265   5.909  15.446  0.00  0.00    +0.000 C 
BRANCH  25  26
ATOM     26  C   UNL     1       5.612   4.628  14.677  0.00  0.00    +0.000 C 
ATOM     27 CL   UNL     1       7.156   4.850  13.803  0.00  0.00    +0.000 Cl
ENDBRANCH  25  26
ENDBRANCH  24  25
BRANCH  24  28
ATOM     28  C   UNL     1       6.824   6.900  17.049  0.00  0.00    +0.000 C 
BRANCH  28  29
ATOM     29  C   UNL     1       7.894   6.456  18.055  0.00  0.00    +0.000 C 
ATOM     30 CL   UNL     1       7.949   4.668  18.099  0.00  0.00    +0.000 Cl
ENDBRANCH  28  29
ENDBRANCH  24  28
ENDBRANCH   1  24
TORSDOF 9
ENDMDL
