MODEL 1
REMARK VINA RESULT:      -8.2      0.000      0.000
REMARK  Name = 
REMARK  10 active torsions:
REMARK  status: ('A' for Active; 'I' for Inactive)
REMARK    1  A    between atoms: C_1  and  O_2
REMARK    2  A    between atoms: O_2  and  C_3
REMARK    3  A    between atoms: C_7  and  C_8
REMARK    4  A    between atoms: C_8  and  C_9
REMARK    5  A    between atoms: CA_13  and  CB_14
REMARK    6  A    between atoms: CB_14  and  CG_15
REMARK    7  A    between atoms: C_24  and  C_25
REMARK    8  A    between atoms: C_25  and  C_26
REMARK    9  A    between atoms: C_27  and  C_28
REMARK   10  A    between atoms: C_27  and  C_29
REMARK                            x       y       z     vdW  Elec       q    Type
REMARK                         _______ _______ _______ _____ _____    ______ ____
ROOT
ATOM      1  C   UNK A   1       4.015   6.554  17.731  0.00  0.00    +0.000 C 
ENDROOT
BRANCH   1   6
ATOM      2  C   UNK A   1       0.440  10.492  19.110  0.00  0.00    +0.000 A 
ATOM      3  C   UNK A   1       1.330  10.576  18.034  0.00  0.00    +0.000 A 
ATOM      4  C   UNK A   1       2.259   9.548  17.793  0.00  0.00    +0.000 A 
ATOM      5  C   UNK A   1       2.319   8.412  18.640  0.00  0.00    +0.000 A 
ATOM      6  C   UNK A   1       3.023   7.145  18.671  0.00  0.00    +0.000 A 
ATOM      7  C   UNK A   1       2.702   6.518  19.876  0.00  0.00    +0.000 A 
ATOM      8  N   UNK A   1       1.808   7.327  20.526  0.00  0.00    +0.000 N 
ATOM      9  C   UNK A   1       1.500   8.430  19.766  0.00  0.00    +0.000 A 
ATOM     10  C   UNK A   1       0.555   9.447  20.019  0.00  0.00    +0.000 A 
ATOM     11  H   UNK A   1       1.388   7.119  21.421  0.00  0.00    +0.000 HD
BRANCH   2  13
ATOM     12  C   UNK A   1      -0.782  11.928  20.540  0.00  0.00    +0.000 C 
ATOM     13  O   UNK A   1      -0.481  11.508  19.204  0.00  0.00    +0.000 OA
ENDBRANCH   2  13
BRANCH   7  14
ATOM     14  C   UNK A   1       3.112   5.166  20.421  0.00  0.00    +0.000 C 
BRANCH  14  15
ATOM     15  C   UNK A   1       2.112   4.374  21.236  0.00  0.00    +0.000 C 
ATOM     16  C   UNK A   1       2.245   3.093  21.659  0.00  0.00    +0.000 C 
ATOM     17  C   UNK A   1       3.454   2.216  21.448  0.00  0.00    +0.000 C 
ATOM     18  C   UNK A   1       1.130   2.368  22.375  0.00  0.00    +0.000 C 
ENDBRANCH  14  15
ENDBRANCH   7  14
ENDBRANCH   1   6
BRANCH   1  19
ATOM     19  C   UNK A   1       5.504   6.551  18.036  0.00  0.00    +0.000 C 
ATOM     20  N   UNK A   1       6.237   6.623  16.761  0.00  0.00    +0.000 N 
ATOM     21  C   PHE A   2       6.208   5.582  15.857  0.00  0.00    +0.000 C 
ATOM     22  O   PHE A   2       6.504   5.815  14.687  0.00  0.00    +0.000 OA
ATOM     23  CA  PHE A   2       5.821   4.166  16.396  0.00  0.00    +0.000 C 
ATOM     24  N   PHE A   2       6.071   4.155  17.868  0.00  0.00    +0.000 N 
ATOM     25  C   UNK A   1       6.052   5.276  18.676  0.00  0.00    +0.000 C 
ATOM     26  O   UNK A   1       6.480   5.225  19.826  0.00  0.00    +0.000 OA
ATOM     27  H   UNK A   1       6.440   7.532  16.358  0.00  0.00    +0.000 HD
ATOM     28  H   PHE A   2       6.559   3.371  18.284  0.00  0.00    +0.000 HD
BRANCH  23  29
ATOM     29  CB  PHE A   2       4.443   3.514  16.025  0.00  0.00    +0.000 C 
BRANCH  29  30
ATOM     30  CG  PHE A   2       3.345   3.124  17.013  0.00  0.00    +0.000 A 
ATOM     31  CD1 PHE A   2       2.217   3.970  17.118  0.00  0.00    +0.000 A 
ATOM     32  CE1 PHE A   2       1.110   3.641  17.914  0.00  0.00    +0.000 A 
ATOM     33  CZ  PHE A   2       1.094   2.448  18.624  0.00  0.00    +0.000 A 
ATOM     34  CE2 PHE A   2       2.183   1.589  18.521  0.00  0.00    +0.000 A 
ATOM     35  CD2 PHE A   2       3.291   1.922  17.722  0.00  0.00    +0.000 A 
ENDBRANCH  29  30
ENDBRANCH  23  29
ENDBRANCH   1  19
TORSDOF 7
ENDMDL
MODEL 2
REMARK VINA RESULT:      -8.1      2.254      4.754
REMARK  Name = 
REMARK  10 active torsions:
REMARK  status: ('A' for Active; 'I' for Inactive)
REMARK    1  A    between atoms: C_1  and  O_2
REMARK    2  A    between atoms: O_2  and  C_3
REMARK    3  A    between atoms: C_7  and  C_8
REMARK    4  A    between atoms: C_8  and  C_9
REMARK    5  A    between atoms: CA_13  and  CB_14
REMARK    6  A    between atoms: CB_14  and  CG_15
REMARK    7  A    between atoms: C_24  and  C_25
REMARK    8  A    between atoms: C_25  and  C_26
REMARK    9  A    between atoms: C_27  and  C_28
REMARK   10  A    between atoms: C_27  and  C_29
REMARK                            x       y       z     vdW  Elec       q    Type
REMARK                         _______ _______ _______ _____ _____    ______ ____
ROOT
ATOM      1  C   UNK A   1       3.269   5.300  19.722  0.00  0.00    +0.000 C 
ENDROOT
BRANCH   1   6
ATOM      2  C   UNK A   1       0.393   9.886  20.662  0.00  0.00    +0.000 A 
ATOM      3  C   UNK A   1       0.273   8.712  21.414  0.00  0.00    +0.000 A 
ATOM      4  C   UNK A   1       1.001   7.561  21.061  0.00  0.00    +0.000 A 
ATOM      5  C   UNK A   1       1.860   7.564  19.933  0.00  0.00    +0.000 A 
ATOM      6  C   UNK A   1       2.819   6.663  19.326  0.00  0.00    +0.000 A 
ATOM      7  C   UNK A   1       3.246   7.249  18.132  0.00  0.00    +0.000 A 
ATOM      8  N   UNK A   1       2.626   8.467  18.037  0.00  0.00    +0.000 N 
ATOM      9  C   UNK A   1       1.853   8.713  19.147  0.00  0.00    +0.000 A 
ATOM     10  C   UNK A   1       1.138   9.881  19.490  0.00  0.00    +0.000 A 
ATOM     11  H   UNK A   1       2.758   9.122  17.280  0.00  0.00    +0.000 HD
BRANCH   2  13
ATOM     12  C   UNK A   1      -0.751  10.854  22.495  0.00  0.00    +0.000 C 
ATOM     13  O   UNK A   1      -0.295  10.975  21.142  0.00  0.00    +0.000 OA
ENDBRANCH   2  13
BRANCH   7  14
ATOM     14  C   UNK A   1       4.265   6.780  17.116  0.00  0.00    +0.000 C 
BRANCH  14  15
ATOM     15  C   UNK A   1       5.569   7.536  16.987  0.00  0.00    +0.000 C 
ATOM     16  C   UNK A   1       6.706   7.318  17.693  0.00  0.00    +0.000 C 
ATOM     17  C   UNK A   1       6.913   6.227  18.715  0.00  0.00    +0.000 C 
ATOM     18  C   UNK A   1       7.917   8.211  17.556  0.00  0.00    +0.000 C 
ENDBRANCH  14  15
ENDBRANCH   7  14
ENDBRANCH   1   6
BRANCH   1  19
ATOM     19  C   UNK A   1       2.356   4.091  19.606  0.00  0.00    +0.000 C 
ATOM     20  N   UNK A   1       3.096   2.905  20.069  0.00  0.00    +0.000 N 
ATOM     21  C   PHE A   2       4.179   2.416  19.368  0.00  0.00    +0.000 C 
ATOM     22  O   PHE A   2       4.976   1.689  19.956  0.00  0.00    +0.000 OA
ATOM     23  CA  PHE A   2       4.300   2.807  17.859  0.00  0.00    +0.000 C 
ATOM     24  N   PHE A   2       2.942   3.200  17.380  0.00  0.00    +0.000 N 
ATOM     25  C   UNK A   1       1.939   3.702  18.188  0.00  0.00    +0.000 C 
ATOM     26  O   UNK A   1       0.787   3.795  17.770  0.00  0.00    +0.000 OA
ATOM     27  H   UNK A   1       3.088   2.672  21.056  0.00  0.00    +0.000 HD
ATOM     28  H   PHE A   2       2.600   2.835  16.498  0.00  0.00    +0.000 HD
BRANCH  23  29
ATOM     29  CB  PHE A   2       5.410   3.805  17.373  0.00  0.00    +0.000 C 
BRANCH  29  30
ATOM     30  CG  PHE A   2       5.911   3.953  15.938  0.00  0.00    +0.000 A 
ATOM     31  CD1 PHE A   2       5.015   3.646  14.888  0.00  0.00    +0.000 A 
ATOM     32  CE1 PHE A   2       5.346   3.855  13.540  0.00  0.00    +0.000 A 
ATOM     33  CZ  PHE A   2       6.583   4.388  13.203  0.00  0.00    +0.000 A 
ATOM     34  CE2 PHE A   2       7.473   4.718  14.219  0.00  0.00    +0.000 A 
ATOM     35  CD2 PHE A   2       7.138   4.508  15.568  0.00  0.00    +0.000 A 
ENDBRANCH  29  30
ENDBRANCH  23  29
ENDBRANCH   1  19
TORSDOF 7
ENDMDL
MODEL 3
REMARK VINA RESULT:      -8.0      2.920      6.922
REMARK  Name = 
REMARK  10 active torsions:
REMARK  status: ('A' for Active; 'I' for Inactive)
REMARK    1  A    between atoms: C_1  and  O_2
REMARK    2  A    between atoms: O_2  and  C_3
REMARK    3  A    between atoms: C_7  and  C_8
REMARK    4  A    between atoms: C_8  and  C_9
REMARK    5  A    between atoms: CA_13  and  CB_14
REMARK    6  A    between atoms: CB_14  and  CG_15
REMARK    7  A    between atoms: C_24  and  C_25
REMARK    8  A    between atoms: C_25  and  C_26
REMARK    9  A    between atoms: C_27  and  C_28
REMARK   10  A    between atoms: C_27  and  C_29
REMARK                            x       y       z     vdW  Elec       q    Type
REMARK                         _______ _______ _______ _____ _____    ______ ____
ROOT
ATOM      1  C   UNK A   1       4.765   6.344  17.074  0.00  0.00    +0.000 C 
ENDROOT
BRANCH   1   6
ATOM      2  C   UNK A   1       2.679   3.357  21.186  0.00  0.00    +0.000 A 
ATOM      3  C   UNK A   1       3.590   2.871  20.242  0.00  0.00    +0.000 A 
ATOM      4  C   UNK A   1       4.022   3.687  19.181  0.00  0.00    +0.000 A 
ATOM      5  C   UNK A   1       3.536   5.012  19.041  0.00  0.00    +0.000 A 
ATOM      6  C   UNK A   1       3.800   6.157  18.192  0.00  0.00    +0.000 A 
ATOM      7  C   UNK A   1       2.865   7.143  18.516  0.00  0.00    +0.000 A 
ATOM      8  N   UNK A   1       2.104   6.654  19.545  0.00  0.00    +0.000 N 
ATOM      9  C   UNK A   1       2.541   5.408  19.932  0.00  0.00    +0.000 A 
ATOM     10  C   UNK A   1       2.103   4.609  21.008  0.00  0.00    +0.000 A 
ATOM     11  H   UNK A   1       1.354   7.157  19.996  0.00  0.00    +0.000 HD
BRANCH   2  13
ATOM     12  C   UNK A   1       0.998   2.216  22.401  0.00  0.00    +0.000 C 
ATOM     13  O   UNK A   1       2.390   2.508  22.228  0.00  0.00    +0.000 OA
ENDBRANCH   2  13
BRANCH   7  14
ATOM     14  C   UNK A   1       2.695   8.549  17.984  0.00  0.00    +0.000 C 
BRANCH  14  15
ATOM     15  C   UNK A   1       1.309   9.022  17.602  0.00  0.00    +0.000 C 
ATOM     16  C   UNK A   1       0.475   9.780  18.355  0.00  0.00    +0.000 C 
ATOM     17  C   UNK A   1       0.791  10.356  19.713  0.00  0.00    +0.000 C 
ATOM     18  C   UNK A   1      -0.934  10.100  17.912  0.00  0.00    +0.000 C 
ENDBRANCH  14  15
ENDBRANCH   7  14
ENDBRANCH   1   6
BRANCH   1  19
ATOM     19  C   UNK A   1       5.761   5.265  16.687  0.00  0.00    +0.000 C 
ATOM     20  N   UNK A   1       6.561   4.926  17.877  0.00  0.00    +0.000 N 
ATOM     21  C   PHE A   2       7.440   5.832  18.432  0.00  0.00    +0.000 C 
ATOM     22  O   PHE A   2       7.794   5.664  19.597  0.00  0.00    +0.000 OA
ATOM     23  CA  PHE A   2       7.945   7.000  17.524  0.00  0.00    +0.000 C 
ATOM     24  N   PHE A   2       7.765   6.582  16.102  0.00  0.00    +0.000 N 
ATOM     25  C   UNK A   1       6.823   5.670  15.666  0.00  0.00    +0.000 C 
ATOM     26  O   UNK A   1       6.877   5.212  14.527  0.00  0.00    +0.000 OA
ATOM     27  H   UNK A   1       6.218   4.218  18.518  0.00  0.00    +0.000 HD
ATOM     28  H   PHE A   2       8.521   6.723  15.442  0.00  0.00    +0.000 HD
BRANCH  23  29
ATOM     29  CB  PHE A   2       7.469   8.474  17.772  0.00  0.00    +0.000 C 
BRANCH  29  30
ATOM     30  CG  PHE A   2       8.360   9.644  18.186  0.00  0.00    +0.000 A 
ATOM     31  CD1 PHE A   2       8.211  10.868  17.494  0.00  0.00    +0.000 A 
ATOM     32  CE1 PHE A   2       8.905  12.027  17.873  0.00  0.00    +0.000 A 
ATOM     33  CZ  PHE A   2       9.764  11.998  18.963  0.00  0.00    +0.000 A 
ATOM     34  CE2 PHE A   2       9.911  10.812  19.673  0.00  0.00    +0.000 A 
ATOM     35  CD2 PHE A   2       9.214   9.652  19.291  0.00  0.00    +0.000 A 
ENDBRANCH  29  30
ENDBRANCH  23  29
ENDBRANCH   1  19
TORSDOF 7
ENDMDL
MODEL 4
REMARK VINA RESULT:      -8.0      1.878      3.351
REMARK  Name = 
REMARK  10 active torsions:
REMARK  status: ('A' for Active; 'I' for Inactive)
REMARK    1  A    between atoms: C_1  and  O_2
REMARK    2  A    between atoms: O_2  and  C_3
REMARK    3  A    between atoms: C_7  and  C_8
REMARK    4  A    between atoms: C_8  and  C_9
REMARK    5  A    between atoms: CA_13  and  CB_14
REMARK    6  A    between atoms: CB_14  and  CG_15
REMARK    7  A    between atoms: C_24  and  C_25
REMARK    8  A    between atoms: C_25  and  C_26
REMARK    9  A    between atoms: C_27  and  C_28
REMARK   10  A    between atoms: C_27  and  C_29
REMARK                            x       y       z     vdW  Elec       q    Type
REMARK                         _______ _______ _______ _____ _____    ______ ____
ROOT
ATOM      1  C   UNK A   1       4.061   6.191  18.264  0.00  0.00    +0.000 C 
ENDROOT
BRANCH   1   6
ATOM      2  C   UNK A   1       0.619  10.445  18.761  0.00  0.00    +0.000 A 
ATOM      3  C   UNK A   1       1.730  10.425  17.911  0.00  0.00    +0.000 A 
ATOM      4  C   UNK A   1       2.597   9.318  17.896  0.00  0.00    +0.000 A 
ATOM      5  C   UNK A   1       2.370   8.207  18.748  0.00  0.00    +0.000 A 
ATOM      6  C   UNK A   1       2.939   6.889  18.950  0.00  0.00    +0.000 A 
ATOM      7  C   UNK A   1       2.305   6.326  20.060  0.00  0.00    +0.000 A 
ATOM      8  N   UNK A   1       1.361   7.224  20.484  0.00  0.00    +0.000 N 
ATOM      9  C   UNK A   1       1.326   8.326  19.661  0.00  0.00    +0.000 A 
ATOM     10  C   UNK A   1       0.439   9.423  19.684  0.00  0.00    +0.000 A 
ATOM     11  H   UNK A   1       0.737   7.078  21.264  0.00  0.00    +0.000 HD
BRANCH   2  13
ATOM     12  C   UNK A   1      -0.897  11.913  19.833  0.00  0.00    +0.000 C 
ATOM     13  O   UNK A   1      -0.209  11.535  18.635  0.00  0.00    +0.000 OA
ENDBRANCH   2  13
BRANCH   7  14
ATOM     14  C   UNK A   1       2.466   4.963  20.698  0.00  0.00    +0.000 C 
BRANCH  14  15
ATOM     15  C   UNK A   1       1.490   3.866  20.332  0.00  0.00    +0.000 C 
ATOM     16  C   UNK A   1       1.409   3.216  19.145  0.00  0.00    +0.000 C 
ATOM     17  C   UNK A   1       2.324   3.421  17.963  0.00  0.00    +0.000 C 
ATOM     18  C   UNK A   1       0.318   2.211  18.857  0.00  0.00    +0.000 C 
ENDBRANCH  14  15
ENDBRANCH   7  14
ENDBRANCH   1   6
BRANCH   1  19
ATOM     19  C   UNK A   1       5.243   5.627  19.033  0.00  0.00    +0.000 C 
ATOM     20  N   UNK A   1       6.463   6.311  18.575  0.00  0.00    +0.000 N 
ATOM     21  C   PHE A   2       6.946   6.137  17.295  0.00  0.00    +0.000 C 
ATOM     22  O   PHE A   2       7.715   6.981  16.840  0.00  0.00    +0.000 OA
ATOM     23  CA  PHE A   2       6.494   4.857  16.519  0.00  0.00    +0.000 C 
ATOM     24  N   PHE A   2       6.051   3.847  17.525  0.00  0.00    +0.000 N 
ATOM     25  C   UNK A   1       5.561   4.154  18.781  0.00  0.00    +0.000 C 
ATOM     26  O   UNK A   1       5.425   3.276  19.630  0.00  0.00    +0.000 OA
ATOM     27  H   UNK A   1       6.739   7.181  19.019  0.00  0.00    +0.000 HD
ATOM     28  H   PHE A   2       6.370   2.889  17.444  0.00  0.00    +0.000 HD
BRANCH  23  29
ATOM     29  CB  PHE A   2       5.502   4.959  15.308  0.00  0.00    +0.000 C 
BRANCH  29  30
ATOM     30  CG  PHE A   2       5.758   4.431  13.897  0.00  0.00    +0.000 A 
ATOM     31  CD1 PHE A   2       7.002   4.726  13.294  0.00  0.00    +0.000 A 
ATOM     32  CE1 PHE A   2       7.372   4.195  12.049  0.00  0.00    +0.000 A 
ATOM     33  CZ  PHE A   2       6.508   3.345  11.372  0.00  0.00    +0.000 A 
ATOM     34  CE2 PHE A   2       5.287   3.023  11.954  0.00  0.00    +0.000 A 
ATOM     35  CD2 PHE A   2       4.920   3.556  13.202  0.00  0.00    +0.000 A 
ENDBRANCH  29  30
ENDBRANCH  23  29
ENDBRANCH   1  19
TORSDOF 7
ENDMDL
MODEL 5
REMARK VINA RESULT:      -8.0      3.912      9.955
REMARK  Name = 
REMARK  10 active torsions:
REMARK  status: ('A' for Active; 'I' for Inactive)
REMARK    1  A    between atoms: C_1  and  O_2
REMARK    2  A    between atoms: O_2  and  C_3
REMARK    3  A    between atoms: C_7  and  C_8
REMARK    4  A    between atoms: C_8  and  C_9
REMARK    5  A    between atoms: CA_13  and  CB_14
REMARK    6  A    between atoms: CB_14  and  CG_15
REMARK    7  A    between atoms: C_24  and  C_25
REMARK    8  A    between atoms: C_25  and  C_26
REMARK    9  A    between atoms: C_27  and  C_28
REMARK   10  A    between atoms: C_27  and  C_29
REMARK                            x       y       z     vdW  Elec       q    Type
REMARK                         _______ _______ _______ _____ _____    ______ ____
ROOT
ATOM      1  C   UNK A   1      -1.128  10.683  21.006  0.00  0.00    +0.000 C 
ENDROOT
BRANCH   1   6
ATOM      2  C   UNK A   1       2.598   7.310  18.787  0.00  0.00    +0.000 A 
ATOM      3  C   UNK A   1       2.292   7.358  20.151  0.00  0.00    +0.000 A 
ATOM      4  C   UNK A   1       1.371   8.300  20.643  0.00  0.00    +0.000 A 
ATOM      5  C   UNK A   1       0.744   9.226  19.769  0.00  0.00    +0.000 A 
ATOM      6  C   UNK A   1      -0.292  10.236  19.858  0.00  0.00    +0.000 A 
ATOM      7  C   UNK A   1      -0.350  10.885  18.622  0.00  0.00    +0.000 A 
ATOM      8  N   UNK A   1       0.562  10.273  17.803  0.00  0.00    +0.000 N 
ATOM      9  C   UNK A   1       1.172   9.220  18.445  0.00  0.00    +0.000 A 
ATOM     10  C   UNK A   1       2.086   8.277  17.930  0.00  0.00    +0.000 A 
ATOM     11  H   UNK A   1       0.729  10.524  16.839  0.00  0.00    +0.000 HD
BRANCH   2  13
ATOM     12  C   UNK A   1       2.793   5.115  17.922  0.00  0.00    +0.000 C 
ATOM     13  O   UNK A   1       3.444   6.298  18.400  0.00  0.00    +0.000 OA
ENDBRANCH   2  13
BRANCH   7  14
ATOM     14  C   UNK A   1      -1.265  11.986  18.131  0.00  0.00    +0.000 C 
BRANCH  14  15
ATOM     15  C   UNK A   1      -2.101  11.742  16.894  0.00  0.00    +0.000 C 
ATOM     16  C   UNK A   1      -2.954  10.711  16.682  0.00  0.00    +0.000 C 
ATOM     17  C   UNK A   1      -3.286   9.624  17.673  0.00  0.00    +0.000 C 
ATOM     18  C   UNK A   1      -3.655  10.512  15.358  0.00  0.00    +0.000 C 
ENDBRANCH  14  15
ENDBRANCH   7  14
ENDBRANCH   1   6
BRANCH   1  19
ATOM     19  C   UNK A   1      -0.542  11.474  22.163  0.00  0.00    +0.000 C 
ATOM     20  N   UNK A   1      -1.539  11.519  23.245  0.00  0.00    +0.000 N 
ATOM     21  C   PHE A   2      -2.724  12.209  23.101  0.00  0.00    +0.000 C 
ATOM     22  O   PHE A   2      -3.661  11.924  23.843  0.00  0.00    +0.000 OA
ATOM     23  CA  PHE A   2      -2.781  13.329  22.012  0.00  0.00    +0.000 C 
ATOM     24  N   PHE A   2      -1.379  13.753  21.721  0.00  0.00    +0.000 N 
ATOM     25  C   UNK A   1      -0.266  12.951  21.890  0.00  0.00    +0.000 C 
ATOM     26  O   UNK A   1       0.864  13.433  21.843  0.00  0.00    +0.000 OA
ATOM     27  H   UNK A   1      -1.565  10.765  23.925  0.00  0.00    +0.000 HD
ATOM     28  H   PHE A   2      -1.157  14.741  21.673  0.00  0.00    +0.000 HD
BRANCH  23  29
ATOM     29  CB  PHE A   2      -3.623  13.136  20.703  0.00  0.00    +0.000 C 
BRANCH  29  30
ATOM     30  CG  PHE A   2      -5.060  12.623  20.632  0.00  0.00    +0.000 A 
ATOM     31  CD1 PHE A   2      -5.423  11.817  19.529  0.00  0.00    +0.000 A 
ATOM     32  CE1 PHE A   2      -6.684  11.209  19.432  0.00  0.00    +0.000 A 
ATOM     33  CZ  PHE A   2      -7.619  11.384  20.443  0.00  0.00    +0.000 A 
ATOM     34  CE2 PHE A   2      -7.279  12.156  21.549  0.00  0.00    +0.000 A 
ATOM     35  CD2 PHE A   2      -6.014  12.762  21.643  0.00  0.00    +0.000 A 
ENDBRANCH  29  30
ENDBRANCH  23  29
ENDBRANCH   1  19
TORSDOF 7
ENDMDL
MODEL 6
REMARK VINA RESULT:      -7.8      2.476      7.198
REMARK  Name = 
REMARK  10 active torsions:
REMARK  status: ('A' for Active; 'I' for Inactive)
REMARK    1  A    between atoms: C_1  and  O_2
REMARK    2  A    between atoms: O_2  and  C_3
REMARK    3  A    between atoms: C_7  and  C_8
REMARK    4  A    between atoms: C_8  and  C_9
REMARK    5  A    between atoms: CA_13  and  CB_14
REMARK    6  A    between atoms: CB_14  and  CG_15
REMARK    7  A    between atoms: C_24  and  C_25
REMARK    8  A    between atoms: C_25  and  C_26
REMARK    9  A    between atoms: C_27  and  C_28
REMARK   10  A    between atoms: C_27  and  C_29
REMARK                            x       y       z     vdW  Elec       q    Type
REMARK                         _______ _______ _______ _____ _____    ______ ____
ROOT
ATOM      1  C   UNK A   1       4.984   4.298  18.875  0.00  0.00    +0.000 C 
ENDROOT
BRANCH   1   6
ATOM      2  C   UNK A   1       6.222   3.954  13.534  0.00  0.00    +0.000 A 
ATOM      3  C   UNK A   1       5.132   3.315  14.133  0.00  0.00    +0.000 A 
ATOM      4  C   UNK A   1       4.927   3.403  15.522  0.00  0.00    +0.000 A 
ATOM      5  C   UNK A   1       5.827   4.131  16.341  0.00  0.00    +0.000 A 
ATOM      6  C   UNK A   1       5.908   4.535  17.732  0.00  0.00    +0.000 A 
ATOM      7  C   UNK A   1       7.146   5.155  17.915  0.00  0.00    +0.000 A 
ATOM      8  N   UNK A   1       7.768   5.181  16.695  0.00  0.00    +0.000 N 
ATOM      9  C   UNK A   1       6.961   4.646  15.719  0.00  0.00    +0.000 A 
ATOM     10  C   UNK A   1       7.178   4.576  14.327  0.00  0.00    +0.000 A 
ATOM     11  H   UNK A   1       8.677   5.585  16.521  0.00  0.00    +0.000 HD
BRANCH   2  13
ATOM     12  C   UNK A   1       5.325   2.990  11.567  0.00  0.00    +0.000 C 
ATOM     13  O   UNK A   1       6.280   3.875  12.162  0.00  0.00    +0.000 OA
ENDBRANCH   2  13
BRANCH   7  14
ATOM     14  C   UNK A   1       7.748   5.804  19.142  0.00  0.00    +0.000 C 
BRANCH  14  15
ATOM     15  C   UNK A   1       8.382   7.172  19.008  0.00  0.00    +0.000 C 
ATOM     16  C   UNK A   1       7.934   8.202  18.250  0.00  0.00    +0.000 C 
ATOM     17  C   UNK A   1       6.670   8.206  17.427  0.00  0.00    +0.000 C 
ATOM     18  C   UNK A   1       8.714   9.489  18.109  0.00  0.00    +0.000 C 
ENDBRANCH  14  15
ENDBRANCH   7  14
ENDBRANCH   1   6
BRANCH   1  19
ATOM     19  C   UNK A   1       4.289   2.963  19.080  0.00  0.00    +0.000 C 
ATOM     20  N   UNK A   1       3.015   2.987  18.342  0.00  0.00    +0.000 N 
ATOM     21  C   PHE A   2       1.982   3.819  18.720  0.00  0.00    +0.000 C 
ATOM     22  O   PHE A   2       1.112   4.083  17.894  0.00  0.00    +0.000 OA
ATOM     23  CA  PHE A   2       1.982   4.349  20.191  0.00  0.00    +0.000 C 
ATOM     24  N   PHE A   2       2.821   3.423  21.009  0.00  0.00    +0.000 N 
ATOM     25  C   UNK A   1       3.852   2.650  20.509  0.00  0.00    +0.000 C 
ATOM     26  O   UNK A   1       4.348   1.755  21.190  0.00  0.00    +0.000 OA
ATOM     27  H   UNK A   1       3.004   2.711  17.365  0.00  0.00    +0.000 HD
ATOM     28  H   PHE A   2       2.476   3.099  21.905  0.00  0.00    +0.000 HD
BRANCH  23  29
ATOM     29  CB  PHE A   2       2.290   5.856  20.503  0.00  0.00    +0.000 C 
BRANCH  29  30
ATOM     30  CG  PHE A   2       2.152   7.017  19.520  0.00  0.00    +0.000 A 
ATOM     31  CD1 PHE A   2       1.424   8.155  19.937  0.00  0.00    +0.000 A 
ATOM     32  CE1 PHE A   2       1.335   9.313  19.150  0.00  0.00    +0.000 A 
ATOM     33  CZ  PHE A   2       1.981   9.370  17.922  0.00  0.00    +0.000 A 
ATOM     34  CE2 PHE A   2       2.721   8.271  17.499  0.00  0.00    +0.000 A 
ATOM     35  CD2 PHE A   2       2.808   7.113  18.291  0.00  0.00    +0.000 A 
ENDBRANCH  29  30
ENDBRANCH  23  29
ENDBRANCH   1  19
TORSDOF 7
ENDMDL
MODEL 7
REMARK VINA RESULT:      -7.8      2.758      7.602
REMARK  Name = 
REMARK  10 active torsions:
REMARK  status: ('A' for Active; 'I' for Inactive)
REMARK    1  A    between atoms: C_1  and  O_2
REMARK    2  A    between atoms: O_2  and  C_3
REMARK    3  A    between atoms: C_7  and  C_8
REMARK    4  A    between atoms: C_8  and  C_9
REMARK    5  A    between atoms: CA_13  and  CB_14
REMARK    6  A    between atoms: CB_14  and  CG_15
REMARK    7  A    between atoms: C_24  and  C_25
REMARK    8  A    between atoms: C_25  and  C_26
REMARK    9  A    between atoms: C_27  and  C_28
REMARK   10  A    between atoms: C_27  and  C_29
REMARK                            x       y       z     vdW  Elec       q    Type
REMARK                         _______ _______ _______ _____ _____    ______ ____
ROOT
ATOM      1  C   UNK A   1       5.282   4.850  18.157  0.00  0.00    +0.000 C 
ENDROOT
BRANCH   1   6
ATOM      2  C   UNK A   1       6.623   3.868  12.921  0.00  0.00    +0.000 A 
ATOM      3  C   UNK A   1       5.788   3.048  13.688  0.00  0.00    +0.000 A 
ATOM      4  C   UNK A   1       5.551   3.340  15.043  0.00  0.00    +0.000 A 
ATOM      5  C   UNK A   1       6.161   4.462  15.660  0.00  0.00    +0.000 A 
ATOM      6  C   UNK A   1       6.093   5.136  16.942  0.00  0.00    +0.000 A 
ATOM      7  C   UNK A   1       7.065   6.139  16.938  0.00  0.00    +0.000 A 
ATOM      8  N   UNK A   1       7.660   6.120  15.704  0.00  0.00    +0.000 N 
ATOM      9  C   UNK A   1       7.077   5.175  14.892  0.00  0.00    +0.000 A 
ATOM     10  C   UNK A   1       7.320   4.904  13.529  0.00  0.00    +0.000 A 
ATOM     11  H   UNK A   1       8.393   6.748  15.408  0.00  0.00    +0.000 HD
BRANCH   2  13
ATOM     12  C   UNK A   1       6.478   2.163  11.284  0.00  0.00    +0.000 C 
ATOM     13  O   UNK A   1       6.718   3.542  11.588  0.00  0.00    +0.000 OA
ENDBRANCH   2  13
BRANCH   7  14
ATOM     14  C   UNK A   1       7.414   7.174  17.986  0.00  0.00    +0.000 C 
BRANCH  14  15
ATOM     15  C   UNK A   1       7.614   8.611  17.554  0.00  0.00    +0.000 C 
ATOM     16  C   UNK A   1       8.347   9.554  18.194  0.00  0.00    +0.000 C 
ATOM     17  C   UNK A   1       9.164   9.339  19.444  0.00  0.00    +0.000 C 
ATOM     18  C   UNK A   1       8.385  10.991  17.726  0.00  0.00    +0.000 C 
ENDBRANCH  14  15
ENDBRANCH   7  14
ENDBRANCH   1   6
BRANCH   1  19
ATOM     19  C   UNK A   1       4.583   3.517  18.357  0.00  0.00    +0.000 C 
ATOM     20  N   UNK A   1       3.251   3.594  17.731  0.00  0.00    +0.000 N 
ATOM     21  C   PHE A   2       2.269   4.421  18.234  0.00  0.00    +0.000 C 
ATOM     22  O   PHE A   2       1.338   4.737  17.498  0.00  0.00    +0.000 OA
ATOM     23  CA  PHE A   2       2.402   4.880  19.723  0.00  0.00    +0.000 C 
ATOM     24  N   PHE A   2       3.289   3.904  20.423  0.00  0.00    +0.000 N 
ATOM     25  C   UNK A   1       4.260   3.141  19.802  0.00  0.00    +0.000 C 
ATOM     26  O   UNK A   1       4.796   2.208  20.396  0.00  0.00    +0.000 OA
ATOM     27  H   UNK A   1       3.154   3.366  16.747  0.00  0.00    +0.000 HD
ATOM     28  H   PHE A   2       3.014   3.542  21.329  0.00  0.00    +0.000 HD
BRANCH  23  29
ATOM     29  CB  PHE A   2       2.762   6.365  20.077  0.00  0.00    +0.000 C 
BRANCH  29  30
ATOM     30  CG  PHE A   2       2.098   7.610  19.491  0.00  0.00    +0.000 A 
ATOM     31  CD1 PHE A   2       1.329   8.422  20.356  0.00  0.00    +0.000 A 
ATOM     32  CE1 PHE A   2       0.773   9.640  19.938  0.00  0.00    +0.000 A 
ATOM     33  CZ  PHE A   2       0.977  10.087  18.639  0.00  0.00    +0.000 A 
ATOM     34  CE2 PHE A   2       1.747   9.317  17.775  0.00  0.00    +0.000 A 
ATOM     35  CD2 PHE A   2       2.304   8.097  18.198  0.00  0.00    +0.000 A 
ENDBRANCH  29  30
ENDBRANCH  23  29
ENDBRANCH   1  19
TORSDOF 7
ENDMDL
MODEL 8
REMARK VINA RESULT:      -7.7      1.897      3.393
REMARK  Name = 
REMARK  10 active torsions:
REMARK  status: ('A' for Active; 'I' for Inactive)
REMARK    1  A    between atoms: C_1  and  O_2
REMARK    2  A    between atoms: O_2  and  C_3
REMARK    3  A    between atoms: C_7  and  C_8
REMARK    4  A    between atoms: C_8  and  C_9
REMARK    5  A    between atoms: CA_13  and  CB_14
REMARK    6  A    between atoms: CB_14  and  CG_15
REMARK    7  A    between atoms: C_24  and  C_25
REMARK    8  A    between atoms: C_25  and  C_26
REMARK    9  A    between atoms: C_27  and  C_28
REMARK   10  A    between atoms: C_27  and  C_29
REMARK                            x       y       z     vdW  Elec       q    Type
REMARK                         _______ _______ _______ _____ _____    ______ ____
ROOT
ATOM      1  C   UNK A   1       3.646   6.104  18.499  0.00  0.00    +0.000 C 
ENDROOT
BRANCH   1   6
ATOM      2  C   UNK A   1       1.023  10.928  18.676  0.00  0.00    +0.000 A 
ATOM      3  C   UNK A   1       2.149  10.672  17.887  0.00  0.00    +0.000 A 
ATOM      4  C   UNK A   1       2.799   9.426  17.954  0.00  0.00    +0.000 A 
ATOM      5  C   UNK A   1       2.333   8.412  18.828  0.00  0.00    +0.000 A 
ATOM      6  C   UNK A   1       2.640   7.022  19.102  0.00  0.00    +0.000 A 
ATOM      7  C   UNK A   1       1.863   6.629  20.194  0.00  0.00    +0.000 A 
ATOM      8  N   UNK A   1       1.081   7.700  20.538  0.00  0.00    +0.000 N 
ATOM      9  C   UNK A   1       1.287   8.755  19.680  0.00  0.00    +0.000 A 
ATOM     10  C   UNK A   1       0.616   9.995  19.621  0.00  0.00    +0.000 A 
ATOM     11  H   UNK A   1       0.406   7.702  21.288  0.00  0.00    +0.000 HD
BRANCH   2  13
ATOM     12  C   UNK A   1      -1.008  12.091  18.320  0.00  0.00    +0.000 C 
ATOM     13  O   UNK A   1       0.415  12.145  18.471  0.00  0.00    +0.000 OA
ENDBRANCH   2  13
BRANCH   7  14
ATOM     14  C   UNK A   1       1.742   5.287  20.883  0.00  0.00    +0.000 C 
BRANCH  14  15
ATOM     15  C   UNK A   1       1.215   4.107  20.095  0.00  0.00    +0.000 C 
ATOM     16  C   UNK A   1       1.304   2.799  20.438  0.00  0.00    +0.000 C 
ATOM     17  C   UNK A   1       1.900   2.261  21.715  0.00  0.00    +0.000 C 
ATOM     18  C   UNK A   1       0.837   1.697  19.516  0.00  0.00    +0.000 C 
ENDBRANCH  14  15
ENDBRANCH   7  14
ENDBRANCH   1   6
BRANCH   1  19
ATOM     19  C   UNK A   1       4.580   5.266  19.355  0.00  0.00    +0.000 C 
ATOM     20  N   UNK A   1       5.920   5.875  19.311  0.00  0.00    +0.000 N 
ATOM     21  C   PHE A   2       6.663   5.894  18.150  0.00  0.00    +0.000 C 
ATOM     22  O   PHE A   2       7.575   6.711  18.052  0.00  0.00    +0.000 OA
ATOM     23  CA  PHE A   2       6.302   4.849  17.044  0.00  0.00    +0.000 C 
ATOM     24  N   PHE A   2       5.570   3.725  17.701  0.00  0.00    +0.000 N 
ATOM     25  C   UNK A   1       4.836   3.841  18.866  0.00  0.00    +0.000 C 
ATOM     26  O   UNK A   1       4.448   2.840  19.463  0.00  0.00    +0.000 OA
ATOM     27  H   UNK A   1       6.153   6.605  19.977  0.00  0.00    +0.000 HD
ATOM     28  H   PHE A   2       5.827   2.769  17.484  0.00  0.00    +0.000 HD
BRANCH  23  29
ATOM     29  CB  PHE A   2       5.617   5.298  15.706  0.00  0.00    +0.000 C 
BRANCH  29  30
ATOM     30  CG  PHE A   2       5.975   4.798  14.308  0.00  0.00    +0.000 A 
ATOM     31  CD1 PHE A   2       7.202   5.220  13.747  0.00  0.00    +0.000 A 
ATOM     32  CE1 PHE A   2       7.669   4.729  12.517  0.00  0.00    +0.000 A 
ATOM     33  CZ  PHE A   2       6.922   3.792  11.815  0.00  0.00    +0.000 A 
ATOM     34  CE2 PHE A   2       5.721   3.346  12.356  0.00  0.00    +0.000 A 
ATOM     35  CD2 PHE A   2       5.258   3.840  13.588  0.00  0.00    +0.000 A 
ENDBRANCH  29  30
ENDBRANCH  23  29
ENDBRANCH   1  19
TORSDOF 7
ENDMDL
MODEL 9
REMARK VINA RESULT:      -7.7      3.861     10.014
REMARK  Name = 
REMARK  10 active torsions:
REMARK  status: ('A' for Active; 'I' for Inactive)
REMARK    1  A    between atoms: C_1  and  O_2
REMARK    2  A    between atoms: O_2  and  C_3
REMARK    3  A    between atoms: C_7  and  C_8
REMARK    4  A    between atoms: C_8  and  C_9
REMARK    5  A    between atoms: CA_13  and  CB_14
REMARK    6  A    between atoms: CB_14  and  CG_15
REMARK    7  A    between atoms: C_24  and  C_25
REMARK    8  A    between atoms: C_25  and  C_26
REMARK    9  A    between atoms: C_27  and  C_28
REMARK   10  A    between atoms: C_27  and  C_29
REMARK                            x       y       z     vdW  Elec       q    Type
REMARK                         _______ _______ _______ _____ _____    ______ ____
ROOT
ATOM      1  C   UNK A   1      -0.900  10.432  21.047  0.00  0.00    +0.000 C 
ENDROOT
BRANCH   1   6
ATOM      2  C   UNK A   1       2.748   7.165  18.557  0.00  0.00    +0.000 A 
ATOM      3  C   UNK A   1       2.464   7.129  19.926  0.00  0.00    +0.000 A 
ATOM      4  C   UNK A   1       1.562   8.049  20.493  0.00  0.00    +0.000 A 
ATOM      5  C   UNK A   1       0.934   9.036  19.690  0.00  0.00    +0.000 A 
ATOM      6  C   UNK A   1      -0.088  10.050  19.860  0.00  0.00    +0.000 A 
ATOM      7  C   UNK A   1      -0.157  10.777  18.669  0.00  0.00    +0.000 A 
ATOM      8  N   UNK A   1       0.734  10.208  17.798  0.00  0.00    +0.000 N 
ATOM      9  C   UNK A   1       1.341   9.110  18.361  0.00  0.00    +0.000 A 
ATOM     10  C   UNK A   1       2.235   8.191  17.773  0.00  0.00    +0.000 A 
ATOM     11  H   UNK A   1       0.889  10.519  16.850  0.00  0.00    +0.000 HD
BRANCH   2  13
ATOM     12  C   UNK A   1       4.545   6.591  17.128  0.00  0.00    +0.000 C 
ATOM     13  O   UNK A   1       3.575   6.170  18.094  0.00  0.00    +0.000 OA
ENDBRANCH   2  13
BRANCH   7  14
ATOM     14  C   UNK A   1      -1.065  11.918  18.265  0.00  0.00    +0.000 C 
BRANCH  14  15
ATOM     15  C   UNK A   1      -1.926  11.763  17.030  0.00  0.00    +0.000 C 
ATOM     16  C   UNK A   1      -2.840  10.790  16.796  0.00  0.00    +0.000 C 
ATOM     17  C   UNK A   1      -3.226   9.693  17.757  0.00  0.00    +0.000 C 
ATOM     18  C   UNK A   1      -3.564  10.674  15.475  0.00  0.00    +0.000 C 
ENDBRANCH  14  15
ENDBRANCH   7  14
ENDBRANCH   1   6
BRANCH   1  19
ATOM     19  C   UNK A   1      -0.346  11.329  22.141  0.00  0.00    +0.000 C 
ATOM     20  N   UNK A   1      -1.354  11.434  23.210  0.00  0.00    +0.000 N 
ATOM     21  C   PHE A   2      -2.556  12.077  23.002  0.00  0.00    +0.000 C 
ATOM     22  O   PHE A   2      -3.492  11.827  23.758  0.00  0.00    +0.000 OA
ATOM     23  CA  PHE A   2      -2.633  13.104  21.826  0.00  0.00    +0.000 C 
ATOM     24  N   PHE A   2      -1.240  13.542  21.512  0.00  0.00    +0.000 N 
ATOM     25  C   UNK A   1      -0.107  12.787  21.752  0.00  0.00    +0.000 C 
ATOM     26  O   UNK A   1       1.009  13.294  21.674  0.00  0.00    +0.000 OA
ATOM     27  H   UNK A   1      -1.366  10.737  23.948  0.00  0.00    +0.000 HD
ATOM     28  H   PHE A   2      -1.044  14.528  21.386  0.00  0.00    +0.000 HD
BRANCH  23  29
ATOM     29  CB  PHE A   2      -3.458  12.783  20.530  0.00  0.00    +0.000 C 
BRANCH  29  30
ATOM     30  CG  PHE A   2      -4.981  12.781  20.419  0.00  0.00    +0.000 A 
ATOM     31  CD1 PHE A   2      -5.708  13.669  21.246  0.00  0.00    +0.000 A 
ATOM     32  CE1 PHE A   2      -7.099  13.818  21.139  0.00  0.00    +0.000 A 
ATOM     33  CZ  PHE A   2      -7.805  13.087  20.193  0.00  0.00    +0.000 A 
ATOM     34  CE2 PHE A   2      -7.111  12.223  19.354  0.00  0.00    +0.000 A 
ATOM     35  CD2 PHE A   2      -5.717  12.076  19.464  0.00  0.00    +0.000 A 
ENDBRANCH  29  30
ENDBRANCH  23  29
ENDBRANCH   1  19
TORSDOF 7
ENDMDL
