MODEL 1
REMARK VINA RESULT:      -7.1      0.000      0.000
REMARK  Name = 
REMARK  9 active torsions:
REMARK  status: ('A' for Active; 'I' for Inactive)
REMARK    1  A    between atoms: C_1  and  C_2
REMARK    2  A    between atoms: C_2  and  C_3
REMARK    3  A    between atoms: N_9  and  C_10
REMARK    4  A    between atoms: C_10  and  C_11
REMARK    5  A    between atoms: C_11  and  C_12
REMARK    6  A    between atoms: C_12  and  N_13
REMARK    7  A    between atoms: N_13  and  C_14
REMARK    8  A    between atoms: N_13  and  C_15
REMARK    9  A    between atoms: C_16  and  C_18
REMARK                            x       y       z     vdW  Elec       q    Type
REMARK                         _______ _______ _______ _____ _____    ______ ____
ROOT
ATOM      1  C   UNL     1       1.398   9.565  20.153  0.00  0.00    +0.000 A 
ATOM      2  C   UNL     1       1.558   9.984  18.809  0.00  0.00    +0.000 A 
ATOM      3  C   UNL     1       2.031   9.085  17.837  0.00  0.00    +0.000 A 
ATOM      4  C   UNL     1       2.314   7.775  18.220  0.00  0.00    +0.000 A 
ATOM      5  N   UNL     1       2.808   6.824  17.395  0.00  0.00    +0.000 NA
ATOM      6  C   UNL     1       2.957   5.654  18.061  0.00  0.00    +0.000 A 
ATOM      7  N   UNL     1       3.505   4.498  17.442  0.00  0.00    +0.000 N 
ATOM      8  C   UNL     1       4.866   4.410  17.185  0.00  0.00    +0.000 C 
ATOM      9  O   UNL     1       5.264   3.484  16.489  0.00  0.00    +0.000 OA
ATOM     10  S   UNL     1       2.444   5.727  19.682  0.00  0.00    +0.000 S 
ATOM     11  C   UNL     1       2.107   7.362  19.525  0.00  0.00    +0.000 A 
ATOM     12  C   UNL     1       1.682   8.234  20.508  0.00  0.00    +0.000 A 
ENDROOT
BRANCH   8  13
ATOM     13  C   UNL     1       5.914   5.392  17.684  0.00  0.00    +0.000 A 
ATOM     14  C   UNL     1       6.817   4.985  18.692  0.00  0.00    +0.000 A 
ATOM     15  C   UNL     1       7.811   5.862  19.179  0.00  0.00    +0.000 A 
ATOM     16  C   UNL     1       7.908   7.157  18.664  0.00  0.00    +0.000 A 
ATOM     17  C   UNL     1       7.018   7.575  17.671  0.00  0.00    +0.000 A 
ATOM     18  C   UNL     1       6.032   6.714  17.210  0.00  0.00    +0.000 A 
ATOM     19  O   UNL     1       7.129   8.829  17.167  0.00  0.00    +0.000 OA
ATOM     20  C   UNL     1       8.294   9.555  17.345  0.00  0.00    +0.000 C 
ATOM     21  C   UNL     1       8.753   9.393  18.798  0.00  0.00    +0.000 C 
ATOM     22  O   UNL     1       8.846   8.038  19.103  0.00  0.00    +0.000 OA
ENDBRANCH   8  13
BRANCH   1  24
ATOM     23  C   UNL     1       0.766  11.929  20.622  0.00  0.00    +0.000 C 
ATOM     24  C   UNL     1       0.917  10.522  21.206  0.00  0.00    +0.000 C 
ENDBRANCH   1  24
BRANCH   7  25
ATOM     25  C   UNL     1       2.593   3.460  16.935  0.00  0.00    +0.000 C 
BRANCH  25  26
ATOM     26  C   UNL     1       2.521   2.214  17.847  0.00  0.00    +0.000 C 
BRANCH  26  27
ATOM     27  C   UNL     1       1.524   2.348  19.005  0.00  0.00    +0.000 C 
BRANCH  27  28
ATOM     28  N   UNL     1       2.156   2.024  20.308  0.00  0.00    +0.000 NA
ATOM     29  C   UNL     1       3.578   2.416  20.365  0.00  0.00    +0.000 C 
ATOM     30  C   UNL     1       1.424   2.681  21.401  0.00  0.00    +0.000 C 
ENDBRANCH  27  28
ENDBRANCH  26  27
ENDBRANCH  25  26
ENDBRANCH   7  25
TORSDOF 6
ENDMDL
MODEL 2
REMARK VINA RESULT:      -6.6      8.198     10.886
REMARK  Name = 
REMARK  9 active torsions:
REMARK  status: ('A' for Active; 'I' for Inactive)
REMARK    1  A    between atoms: C_1  and  C_2
REMARK    2  A    between atoms: C_2  and  C_3
REMARK    3  A    between atoms: N_9  and  C_10
REMARK    4  A    between atoms: C_10  and  C_11
REMARK    5  A    between atoms: C_11  and  C_12
REMARK    6  A    between atoms: C_12  and  N_13
REMARK    7  A    between atoms: N_13  and  C_14
REMARK    8  A    between atoms: N_13  and  C_15
REMARK    9  A    between atoms: C_16  and  C_18
REMARK                            x       y       z     vdW  Elec       q    Type
REMARK                         _______ _______ _______ _____ _____    ______ ____
ROOT
ATOM      1  C   UNL     1      -3.106  10.761  16.616  0.00  0.00    +0.000 A 
ATOM      2  C   UNL     1      -1.867  10.132  16.893  0.00  0.00    +0.000 A 
ATOM      3  C   UNL     1      -1.217  10.353  18.120  0.00  0.00    +0.000 A 
ATOM      4  C   UNL     1      -1.828  11.181  19.060  0.00  0.00    +0.000 A 
ATOM      5  N   UNL     1      -1.294  11.504  20.260  0.00  0.00    +0.000 NA
ATOM      6  C   UNL     1      -2.137  12.310  20.949  0.00  0.00    +0.000 A 
ATOM      7  N   UNL     1      -1.801  12.840  22.224  0.00  0.00    +0.000 N 
ATOM      8  C   UNL     1      -0.879  13.870  22.342  0.00  0.00    +0.000 C 
ATOM      9  O   UNL     1      -0.485  14.167  23.463  0.00  0.00    +0.000 OA
ATOM     10  S   UNL     1      -3.596  12.622  20.131  0.00  0.00    +0.000 S 
ATOM     11  C   UNL     1      -3.062  11.752  18.800  0.00  0.00    +0.000 A 
ATOM     12  C   UNL     1      -3.704  11.584  17.589  0.00  0.00    +0.000 A 
ENDROOT
BRANCH   8  13
ATOM     13  C   UNL     1      -0.295  14.657  21.181  0.00  0.00    +0.000 A 
ATOM     14  C   UNL     1       0.998  14.335  20.710  0.00  0.00    +0.000 A 
ATOM     15  C   UNL     1       1.576  15.034  19.627  0.00  0.00    +0.000 A 
ATOM     16  C   UNL     1       0.866  16.066  19.008  0.00  0.00    +0.000 A 
ATOM     17  C   UNL     1      -0.411  16.399  19.467  0.00  0.00    +0.000 A 
ATOM     18  C   UNL     1      -0.966  15.721  20.543  0.00  0.00    +0.000 A 
ATOM     19  O   UNL     1      -1.099  17.394  18.851  0.00  0.00    +0.000 OA
ATOM     20  C   UNL     1      -0.727  17.823  17.589  0.00  0.00    +0.000 C 
ATOM     21  C   UNL     1       0.798  17.965  17.551  0.00  0.00    +0.000 C 
ATOM     22  O   UNL     1       1.382  16.770  17.965  0.00  0.00    +0.000 OA
ENDBRANCH   8  13
BRANCH   1  24
ATOM     23  C   UNL     1      -2.847   9.907  14.291  0.00  0.00    +0.000 C 
ATOM     24  C   UNL     1      -3.800  10.553  15.300  0.00  0.00    +0.000 C 
ENDBRANCH   1  24
BRANCH   7  25
ATOM     25  C   UNL     1      -2.324  12.180  23.431  0.00  0.00    +0.000 C 
BRANCH  25  26
ATOM     26  C   UNL     1      -3.754  12.635  23.803  0.00  0.00    +0.000 C 
BRANCH  26  27
ATOM     27  C   UNL     1      -3.808  13.980  24.538  0.00  0.00    +0.000 C 
BRANCH  27  28
ATOM     28  N   UNL     1      -4.206  15.082  23.628  0.00  0.00    +0.000 NA
ATOM     29  C   UNL     1      -5.627  15.453  23.771  0.00  0.00    +0.000 C 
ATOM     30  C   UNL     1      -3.366  16.264  23.870  0.00  0.00    +0.000 C 
ENDBRANCH  27  28
ENDBRANCH  26  27
ENDBRANCH  25  26
ENDBRANCH   7  25
TORSDOF 6
ENDMDL
MODEL 3
REMARK VINA RESULT:      -6.6      3.081      6.264
REMARK  Name = 
REMARK  9 active torsions:
REMARK  status: ('A' for Active; 'I' for Inactive)
REMARK    1  A    between atoms: C_1  and  C_2
REMARK    2  A    between atoms: C_2  and  C_3
REMARK    3  A    between atoms: N_9  and  C_10
REMARK    4  A    between atoms: C_10  and  C_11
REMARK    5  A    between atoms: C_11  and  C_12
REMARK    6  A    between atoms: C_12  and  N_13
REMARK    7  A    between atoms: N_13  and  C_14
REMARK    8  A    between atoms: N_13  and  C_15
REMARK    9  A    between atoms: C_16  and  C_18
REMARK                            x       y       z     vdW  Elec       q    Type
REMARK                         _______ _______ _______ _____ _____    ______ ____
ROOT
ATOM      1  C   UNL     1       8.254   8.699  18.195  0.00  0.00    +0.000 A 
ATOM      2  C   UNL     1       8.572   7.683  19.130  0.00  0.00    +0.000 A 
ATOM      3  C   UNL     1       7.913   6.443  19.083  0.00  0.00    +0.000 A 
ATOM      4  C   UNL     1       6.963   6.229  18.085  0.00  0.00    +0.000 A 
ATOM      5  N   UNL     1       6.233   5.098  17.950  0.00  0.00    +0.000 NA
ATOM      6  C   UNL     1       5.412   5.193  16.877  0.00  0.00    +0.000 A 
ATOM      7  N   UNL     1       4.498   4.160  16.534  0.00  0.00    +0.000 N 
ATOM      8  C   UNL     1       3.341   3.963  17.274  0.00  0.00    +0.000 C 
ATOM      9  O   UNL     1       2.681   2.954  17.058  0.00  0.00    +0.000 OA
ATOM     10  S   UNL     1       5.582   6.652  16.020  0.00  0.00    +0.000 S 
ATOM     11  C   UNL     1       6.695   7.209  17.145  0.00  0.00    +0.000 A 
ATOM     12  C   UNL     1       7.298   8.451  17.192  0.00  0.00    +0.000 A 
ENDROOT
BRANCH   8  13
ATOM     13  C   UNL     1       2.831   4.895  18.361  0.00  0.00    +0.000 A 
ATOM     14  C   UNL     1       2.687   4.406  19.679  0.00  0.00    +0.000 A 
ATOM     15  C   UNL     1       2.224   5.241  20.721  0.00  0.00    +0.000 A 
ATOM     16  C   UNL     1       1.897   6.572  20.452  0.00  0.00    +0.000 A 
ATOM     17  C   UNL     1       2.028   7.067  19.152  0.00  0.00    +0.000 A 
ATOM     18  C   UNL     1       2.466   6.237  18.129  0.00  0.00    +0.000 A 
ATOM     19  O   UNL     1       1.721   8.365  18.902  0.00  0.00    +0.000 OA
ATOM     20  C   UNL     1       1.635   9.276  19.941  0.00  0.00    +0.000 C 
ATOM     21  C   UNL     1       0.856   8.630  21.092  0.00  0.00    +0.000 C 
ATOM     22  O   UNL     1       1.444   7.412  21.420  0.00  0.00    +0.000 OA
ENDBRANCH   8  13
BRANCH   1  24
ATOM     23  C   UNL     1       9.337  10.373  19.687  0.00  0.00    +0.000 C 
ATOM     24  C   UNL     1       8.933  10.038  18.249  0.00  0.00    +0.000 C 
ENDBRANCH   1  24
BRANCH   7  25
ATOM     25  C   UNL     1       4.866   3.204  15.478  0.00  0.00    +0.000 C 
BRANCH  25  26
ATOM     26  C   UNL     1       6.204   3.546  14.783  0.00  0.00    +0.000 C 
BRANCH  26  27
ATOM     27  C   UNL     1       6.045   4.060  13.347  0.00  0.00    +0.000 C 
BRANCH  27  28
ATOM     28  N   UNL     1       5.757   2.954  12.401  0.00  0.00    +0.000 NA
ATOM     29  C   UNL     1       4.547   3.197  11.593  0.00  0.00    +0.000 C 
ATOM     30  C   UNL     1       6.906   2.742  11.508  0.00  0.00    +0.000 C 
ENDBRANCH  27  28
ENDBRANCH  26  27
ENDBRANCH  25  26
ENDBRANCH   7  25
TORSDOF 6
ENDMDL
MODEL 4
REMARK VINA RESULT:      -6.4      7.452     10.087
REMARK  Name = 
REMARK  9 active torsions:
REMARK  status: ('A' for Active; 'I' for Inactive)
REMARK    1  A    between atoms: C_1  and  C_2
REMARK    2  A    between atoms: C_2  and  C_3
REMARK    3  A    between atoms: N_9  and  C_10
REMARK    4  A    between atoms: C_10  and  C_11
REMARK    5  A    between atoms: C_11  and  C_12
REMARK    6  A    between atoms: C_12  and  N_13
REMARK    7  A    between atoms: N_13  and  C_14
REMARK    8  A    between atoms: N_13  and  C_15
REMARK    9  A    between atoms: C_16  and  C_18
REMARK                            x       y       z     vdW  Elec       q    Type
REMARK                         _______ _______ _______ _____ _____    ______ ____
ROOT
ATOM      1  C   UNL     1      -3.015  10.720  16.388  0.00  0.00    +0.000 A 
ATOM      2  C   UNL     1      -1.905   9.902  16.716  0.00  0.00    +0.000 A 
ATOM      3  C   UNL     1      -1.289  10.013  17.974  0.00  0.00    +0.000 A 
ATOM      4  C   UNL     1      -1.808  10.923  18.894  0.00  0.00    +0.000 A 
ATOM      5  N   UNL     1      -1.289  11.154  20.122  0.00  0.00    +0.000 NA
ATOM      6  C   UNL     1      -2.028  12.079  20.779  0.00  0.00    +0.000 A 
ATOM      7  N   UNL     1      -1.675  12.544  22.075  0.00  0.00    +0.000 N 
ATOM      8  C   UNL     1      -0.611  13.416  22.249  0.00  0.00    +0.000 C 
ATOM      9  O   UNL     1      -0.230  13.643  23.391  0.00  0.00    +0.000 OA
ATOM     10  S   UNL     1      -3.378  12.620  19.897  0.00  0.00    +0.000 S 
ATOM     11  C   UNL     1      -2.923  11.682  18.583  0.00  0.00    +0.000 A 
ATOM     12  C   UNL     1      -3.523  11.623  17.340  0.00  0.00    +0.000 A 
ENDROOT
BRANCH   8  13
ATOM     13  C   UNL     1       0.146  14.106  21.126  0.00  0.00    +0.000 A 
ATOM     14  C   UNL     1      -0.476  15.160  20.419  0.00  0.00    +0.000 A 
ATOM     15  C   UNL     1       0.194  15.834  19.374  0.00  0.00    +0.000 A 
ATOM     16  C   UNL     1       1.492  15.455  19.023  0.00  0.00    +0.000 A 
ATOM     17  C   UNL     1       2.117  14.411  19.709  0.00  0.00    +0.000 A 
ATOM     18  C   UNL     1       1.447  13.741  20.722  0.00  0.00    +0.000 A 
ATOM     19  O   UNL     1       3.383  14.059  19.370  0.00  0.00    +0.000 OA
ATOM     20  C   UNL     1       4.176  14.923  18.635  0.00  0.00    +0.000 C 
ATOM     21  C   UNL     1       3.335  15.508  17.495  0.00  0.00    +0.000 C 
ATOM     22  O   UNL     1       2.175  16.071  18.022  0.00  0.00    +0.000 OA
ENDBRANCH   8  13
BRANCH   1  24
ATOM     23  C   UNL     1      -2.814   9.785  14.088  0.00  0.00    +0.000 C 
ATOM     24  C   UNL     1      -3.668  10.629  15.038  0.00  0.00    +0.000 C 
ENDBRANCH   1  24
BRANCH   7  25
ATOM     25  C   UNL     1      -2.354  11.970  23.248  0.00  0.00    +0.000 C 
BRANCH  25  26
ATOM     26  C   UNL     1      -3.723  12.624  23.541  0.00  0.00    +0.000 C 
BRANCH  26  27
ATOM     27  C   UNL     1      -3.769  13.407  24.859  0.00  0.00    +0.000 C 
BRANCH  27  28
ATOM     28  N   UNL     1      -3.805  14.872  24.621  0.00  0.00    +0.000 NA
ATOM     29  C   UNL     1      -2.629  15.567  25.179  0.00  0.00    +0.000 C 
ATOM     30  C   UNL     1      -3.897  15.147  23.180  0.00  0.00    +0.000 C 
ENDBRANCH  27  28
ENDBRANCH  26  27
ENDBRANCH  25  26
ENDBRANCH   7  25
TORSDOF 6
ENDMDL
MODEL 5
REMARK VINA RESULT:      -6.3      4.838      8.017
REMARK  Name = 
REMARK  9 active torsions:
REMARK  status: ('A' for Active; 'I' for Inactive)
REMARK    1  A    between atoms: C_1  and  C_2
REMARK    2  A    between atoms: C_2  and  C_3
REMARK    3  A    between atoms: N_9  and  C_10
REMARK    4  A    between atoms: C_10  and  C_11
REMARK    5  A    between atoms: C_11  and  C_12
REMARK    6  A    between atoms: C_12  and  N_13
REMARK    7  A    between atoms: N_13  and  C_14
REMARK    8  A    between atoms: N_13  and  C_15
REMARK    9  A    between atoms: C_16  and  C_18
REMARK                            x       y       z     vdW  Elec       q    Type
REMARK                         _______ _______ _______ _____ _____    ______ ____
ROOT
ATOM      1  C   UNL     1      -3.347  12.435  23.131  0.00  0.00    +0.000 A 
ATOM      2  C   UNL     1      -3.885  12.975  21.936  0.00  0.00    +0.000 A 
ATOM      3  C   UNL     1      -3.182  12.858  20.724  0.00  0.00    +0.000 A 
ATOM      4  C   UNL     1      -1.963  12.182  20.722  0.00  0.00    +0.000 A 
ATOM      5  N   UNL     1      -1.172  12.030  19.636  0.00  0.00    +0.000 NA
ATOM      6  C   UNL     1      -0.069  11.312  19.953  0.00  0.00    +0.000 A 
ATOM      7  N   UNL     1       0.957  11.047  19.006  0.00  0.00    +0.000 N 
ATOM      8  C   UNL     1       1.840  12.045  18.619  0.00  0.00    +0.000 C 
ATOM      9  O   UNL     1       2.584  11.823  17.672  0.00  0.00    +0.000 OA
ATOM     10  S   UNL     1      -0.040  10.793  21.573  0.00  0.00    +0.000 S 
ATOM     11  C   UNL     1      -1.470  11.614  21.884  0.00  0.00    +0.000 A 
ATOM     12  C   UNL     1      -2.119  11.749  23.096  0.00  0.00    +0.000 A 
ENDROOT
BRANCH   8  13
ATOM     13  C   UNL     1       1.947  13.415  19.268  0.00  0.00    +0.000 A 
ATOM     14  C   UNL     1       2.703  13.561  20.453  0.00  0.00    +0.000 A 
ATOM     15  C   UNL     1       2.835  14.818  21.084  0.00  0.00    +0.000 A 
ATOM     16  C   UNL     1       2.209  15.940  20.537  0.00  0.00    +0.000 A 
ATOM     17  C   UNL     1       1.453  15.809  19.369  0.00  0.00    +0.000 A 
ATOM     18  C   UNL     1       1.312  14.569  18.764  0.00  0.00    +0.000 A 
ATOM     19  O   UNL     1       0.859  16.907  18.837  0.00  0.00    +0.000 OA
ATOM     20  C   UNL     1       1.274  18.175  19.207  0.00  0.00    +0.000 C 
ATOM     21  C   UNL     1       1.456  18.204  20.728  0.00  0.00    +0.000 C 
ATOM     22  O   UNL     1       2.304  17.169  21.111  0.00  0.00    +0.000 OA
ENDBRANCH   8  13
BRANCH   1  24
ATOM     23  C   UNL     1      -5.538  12.957  24.195  0.00  0.00    +0.000 C 
ATOM     24  C   UNL     1      -4.076  12.575  24.437  0.00  0.00    +0.000 C 
ENDBRANCH   1  24
BRANCH   7  25
ATOM     25  C   UNL     1       0.977   9.743  18.323  0.00  0.00    +0.000 C 
BRANCH  25  26
ATOM     26  C   UNL     1       1.834   8.684  19.055  0.00  0.00    +0.000 C 
BRANCH  26  27
ATOM     27  C   UNL     1       2.582   7.732  18.115  0.00  0.00    +0.000 C 
BRANCH  27  28
ATOM     28  N   UNL     1       2.600   6.346  18.645  0.00  0.00    +0.000 NA
ATOM     29  C   UNL     1       3.915   5.694  18.492  0.00  0.00    +0.000 C 
ATOM     30  C   UNL     1       2.217   6.343  20.065  0.00  0.00    +0.000 C 
ENDBRANCH  27  28
ENDBRANCH  26  27
ENDBRANCH  25  26
ENDBRANCH   7  25
TORSDOF 6
ENDMDL
MODEL 6
REMARK VINA RESULT:      -6.3      4.698      7.940
REMARK  Name = 
REMARK  9 active torsions:
REMARK  status: ('A' for Active; 'I' for Inactive)
REMARK    1  A    between atoms: C_1  and  C_2
REMARK    2  A    between atoms: C_2  and  C_3
REMARK    3  A    between atoms: N_9  and  C_10
REMARK    4  A    between atoms: C_10  and  C_11
REMARK    5  A    between atoms: C_11  and  C_12
REMARK    6  A    between atoms: C_12  and  N_13
REMARK    7  A    between atoms: N_13  and  C_14
REMARK    8  A    between atoms: N_13  and  C_15
REMARK    9  A    between atoms: C_16  and  C_18
REMARK                            x       y       z     vdW  Elec       q    Type
REMARK                         _______ _______ _______ _____ _____    ______ ____
ROOT
ATOM      1  C   UNL     1      -3.368  12.507  23.129  0.00  0.00    +0.000 A 
ATOM      2  C   UNL     1      -3.864  13.100  21.942  0.00  0.00    +0.000 A 
ATOM      3  C   UNL     1      -3.147  12.987  20.738  0.00  0.00    +0.000 A 
ATOM      4  C   UNL     1      -1.957  12.261  20.735  0.00  0.00    +0.000 A 
ATOM      5  N   UNL     1      -1.155  12.106  19.658  0.00  0.00    +0.000 NA
ATOM      6  C   UNL     1      -0.086  11.336  19.972  0.00  0.00    +0.000 A 
ATOM      7  N   UNL     1       0.943  11.054  19.033  0.00  0.00    +0.000 N 
ATOM      8  C   UNL     1       1.871  12.026  18.687  0.00  0.00    +0.000 C 
ATOM      9  O   UNL     1       2.621  11.799  17.745  0.00  0.00    +0.000 OA
ATOM     10  S   UNL     1      -0.105  10.774  21.578  0.00  0.00    +0.000 S 
ATOM     11  C   UNL     1      -1.505  11.643  21.889  0.00  0.00    +0.000 A 
ATOM     12  C   UNL     1      -2.168  11.772  23.094  0.00  0.00    +0.000 A 
ENDROOT
BRANCH   8  13
ATOM     13  C   UNL     1       2.023  13.373  19.375  0.00  0.00    +0.000 A 
ATOM     14  C   UNL     1       1.559  14.537  18.722  0.00  0.00    +0.000 A 
ATOM     15  C   UNL     1       1.672  15.808  19.329  0.00  0.00    +0.000 A 
ATOM     16  C   UNL     1       2.255  15.926  20.592  0.00  0.00    +0.000 A 
ATOM     17  C   UNL     1       2.724  14.783  21.246  0.00  0.00    +0.000 A 
ATOM     18  C   UNL     1       2.627  13.541  20.638  0.00  0.00    +0.000 A 
ATOM     19  O   UNL     1       3.277  14.905  22.480  0.00  0.00    +0.000 OA
ATOM     20  C   UNL     1       3.060  16.046  23.234  0.00  0.00    +0.000 C 
ATOM     21  C   UNL     1       3.218  17.269  22.324  0.00  0.00    +0.000 C 
ATOM     22  O   UNL     1       2.390  17.127  21.214  0.00  0.00    +0.000 OA
ENDBRANCH   8  13
BRANCH   1  24
ATOM     23  C   UNL     1      -5.606  12.846  24.169  0.00  0.00    +0.000 C 
ATOM     24  C   UNL     1      -4.111  12.641  24.428  0.00  0.00    +0.000 C 
ENDBRANCH   1  24
BRANCH   7  25
ATOM     25  C   UNL     1       0.922   9.770  18.316  0.00  0.00    +0.000 C 
BRANCH  25  26
ATOM     26  C   UNL     1       1.839   8.700  18.952  0.00  0.00    +0.000 C 
BRANCH  26  27
ATOM     27  C   UNL     1       2.553   7.806  17.932  0.00  0.00    +0.000 C 
BRANCH  27  28
ATOM     28  N   UNL     1       3.268   6.687  18.594  0.00  0.00    +0.000 NA
ATOM     29  C   UNL     1       2.351   5.726  19.236  0.00  0.00    +0.000 C 
ATOM     30  C   UNL     1       4.112   5.981  17.620  0.00  0.00    +0.000 C 
ENDBRANCH  27  28
ENDBRANCH  26  27
ENDBRANCH  25  26
ENDBRANCH   7  25
TORSDOF 6
ENDMDL
MODEL 7
REMARK VINA RESULT:      -6.2      7.252     10.102
REMARK  Name = 
REMARK  9 active torsions:
REMARK  status: ('A' for Active; 'I' for Inactive)
REMARK    1  A    between atoms: C_1  and  C_2
REMARK    2  A    between atoms: C_2  and  C_3
REMARK    3  A    between atoms: N_9  and  C_10
REMARK    4  A    between atoms: C_10  and  C_11
REMARK    5  A    between atoms: C_11  and  C_12
REMARK    6  A    between atoms: C_12  and  N_13
REMARK    7  A    between atoms: N_13  and  C_14
REMARK    8  A    between atoms: N_13  and  C_15
REMARK    9  A    between atoms: C_16  and  C_18
REMARK                            x       y       z     vdW  Elec       q    Type
REMARK                         _______ _______ _______ _____ _____    ______ ____
ROOT
ATOM      1  C   UNL     1      -2.047  10.369  17.188  0.00  0.00    +0.000 A 
ATOM      2  C   UNL     1      -0.941   9.734  17.805  0.00  0.00    +0.000 A 
ATOM      3  C   UNL     1      -0.469  10.183  19.051  0.00  0.00    +0.000 A 
ATOM      4  C   UNL     1      -1.126  11.245  19.670  0.00  0.00    +0.000 A 
ATOM      5  N   UNL     1      -0.754  11.796  20.848  0.00  0.00    +0.000 NA
ATOM      6  C   UNL     1      -1.602  12.795  21.190  0.00  0.00    +0.000 A 
ATOM      7  N   UNL     1      -1.412  13.577  22.362  0.00  0.00    +0.000 N 
ATOM      8  C   UNL     1      -0.415  14.540  22.417  0.00  0.00    +0.000 C 
ATOM      9  O   UNL     1      -0.170  15.057  23.500  0.00  0.00    +0.000 OA
ATOM     10  S   UNL     1      -2.873  13.014  20.082  0.00  0.00    +0.000 S 
ATOM     11  C   UNL     1      -2.236  11.827  19.083  0.00  0.00    +0.000 A 
ATOM     12  C   UNL     1      -2.697  11.433  17.841  0.00  0.00    +0.000 A 
ENDROOT
BRANCH   8  13
ATOM     13  C   UNL     1       0.424  14.997  21.235  0.00  0.00    +0.000 A 
ATOM     14  C   UNL     1      -0.064  16.025  20.398  0.00  0.00    +0.000 A 
ATOM     15  C   UNL     1       0.687  16.486  19.293  0.00  0.00    +0.000 A 
ATOM     16  C   UNL     1       1.932  15.918  19.014  0.00  0.00    +0.000 A 
ATOM     17  C   UNL     1       2.425  14.896  19.830  0.00  0.00    +0.000 A 
ATOM     18  C   UNL     1       1.674  14.436  20.902  0.00  0.00    +0.000 A 
ATOM     19  O   UNL     1       3.641  14.360  19.560  0.00  0.00    +0.000 OA
ATOM     20  C   UNL     1       4.536  15.031  18.743  0.00  0.00    +0.000 C 
ATOM     21  C   UNL     1       3.776  15.571  17.527  0.00  0.00    +0.000 C 
ATOM     22  O   UNL     1       2.689  16.325  17.961  0.00  0.00    +0.000 OA
ENDBRANCH   8  13
BRANCH   1  24
ATOM     23  C   UNL     1      -3.796  10.702  15.446  0.00  0.00    +0.000 C 
ATOM     24  C   UNL     1      -2.546   9.915  15.845  0.00  0.00    +0.000 C 
ENDBRANCH   1  24
BRANCH   7  25
ATOM     25  C   UNL     1      -2.185  13.249  23.571  0.00  0.00    +0.000 C 
BRANCH  25  26
ATOM     26  C   UNL     1      -3.482  12.464  23.271  0.00  0.00    +0.000 C 
BRANCH  26  27
ATOM     27  C   UNL     1      -4.648  12.809  24.204  0.00  0.00    +0.000 C 
BRANCH  27  28
ATOM     28  N   UNL     1      -5.813  13.334  23.449  0.00  0.00    +0.000 NA
ATOM     29  C   UNL     1      -5.910  12.769  22.089  0.00  0.00    +0.000 C 
ATOM     30  C   UNL     1      -7.057  13.057  24.183  0.00  0.00    +0.000 C 
ENDBRANCH  27  28
ENDBRANCH  26  27
ENDBRANCH  25  26
ENDBRANCH   7  25
TORSDOF 6
ENDMDL
MODEL 8
REMARK VINA RESULT:      -6.2      7.971     10.647
REMARK  Name = 
REMARK  9 active torsions:
REMARK  status: ('A' for Active; 'I' for Inactive)
REMARK    1  A    between atoms: C_1  and  C_2
REMARK    2  A    between atoms: C_2  and  C_3
REMARK    3  A    between atoms: N_9  and  C_10
REMARK    4  A    between atoms: C_10  and  C_11
REMARK    5  A    between atoms: C_11  and  C_12
REMARK    6  A    between atoms: C_12  and  N_13
REMARK    7  A    between atoms: N_13  and  C_14
REMARK    8  A    between atoms: N_13  and  C_15
REMARK    9  A    between atoms: C_16  and  C_18
REMARK                            x       y       z     vdW  Elec       q    Type
REMARK                         _______ _______ _______ _____ _____    ______ ____
ROOT
ATOM      1  C   UNL     1      -3.101  10.854  16.736  0.00  0.00    +0.000 A 
ATOM      2  C   UNL     1      -1.907  10.181  17.095  0.00  0.00    +0.000 A 
ATOM      3  C   UNL     1      -1.321  10.396  18.354  0.00  0.00    +0.000 A 
ATOM      4  C   UNL     1      -1.952  11.264  19.245  0.00  0.00    +0.000 A 
ATOM      5  N   UNL     1      -1.477  11.585  20.469  0.00  0.00    +0.000 NA
ATOM      6  C   UNL     1      -2.326  12.435  21.095  0.00  0.00    +0.000 A 
ATOM      7  N   UNL     1      -2.043  12.972  22.381  0.00  0.00    +0.000 N 
ATOM      8  C   UNL     1      -1.089  13.967  22.539  0.00  0.00    +0.000 C 
ATOM      9  O   UNL     1      -0.750  14.266  23.677  0.00  0.00    +0.000 OA
ATOM     10  S   UNL     1      -3.720  12.791  20.189  0.00  0.00    +0.000 S 
ATOM     11  C   UNL     1      -3.145  11.878  18.905  0.00  0.00    +0.000 A 
ATOM     12  C   UNL     1      -3.721  11.716  17.660  0.00  0.00    +0.000 A 
ENDROOT
BRANCH   8  13
ATOM     13  C   UNL     1      -0.407  14.710  21.403  0.00  0.00    +0.000 A 
ATOM     14  C   UNL     1      -1.157  15.619  20.623  0.00  0.00    +0.000 A 
ATOM     15  C   UNL     1      -0.560  16.337  19.563  0.00  0.00    +0.000 A 
ATOM     16  C   UNL     1       0.793  16.149  19.270  0.00  0.00    +0.000 A 
ATOM     17  C   UNL     1       1.545  15.248  20.029  0.00  0.00    +0.000 A 
ATOM     18  C   UNL     1       0.949  14.533  21.057  0.00  0.00    +0.000 A 
ATOM     19  O   UNL     1       2.862  15.081  19.747  0.00  0.00    +0.000 OA
ATOM     20  C   UNL     1       3.540  16.021  18.990  0.00  0.00    +0.000 C 
ATOM     21  C   UNL     1       2.662  16.413  17.797  0.00  0.00    +0.000 C 
ATOM     22  O   UNL     1       1.411  16.814  18.258  0.00  0.00    +0.000 OA
ENDBRANCH   8  13
BRANCH   1  24
ATOM     23  C   UNL     1      -2.776   9.872  14.470  0.00  0.00    +0.000 C 
ATOM     24  C   UNL     1      -3.724  10.652  15.384  0.00  0.00    +0.000 C 
ENDBRANCH   1  24
BRANCH   7  25
ATOM     25  C   UNL     1      -2.663  12.354  23.564  0.00  0.00    +0.000 C 
BRANCH  25  26
ATOM     26  C   UNL     1      -3.813  13.197  24.161  0.00  0.00    +0.000 C 
BRANCH  26  27
ATOM     27  C   UNL     1      -5.192  12.870  23.577  0.00  0.00    +0.000 C 
BRANCH  27  28
ATOM     28  N   UNL     1      -6.143  13.994  23.762  0.00  0.00    +0.000 NA
ATOM     29  C   UNL     1      -6.304  14.809  22.542  0.00  0.00    +0.000 C 
ATOM     30  C   UNL     1      -7.455  13.481  24.183  0.00  0.00    +0.000 C 
ENDBRANCH  27  28
ENDBRANCH  26  27
ENDBRANCH  25  26
ENDBRANCH   7  25
TORSDOF 6
ENDMDL
MODEL 9
REMARK VINA RESULT:      -6.2      5.716      9.685
REMARK  Name = 
REMARK  9 active torsions:
REMARK  status: ('A' for Active; 'I' for Inactive)
REMARK    1  A    between atoms: C_1  and  C_2
REMARK    2  A    between atoms: C_2  and  C_3
REMARK    3  A    between atoms: N_9  and  C_10
REMARK    4  A    between atoms: C_10  and  C_11
REMARK    5  A    between atoms: C_11  and  C_12
REMARK    6  A    between atoms: C_12  and  N_13
REMARK    7  A    between atoms: N_13  and  C_14
REMARK    8  A    between atoms: N_13  and  C_15
REMARK    9  A    between atoms: C_16  and  C_18
REMARK                            x       y       z     vdW  Elec       q    Type
REMARK                         _______ _______ _______ _____ _____    ______ ____
ROOT
ATOM      1  C   UNL     1       1.621   8.511  18.830  0.00  0.00    +0.000 A 
ATOM      2  C   UNL     1       1.625   8.482  20.247  0.00  0.00    +0.000 A 
ATOM      3  C   UNL     1       0.863   9.409  20.979  0.00  0.00    +0.000 A 
ATOM      4  C   UNL     1       0.090  10.336  20.281  0.00  0.00    +0.000 A 
ATOM      5  N   UNL     1      -0.658  11.303  20.860  0.00  0.00    +0.000 NA
ATOM      6  C   UNL     1      -1.303  12.029  19.916  0.00  0.00    +0.000 A 
ATOM      7  N   UNL     1      -2.121  13.142  20.250  0.00  0.00    +0.000 N 
ATOM      8  C   UNL     1      -1.554  14.345  20.644  0.00  0.00    +0.000 C 
ATOM      9  O   UNL     1      -2.292  15.212  21.095  0.00  0.00    +0.000 OA
ATOM     10  S   UNL     1      -1.018  11.484  18.330  0.00  0.00    +0.000 S 
ATOM     11  C   UNL     1       0.054  10.325  18.897  0.00  0.00    +0.000 A 
ATOM     12  C   UNL     1       0.823   9.452  18.153  0.00  0.00    +0.000 A 
ENDROOT
BRANCH   8  13
ATOM     13  C   UNL     1      -0.071  14.673  20.581  0.00  0.00    +0.000 A 
ATOM     14  C   UNL     1       0.498  15.066  19.349  0.00  0.00    +0.000 A 
ATOM     15  C   UNL     1       1.869  15.388  19.247  0.00  0.00    +0.000 A 
ATOM     16  C   UNL     1       2.686  15.316  20.379  0.00  0.00    +0.000 A 
ATOM     17  C   UNL     1       2.138  14.922  21.602  0.00  0.00    +0.000 A 
ATOM     18  C   UNL     1       0.794  14.590  21.692  0.00  0.00    +0.000 A 
ATOM     19  O   UNL     1       2.935  14.868  22.699  0.00  0.00    +0.000 OA
ATOM     20  C   UNL     1       4.154  15.524  22.711  0.00  0.00    +0.000 C 
ATOM     21  C   UNL     1       4.862  15.264  21.376  0.00  0.00    +0.000 C 
ATOM     22  O   UNL     1       4.012  15.612  20.330  0.00  0.00    +0.000 OA
ENDBRANCH   8  13
BRANCH   1  24
ATOM     23  C   UNL     1       2.950   6.407  18.934  0.00  0.00    +0.000 C 
ATOM     24  C   UNL     1       2.450   7.541  18.037  0.00  0.00    +0.000 C 
ENDBRANCH   1  24
BRANCH   7  25
ATOM     25  C   UNL     1      -3.580  12.959  20.321  0.00  0.00    +0.000 C 
BRANCH  25  26
ATOM     26  C   UNL     1      -4.087  12.653  21.748  0.00  0.00    +0.000 C 
BRANCH  26  27
ATOM     27  C   UNL     1      -5.463  13.255  22.062  0.00  0.00    +0.000 C 
BRANCH  27  28
ATOM     28  N   UNL     1      -6.398  12.230  22.588  0.00  0.00    +0.000 NA
ATOM     29  C   UNL     1      -6.901  12.558  23.936  0.00  0.00    +0.000 C 
ATOM     30  C   UNL     1      -7.534  12.065  21.670  0.00  0.00    +0.000 C 
ENDBRANCH  27  28
ENDBRANCH  26  27
ENDBRANCH  25  26
ENDBRANCH   7  25
TORSDOF 6
ENDMDL
