MODEL 1
REMARK VINA RESULT:      -7.7      0.000      0.000
REMARK  Name = 
REMARK  4 active torsions:
REMARK  status: ('A' for Active; 'I' for Inactive)
REMARK    1  A    between atoms: C_1  and  N_2
REMARK    2  A    between atoms: C_5  and  N_6
REMARK    3  A    between atoms: C_11  and  N_12
REMARK    4  A    between atoms: C_13  and  C_15
REMARK                            x       y       z     vdW  Elec       q    Type
REMARK                         _______ _______ _______ _____ _____    ______ ____
ROOT
ATOM      1  N   UNL     1       3.760   4.313  19.190  0.00  0.00    +0.000 N 
ATOM      2  C   UNL     1       3.409   3.403  20.264  0.00  0.00    +0.000 C 
ATOM      3  C   UNL     1       2.245   4.080  21.034  0.00  0.00    +0.000 C 
ATOM      4  C   UNL     1       2.163   5.434  20.414  0.00  0.00    +0.000 A 
ATOM      5  C   UNL     1       1.365   6.525  20.799  0.00  0.00    +0.000 A 
ATOM      6  C   UNL     1       1.427   7.732  20.056  0.00  0.00    +0.000 A 
ATOM      7  C   UNL     1       2.218   7.741  18.880  0.00  0.00    +0.000 A 
ATOM      8  C   UNL     1       3.014   6.647  18.529  0.00  0.00    +0.000 A 
ATOM      9  C   UNL     1       2.998   5.502  19.329  0.00  0.00    +0.000 A 
ENDROOT
BRANCH   1  14
ATOM     10  C   UNL     1       7.472   4.886  14.907  0.00  0.00    +0.000 C 
ATOM     11  N   UNL     1       6.441   4.936  15.956  0.00  0.00    +0.000 NA
ATOM     12  C   UNL     1       5.516   3.794  15.816  0.00  0.00    +0.000 C 
ATOM     13  C   UNL     1       4.347   3.949  16.796  0.00  0.00    +0.000 C 
ATOM     14  C   UNL     1       4.857   4.046  18.248  0.00  0.00    +0.000 C 
ATOM     15  C   UNL     1       5.975   5.102  18.380  0.00  0.00    +0.000 C 
ATOM     16  C   UNL     1       7.058   4.917  17.299  0.00  0.00    +0.000 C 
ENDBRANCH   1  14
BRANCH   6  17
ATOM     17  N   UNL     1       0.707   8.887  20.513  0.00  0.00    +0.000 N 
ATOM     18  C   UNL     1       0.969   9.669  21.704  0.00  0.00    +0.000 C 
ATOM     19  N   UNL     1       1.813   9.307  22.608  0.00  0.00    +0.000 NA
ATOM     20  H   UNL     1      -0.165   9.105  20.012  0.00  0.00    +0.000 HD
ATOM     21  H   UNL     1       2.386   8.462  22.614  0.00  0.00    +0.000 HD
BRANCH  18  22
ATOM     22  C   UNL     1       0.140  10.855  22.039  0.00  0.00    +0.000 A 
ATOM     23  C   UNL     1      -0.886  10.859  22.988  0.00  0.00    +0.000 A 
ATOM     24  C   UNL     1      -1.566  12.077  23.077  0.00  0.00    +0.000 A 
ATOM     25  C   UNL     1      -1.082  13.041  22.203  0.00  0.00    +0.000 A 
ATOM     26  S   UNL     1       0.196  12.379  21.325  0.00  0.00    +0.000 S 
ENDBRANCH  18  22
ENDBRANCH   6  17
TORSDOF 3
ENDMDL
MODEL 2
REMARK VINA RESULT:      -7.6      2.122      3.793
REMARK  Name = 
REMARK  4 active torsions:
REMARK  status: ('A' for Active; 'I' for Inactive)
REMARK    1  A    between atoms: C_1  and  N_2
REMARK    2  A    between atoms: C_5  and  N_6
REMARK    3  A    between atoms: C_11  and  N_12
REMARK    4  A    between atoms: C_13  and  C_15
REMARK                            x       y       z     vdW  Elec       q    Type
REMARK                         _______ _______ _______ _____ _____    ______ ____
ROOT
ATOM      1  N   UNL     1       2.459   7.403  18.872  0.00  0.00    +0.000 N 
ATOM      2  C   UNL     1       2.418   8.105  17.603  0.00  0.00    +0.000 C 
ATOM      3  C   UNL     1       1.711   9.457  17.886  0.00  0.00    +0.000 C 
ATOM      4  C   UNL     1       1.243   9.312  19.295  0.00  0.00    +0.000 A 
ATOM      5  C   UNL     1       0.433  10.186  20.040  0.00  0.00    +0.000 A 
ATOM      6  C   UNL     1       0.114   9.867  21.385  0.00  0.00    +0.000 A 
ATOM      7  C   UNL     1       0.728   8.722  21.952  0.00  0.00    +0.000 A 
ATOM      8  C   UNL     1       1.518   7.862  21.184  0.00  0.00    +0.000 A 
ATOM      9  C   UNL     1       1.744   8.158  19.837  0.00  0.00    +0.000 A 
ENDROOT
BRANCH   1  14
ATOM     10  C   UNL     1       3.482   1.855  18.079  0.00  0.00    +0.000 C 
ATOM     11  N   UNL     1       3.080   3.270  18.115  0.00  0.00    +0.000 NA
ATOM     12  C   UNL     1       2.521   3.607  19.439  0.00  0.00    +0.000 C 
ATOM     13  C   UNL     1       1.943   5.027  19.414  0.00  0.00    +0.000 C 
ATOM     14  C   UNL     1       3.023   6.053  19.016  0.00  0.00    +0.000 C 
ATOM     15  C   UNL     1       3.765   5.617  17.734  0.00  0.00    +0.000 C 
ATOM     16  C   UNL     1       4.231   4.151  17.821  0.00  0.00    +0.000 C 
ENDBRANCH   1  14
BRANCH   6  17
ATOM     17  N   UNL     1      -0.809  10.690  22.114  0.00  0.00    +0.000 N 
ATOM     18  C   UNL     1      -0.721  12.120  22.334  0.00  0.00    +0.000 C 
ATOM     19  N   UNL     1       0.318  12.815  22.023  0.00  0.00    +0.000 NA
ATOM     20  H   UNL     1      -1.538  10.195  22.645  0.00  0.00    +0.000 HD
ATOM     21  H   UNL     1       1.183  12.475  21.600  0.00  0.00    +0.000 HD
BRANCH  18  22
ATOM     22  C   UNL     1      -1.768  12.842  23.103  0.00  0.00    +0.000 A 
ATOM     23  C   UNL     1      -3.041  12.333  23.373  0.00  0.00    +0.000 A 
ATOM     24  C   UNL     1      -3.870  13.226  24.057  0.00  0.00    +0.000 A 
ATOM     25  C   UNL     1      -3.261  14.442  24.331  0.00  0.00    +0.000 A 
ATOM     26  S   UNL     1      -1.687  14.403  23.728  0.00  0.00    +0.000 S 
ENDBRANCH  18  22
ENDBRANCH   6  17
TORSDOF 3
ENDMDL
MODEL 3
REMARK VINA RESULT:      -7.5      2.232      3.513
REMARK  Name = 
REMARK  4 active torsions:
REMARK  status: ('A' for Active; 'I' for Inactive)
REMARK    1  A    between atoms: C_1  and  N_2
REMARK    2  A    between atoms: C_5  and  N_6
REMARK    3  A    between atoms: C_11  and  N_12
REMARK    4  A    between atoms: C_13  and  C_15
REMARK                            x       y       z     vdW  Elec       q    Type
REMARK                         _______ _______ _______ _____ _____    ______ ____
ROOT
ATOM      1  N   UNL     1       2.691   6.798  18.997  0.00  0.00    +0.000 N 
ATOM      2  C   UNL     1       3.105   7.384  17.736  0.00  0.00    +0.000 C 
ATOM      3  C   UNL     1       2.564   8.838  17.742  0.00  0.00    +0.000 C 
ATOM      4  C   UNL     1       1.713   8.883  18.967  0.00  0.00    +0.000 A 
ATOM      5  C   UNL     1       0.874   9.920  19.410  0.00  0.00    +0.000 A 
ATOM      6  C   UNL     1       0.155   9.767  20.623  0.00  0.00    +0.000 A 
ATOM      7  C   UNL     1       0.409   8.605  21.395  0.00  0.00    +0.000 A 
ATOM      8  C   UNL     1       1.236   7.583  20.923  0.00  0.00    +0.000 A 
ATOM      9  C   UNL     1       1.864   7.725  19.683  0.00  0.00    +0.000 A 
ENDROOT
BRANCH   1  14
ATOM     10  C   UNL     1       3.828   1.230  18.597  0.00  0.00    +0.000 C 
ATOM     11  N   UNL     1       3.542   2.669  18.482  0.00  0.00    +0.000 NA
ATOM     12  C   UNL     1       2.256   2.986  19.133  0.00  0.00    +0.000 C 
ATOM     13  C   UNL     1       1.879   4.447  18.856  0.00  0.00    +0.000 C 
ATOM     14  C   UNL     1       2.979   5.403  19.358  0.00  0.00    +0.000 C 
ATOM     15  C   UNL     1       4.372   4.971  18.851  0.00  0.00    +0.000 C 
ATOM     16  C   UNL     1       4.622   3.470  19.097  0.00  0.00    +0.000 C 
ENDBRANCH   1  14
BRANCH   6  17
ATOM     17  N   UNL     1      -0.793  10.768  21.021  0.00  0.00    +0.000 N 
ATOM     18  C   UNL     1      -1.024  11.273  22.360  0.00  0.00    +0.000 C 
ATOM     19  N   UNL     1      -0.495  10.745  23.409  0.00  0.00    +0.000 NA
ATOM     20  H   UNL     1      -1.468  11.065  20.303  0.00  0.00    +0.000 HD
ATOM     21  H   UNL     1       0.130   9.939  23.445  0.00  0.00    +0.000 HD
BRANCH  18  22
ATOM     22  C   UNL     1      -2.039  12.329  22.615  0.00  0.00    +0.000 A 
ATOM     23  C   UNL     1      -3.079  12.217  23.540  0.00  0.00    +0.000 A 
ATOM     24  C   UNL     1      -3.943  13.315  23.551  0.00  0.00    +0.000 A 
ATOM     25  C   UNL     1      -3.592  14.299  22.638  0.00  0.00    +0.000 A 
ATOM     26  S   UNL     1      -2.201  13.806  21.822  0.00  0.00    +0.000 S 
ENDBRANCH  18  22
ENDBRANCH   6  17
TORSDOF 3
ENDMDL
MODEL 4
REMARK VINA RESULT:      -7.5      0.769      1.064
REMARK  Name = 
REMARK  4 active torsions:
REMARK  status: ('A' for Active; 'I' for Inactive)
REMARK    1  A    between atoms: C_1  and  N_2
REMARK    2  A    between atoms: C_5  and  N_6
REMARK    3  A    between atoms: C_11  and  N_12
REMARK    4  A    between atoms: C_13  and  C_15
REMARK                            x       y       z     vdW  Elec       q    Type
REMARK                         _______ _______ _______ _____ _____    ______ ____
ROOT
ATOM      1  N   UNL     1       3.361   4.311  19.249  0.00  0.00    +0.000 N 
ATOM      2  C   UNL     1       2.886   3.351  20.227  0.00  0.00    +0.000 C 
ATOM      3  C   UNL     1       1.813   4.091  21.068  0.00  0.00    +0.000 C 
ATOM      4  C   UNL     1       1.913   5.501  20.588  0.00  0.00    +0.000 A 
ATOM      5  C   UNL     1       1.259   6.641  21.086  0.00  0.00    +0.000 A 
ATOM      6  C   UNL     1       1.482   7.899  20.469  0.00  0.00    +0.000 A 
ATOM      7  C   UNL     1       2.278   7.924  19.296  0.00  0.00    +0.000 A 
ATOM      8  C   UNL     1       2.929   6.777  18.832  0.00  0.00    +0.000 A 
ATOM      9  C   UNL     1       2.757   5.569  19.511  0.00  0.00    +0.000 A 
ENDROOT
BRANCH   1  14
ATOM     10  C   UNL     1       7.209   4.853  15.083  0.00  0.00    +0.000 C 
ATOM     11  N   UNL     1       6.176   4.926  16.130  0.00  0.00    +0.000 NA
ATOM     12  C   UNL     1       5.086   3.976  15.836  0.00  0.00    +0.000 C 
ATOM     13  C   UNL     1       3.935   4.183  16.828  0.00  0.00    +0.000 C 
ATOM     14  C   UNL     1       4.421   4.002  18.280  0.00  0.00    +0.000 C 
ATOM     15  C   UNL     1       5.690   4.837  18.554  0.00  0.00    +0.000 C 
ATOM     16  C   UNL     1       6.753   4.628  17.458  0.00  0.00    +0.000 C 
ENDBRANCH   1  14
BRANCH   6  17
ATOM     17  N   UNL     1       0.914   9.085  21.044  0.00  0.00    +0.000 N 
ATOM     18  C   UNL     1      -0.081   9.956  20.451  0.00  0.00    +0.000 C 
ATOM     19  N   UNL     1      -0.468   9.846  19.226  0.00  0.00    +0.000 NA
ATOM     20  H   UNL     1       1.353   9.425  21.909  0.00  0.00    +0.000 HD
ATOM     21  H   UNL     1      -0.144   9.168  18.536  0.00  0.00    +0.000 HD
BRANCH  18  22
ATOM     22  C   UNL     1      -0.587  11.148  21.179  0.00  0.00    +0.000 A 
ATOM     23  C   UNL     1      -0.809  11.196  22.557  0.00  0.00    +0.000 A 
ATOM     24  C   UNL     1      -1.350  12.407  22.998  0.00  0.00    +0.000 A 
ATOM     25  C   UNL     1      -1.556  13.321  21.976  0.00  0.00    +0.000 A 
ATOM     26  S   UNL     1      -1.060  12.625  20.522  0.00  0.00    +0.000 S 
ENDBRANCH  18  22
ENDBRANCH   6  17
TORSDOF 3
ENDMDL
MODEL 5
REMARK VINA RESULT:      -7.3      1.031      1.308
REMARK  Name = 
REMARK  4 active torsions:
REMARK  status: ('A' for Active; 'I' for Inactive)
REMARK    1  A    between atoms: C_1  and  N_2
REMARK    2  A    between atoms: C_5  and  N_6
REMARK    3  A    between atoms: C_11  and  N_12
REMARK    4  A    between atoms: C_13  and  C_15
REMARK                            x       y       z     vdW  Elec       q    Type
REMARK                         _______ _______ _______ _____ _____    ______ ____
ROOT
ATOM      1  N   UNL     1       4.243   3.794  18.291  0.00  0.00    +0.000 N 
ATOM      2  C   UNL     1       4.013   2.667  19.175  0.00  0.00    +0.000 C 
ATOM      3  C   UNL     1       2.951   3.141  20.203  0.00  0.00    +0.000 C 
ATOM      4  C   UNL     1       2.808   4.595  19.904  0.00  0.00    +0.000 A 
ATOM      5  C   UNL     1       2.068   5.563  20.606  0.00  0.00    +0.000 A 
ATOM      6  C   UNL     1       2.052   6.902  20.141  0.00  0.00    +0.000 A 
ATOM      7  C   UNL     1       2.701   7.180  18.911  0.00  0.00    +0.000 A 
ATOM      8  C   UNL     1       3.443   6.202  18.242  0.00  0.00    +0.000 A 
ATOM      9  C   UNL     1       3.511   4.911  18.771  0.00  0.00    +0.000 A 
ENDROOT
BRANCH   1  14
ATOM     10  C   UNL     1       7.538   5.387  13.926  0.00  0.00    +0.000 C 
ATOM     11  N   UNL     1       6.622   5.185  15.060  0.00  0.00    +0.000 NA
ATOM     12  C   UNL     1       5.617   4.157  14.725  0.00  0.00    +0.000 C 
ATOM     13  C   UNL     1       4.564   4.078  15.837  0.00  0.00    +0.000 C 
ATOM     14  C   UNL     1       5.221   3.757  17.194  0.00  0.00    +0.000 C 
ATOM     15  C   UNL     1       6.413   4.697  17.477  0.00  0.00    +0.000 C 
ATOM     16  C   UNL     1       7.368   4.777  16.270  0.00  0.00    +0.000 C 
ENDBRANCH   1  14
BRANCH   6  17
ATOM     17  N   UNL     1       1.398   7.918  20.916  0.00  0.00    +0.000 N 
ATOM     18  C   UNL     1       0.839   9.165  20.434  0.00  0.00    +0.000 C 
ATOM     19  N   UNL     1       1.014   9.592  19.231  0.00  0.00    +0.000 NA
ATOM     20  H   UNL     1       1.447   7.811  21.938  0.00  0.00    +0.000 HD
ATOM     21  H   UNL     1       1.543   9.138  18.486  0.00  0.00    +0.000 HD
BRANCH  18  22
ATOM     22  C   UNL     1       0.176  10.117  21.363  0.00  0.00    +0.000 A 
ATOM     23  C   UNL     1      -0.510   9.742  22.520  0.00  0.00    +0.000 A 
ATOM     24  C   UNL     1      -1.105  10.813  23.193  0.00  0.00    +0.000 A 
ATOM     25  C   UNL     1      -0.893  12.036  22.575  0.00  0.00    +0.000 A 
ATOM     26  S   UNL     1       0.042  11.787  21.194  0.00  0.00    +0.000 S 
ENDBRANCH  18  22
ENDBRANCH   6  17
TORSDOF 3
ENDMDL
MODEL 6
REMARK VINA RESULT:      -7.3      5.344      7.415
REMARK  Name = 
REMARK  4 active torsions:
REMARK  status: ('A' for Active; 'I' for Inactive)
REMARK    1  A    between atoms: C_1  and  N_2
REMARK    2  A    between atoms: C_5  and  N_6
REMARK    3  A    between atoms: C_11  and  N_12
REMARK    4  A    between atoms: C_13  and  C_15
REMARK                            x       y       z     vdW  Elec       q    Type
REMARK                         _______ _______ _______ _____ _____    ______ ____
ROOT
ATOM      1  N   UNL     1       5.018   4.255  16.973  0.00  0.00    +0.000 N 
ATOM      2  C   UNL     1       5.152   4.365  15.533  0.00  0.00    +0.000 C 
ATOM      3  C   UNL     1       6.376   5.286  15.287  0.00  0.00    +0.000 C 
ATOM      4  C   UNL     1       6.722   5.772  16.655  0.00  0.00    +0.000 A 
ATOM      5  C   UNL     1       7.677   6.734  17.025  0.00  0.00    +0.000 A 
ATOM      6  C   UNL     1       7.862   7.043  18.397  0.00  0.00    +0.000 A 
ATOM      7  C   UNL     1       7.144   6.274  19.347  0.00  0.00    +0.000 A 
ATOM      8  C   UNL     1       6.189   5.334  18.951  0.00  0.00    +0.000 A 
ATOM      9  C   UNL     1       5.967   5.113  17.589  0.00  0.00    +0.000 A 
ENDROOT
BRANCH   1  14
ATOM     10  C   UNL     1       1.015   2.616  20.681  0.00  0.00    +0.000 C 
ATOM     11  N   UNL     1       2.077   3.212  19.855  0.00  0.00    +0.000 NA
ATOM     12  C   UNL     1       3.197   2.262  19.702  0.00  0.00    +0.000 C 
ATOM     13  C   UNL     1       4.370   2.950  18.994  0.00  0.00    +0.000 C 
ATOM     14  C   UNL     1       3.939   3.491  17.616  0.00  0.00    +0.000 C 
ATOM     15  C   UNL     1       2.646   4.328  17.721  0.00  0.00    +0.000 C 
ATOM     16  C   UNL     1       1.558   3.588  18.523  0.00  0.00    +0.000 C 
ENDBRANCH   1  14
BRANCH   6  17
ATOM     17  N   UNL     1       8.748   8.108  18.774  0.00  0.00    +0.000 N 
ATOM     18  C   UNL     1       8.595   9.519  18.484  0.00  0.00    +0.000 C 
ATOM     19  N   UNL     1       7.693   9.977  17.686  0.00  0.00    +0.000 NA
ATOM     20  H   UNL     1       9.650   7.825  19.180  0.00  0.00    +0.000 HD
ATOM     21  H   UNL     1       6.995   9.439  17.171  0.00  0.00    +0.000 HD
BRANCH  18  22
ATOM     22  C   UNL     1       9.595  10.511  18.957  0.00  0.00    +0.000 A 
ATOM     23  C   UNL     1       9.803  10.845  20.298  0.00  0.00    +0.000 A 
ATOM     24  C   UNL     1      10.752  11.853  20.486  0.00  0.00    +0.000 A 
ATOM     25  C   UNL     1      11.301  12.320  19.300  0.00  0.00    +0.000 A 
ATOM     26  S   UNL     1      10.608  11.473  18.017  0.00  0.00    +0.000 S 
ENDBRANCH  18  22
ENDBRANCH   6  17
TORSDOF 3
ENDMDL
MODEL 7
REMARK VINA RESULT:      -7.2      1.309      1.642
REMARK  Name = 
REMARK  4 active torsions:
REMARK  status: ('A' for Active; 'I' for Inactive)
REMARK    1  A    between atoms: C_1  and  N_2
REMARK    2  A    between atoms: C_5  and  N_6
REMARK    3  A    between atoms: C_11  and  N_12
REMARK    4  A    between atoms: C_13  and  C_15
REMARK                            x       y       z     vdW  Elec       q    Type
REMARK                         _______ _______ _______ _____ _____    ______ ____
ROOT
ATOM      1  N   UNL     1       3.712   4.641  19.007  0.00  0.00    +0.000 N 
ATOM      2  C   UNL     1       3.344   3.824  20.148  0.00  0.00    +0.000 C 
ATOM      3  C   UNL     1       2.247   4.617  20.905  0.00  0.00    +0.000 C 
ATOM      4  C   UNL     1       2.223   5.932  20.199  0.00  0.00    +0.000 A 
ATOM      5  C   UNL     1       1.502   7.090  20.534  0.00  0.00    +0.000 A 
ATOM      6  C   UNL     1       1.609   8.241  19.712  0.00  0.00    +0.000 A 
ATOM      7  C   UNL     1       2.361   8.128  18.516  0.00  0.00    +0.000 A 
ATOM      8  C   UNL     1       3.081   6.968  18.215  0.00  0.00    +0.000 A 
ATOM      9  C   UNL     1       3.024   5.879  19.089  0.00  0.00    +0.000 A 
ENDROOT
BRANCH   1  14
ATOM     10  C   UNL     1       7.376   4.758  14.646  0.00  0.00    +0.000 C 
ATOM     11  N   UNL     1       6.375   4.930  15.711  0.00  0.00    +0.000 NA
ATOM     12  C   UNL     1       5.346   3.876  15.618  0.00  0.00    +0.000 C 
ATOM     13  C   UNL     1       4.216   4.163  16.614  0.00  0.00    +0.000 C 
ATOM     14  C   UNL     1       4.761   4.250  18.054  0.00  0.00    +0.000 C 
ATOM     15  C   UNL     1       5.975   5.200  18.138  0.00  0.00    +0.000 C 
ATOM     16  C   UNL     1       7.014   4.888  17.044  0.00  0.00    +0.000 C 
ENDBRANCH   1  14
BRANCH   6  17
ATOM     17  N   UNL     1       0.971   9.464  20.112  0.00  0.00    +0.000 N 
ATOM     18  C   UNL     1       0.054  10.269  19.331  0.00  0.00    +0.000 C 
ATOM     19  N   UNL     1      -0.179  10.054  18.082  0.00  0.00    +0.000 NA
ATOM     20  H   UNL     1       1.300   9.880  20.993  0.00  0.00    +0.000 HD
ATOM     21  H   UNL     1       0.228   9.325  17.496  0.00  0.00    +0.000 HD
BRANCH  18  22
ATOM     22  C   UNL     1      -0.540  11.512  19.890  0.00  0.00    +0.000 A 
ATOM     23  C   UNL     1      -0.007  12.228  20.965  0.00  0.00    +0.000 A 
ATOM     24  C   UNL     1      -0.782  13.325  21.350  0.00  0.00    +0.000 A 
ATOM     25  C   UNL     1      -1.928  13.484  20.584  0.00  0.00    +0.000 A 
ATOM     26  S   UNL     1      -1.973  12.262  19.422  0.00  0.00    +0.000 S 
ENDBRANCH  18  22
ENDBRANCH   6  17
TORSDOF 3
ENDMDL
MODEL 8
REMARK VINA RESULT:      -7.2      1.469      2.026
REMARK  Name = 
REMARK  4 active torsions:
REMARK  status: ('A' for Active; 'I' for Inactive)
REMARK    1  A    between atoms: C_1  and  N_2
REMARK    2  A    between atoms: C_5  and  N_6
REMARK    3  A    between atoms: C_11  and  N_12
REMARK    4  A    between atoms: C_13  and  C_15
REMARK                            x       y       z     vdW  Elec       q    Type
REMARK                         _______ _______ _______ _____ _____    ______ ____
ROOT
ATOM      1  N   UNL     1       2.903   5.787  18.614  0.00  0.00    +0.000 N 
ATOM      2  C   UNL     1       2.882   4.852  19.723  0.00  0.00    +0.000 C 
ATOM      3  C   UNL     1       2.047   5.533  20.840  0.00  0.00    +0.000 C 
ATOM      4  C   UNL     1       1.818   6.908  20.308  0.00  0.00    +0.000 A 
ATOM      5  C   UNL     1       1.221   8.005  20.952  0.00  0.00    +0.000 A 
ATOM      6  C   UNL     1       1.084   9.233  20.256  0.00  0.00    +0.000 A 
ATOM      7  C   UNL     1       1.459   9.260  18.889  0.00  0.00    +0.000 A 
ATOM      8  C   UNL     1       2.064   8.159  18.278  0.00  0.00    +0.000 A 
ATOM      9  C   UNL     1       2.265   6.989  19.016  0.00  0.00    +0.000 A 
ENDROOT
BRANCH   1  14
ATOM     10  C   UNL     1       7.120   4.708  14.939  0.00  0.00    +0.000 C 
ATOM     11  N   UNL     1       6.184   4.974  16.043  0.00  0.00    +0.000 NA
ATOM     12  C   UNL     1       5.510   6.271  15.838  0.00  0.00    +0.000 C 
ATOM     13  C   UNL     1       4.674   6.623  17.075  0.00  0.00    +0.000 C 
ATOM     14  C   UNL     1       3.634   5.523  17.366  0.00  0.00    +0.000 C 
ATOM     15  C   UNL     1       4.287   4.125  17.385  0.00  0.00    +0.000 C 
ATOM     16  C   UNL     1       5.174   3.899  16.146  0.00  0.00    +0.000 C 
ENDBRANCH   1  14
BRANCH   6  17
ATOM     17  N   UNL     1       0.585  10.390  20.944  0.00  0.00    +0.000 N 
ATOM     18  C   UNL     1      -0.615  11.143  20.638  0.00  0.00    +0.000 C 
ATOM     19  N   UNL     1      -1.313  10.945  19.574  0.00  0.00    +0.000 NA
ATOM     20  H   UNL     1       1.213  10.807  21.645  0.00  0.00    +0.000 HD
ATOM     21  H   UNL     1      -1.131  10.266  18.833  0.00  0.00    +0.000 HD
BRANCH  18  22
ATOM     22  C   UNL     1      -1.011  12.319  21.455  0.00  0.00    +0.000 A 
ATOM     23  C   UNL     1      -1.187  12.294  22.841  0.00  0.00    +0.000 A 
ATOM     24  C   UNL     1      -1.625  13.509  23.375  0.00  0.00    +0.000 A 
ATOM     25  C   UNL     1      -1.797  14.499  22.418  0.00  0.00    +0.000 A 
ATOM     26  S   UNL     1      -1.396  13.864  20.908  0.00  0.00    +0.000 S 
ENDBRANCH  18  22
ENDBRANCH   6  17
TORSDOF 3
ENDMDL
MODEL 9
REMARK VINA RESULT:      -7.1      2.405      4.016
REMARK  Name = 
REMARK  4 active torsions:
REMARK  status: ('A' for Active; 'I' for Inactive)
REMARK    1  A    between atoms: C_1  and  N_2
REMARK    2  A    between atoms: C_5  and  N_6
REMARK    3  A    between atoms: C_11  and  N_12
REMARK    4  A    between atoms: C_13  and  C_15
REMARK                            x       y       z     vdW  Elec       q    Type
REMARK                         _______ _______ _______ _____ _____    ______ ____
ROOT
ATOM      1  N   UNL     1       2.527   7.405  19.149  0.00  0.00    +0.000 N 
ATOM      2  C   UNL     1       2.803   7.915  17.819  0.00  0.00    +0.000 C 
ATOM      3  C   UNL     1       2.078   9.283  17.728  0.00  0.00    +0.000 C 
ATOM      4  C   UNL     1       1.286   9.338  18.991  0.00  0.00    +0.000 A 
ATOM      5  C   UNL     1       0.341  10.299  19.388  0.00  0.00    +0.000 A 
ATOM      6  C   UNL     1      -0.295  10.174  20.650  0.00  0.00    +0.000 A 
ATOM      7  C   UNL     1       0.143   9.132  21.506  0.00  0.00    +0.000 A 
ATOM      8  C   UNL     1       1.074   8.181  21.080  0.00  0.00    +0.000 A 
ATOM      9  C   UNL     1       1.619   8.282  19.797  0.00  0.00    +0.000 A 
ENDROOT
BRANCH   1  14
ATOM     10  C   UNL     1       3.997   1.902  19.251  0.00  0.00    +0.000 C 
ATOM     11  N   UNL     1       3.571   3.290  19.013  0.00  0.00    +0.000 NA
ATOM     12  C   UNL     1       2.461   3.644  19.918  0.00  0.00    +0.000 C 
ATOM     13  C   UNL     1       1.906   5.025  19.546  0.00  0.00    +0.000 C 
ATOM     14  C   UNL     1       3.012   6.098  19.615  0.00  0.00    +0.000 C 
ATOM     15  C   UNL     1       4.270   5.658  18.836  0.00  0.00    +0.000 C 
ATOM     16  C   UNL     1       4.698   4.227  19.216  0.00  0.00    +0.000 C 
ENDBRANCH   1  14
BRANCH   6  17
ATOM     17  N   UNL     1      -1.346  11.082  21.012  0.00  0.00    +0.000 N 
ATOM     18  C   UNL     1      -1.487  11.806  22.259  0.00  0.00    +0.000 C 
ATOM     19  N   UNL     1      -0.740  11.587  23.286  0.00  0.00    +0.000 NA
ATOM     20  H   UNL     1      -2.151  11.123  20.372  0.00  0.00    +0.000 HD
ATOM     21  H   UNL     1       0.017  10.907  23.363  0.00  0.00    +0.000 HD
BRANCH  18  22
ATOM     22  C   UNL     1      -2.631  12.728  22.484  0.00  0.00    +0.000 A 
ATOM     23  C   UNL     1      -2.985  13.772  21.625  0.00  0.00    +0.000 A 
ATOM     24  C   UNL     1      -4.057  14.541  22.086  0.00  0.00    +0.000 A 
ATOM     25  C   UNL     1      -4.556  14.112  23.307  0.00  0.00    +0.000 A 
ATOM     26  S   UNL     1      -3.668  12.770  23.810  0.00  0.00    +0.000 S 
ENDBRANCH  18  22
ENDBRANCH   6  17
TORSDOF 3
ENDMDL
