MODEL 1
REMARK VINA RESULT:      -7.9      0.000      0.000
REMARK  Name = 
REMARK  7 active torsions:
REMARK  status: ('A' for Active; 'I' for Inactive)
REMARK    1  A    between atoms: C_1  and  C_2
REMARK    2  A    between atoms: N_4  and  C_5
REMARK    3  A    between atoms: C_7  and  S_8
REMARK    4  A    between atoms: S_8  and  N_11
REMARK    5  A    between atoms: N_11  and  C_12
REMARK    6  A    between atoms: C_16  and  N_17
REMARK    7  A    between atoms: C_22  and  O_23
REMARK                            x       y       z     vdW  Elec       q    Type
REMARK                         _______ _______ _______ _____ _____    ______ ____
ROOT
ATOM      1  C   UNL     1       3.072   5.636  18.982  0.00  0.00    +0.000 C 
ATOM      2  C   UNL     1       2.842   6.288  17.623  0.00  0.00    +0.000 C 
ATOM      3  C   UNL     1       2.882   7.815  17.699  0.00  0.00    +0.000 C 
ATOM      4  C   UNL     1       1.925   8.374  18.751  0.00  0.00    +0.000 C 
ATOM      5  C   UNL     1       2.144   7.723  20.122  0.00  0.00    +0.000 C 
ATOM      6  C   UNL     1       2.044   6.180  20.023  0.00  0.00    +0.000 C 
ENDROOT
BRANCH   5   7
ATOM      7  N   UNL     1       1.322   8.363  21.142  0.00  0.00    +0.000 N 
ATOM      8  C   UNL     1      -0.045   8.252  21.205  0.00  0.00    +0.000 A 
ATOM      9  C   UNL     1      -0.416   8.957  22.322  0.00  0.00    +0.000 A 
ATOM     10  N   UNL     1       0.685   9.476  22.950  0.00  0.00    +0.000 NA
ATOM     11  C   UNL     1       1.714   9.103  22.219  0.00  0.00    +0.000 A 
ENDBRANCH   5   7
BRANCH   1  12
ATOM     12  N   UNL     1       4.445   5.933  19.499  0.00  0.00    +0.000 NA
ATOM     13  H   UNL     1       4.447   6.167  20.501  0.00  0.00    +0.000 HD
BRANCH  12  14
ATOM     14  S   UNL     1       5.708   4.850  19.236  0.00  0.00    +0.000 S 
ATOM     15  O   UNL     1       5.225   3.501  19.374  0.00  0.00    +0.000 OA
ATOM     16  O   UNL     1       6.806   5.364  20.034  0.00  0.00    +0.000 OA
BRANCH  14  23
ATOM     17  C   UNL     1       7.515   7.363  17.559  0.00  0.00    +0.000 C 
ATOM     18  C   UNL     1       7.005   6.075  17.024  0.00  0.00    +0.000 A 
ATOM     19  N   UNL     1       7.179   5.845  15.713  0.00  0.00    +0.000 NA
ATOM     20  N   UNL     1       6.508   4.711  15.475  0.00  0.00    +0.000 N 
ATOM     21  C   UNL     1       6.310   4.275  14.114  0.00  0.00    +0.000 C 
ATOM     22  C   UNL     1       6.002   4.134  16.599  0.00  0.00    +0.000 A 
ATOM     23  C   UNL     1       6.288   5.009  17.630  0.00  0.00    +0.000 A 
ENDBRANCH  14  23
ENDBRANCH  12  14
ENDBRANCH   1  12
BRANCH   6  24
ATOM     24  O   UNL     1       2.340   5.591  21.299  0.00  0.00    +0.000 OA
ATOM     25  H   UNL     1       2.785   6.256  21.856  0.00  0.00    +0.000 HD
ENDBRANCH   6  24
TORSDOF 5
ENDMDL
MODEL 2
REMARK VINA RESULT:      -6.9      0.861      1.601
REMARK  Name = 
REMARK  7 active torsions:
REMARK  status: ('A' for Active; 'I' for Inactive)
REMARK    1  A    between atoms: C_1  and  C_2
REMARK    2  A    between atoms: N_4  and  C_5
REMARK    3  A    between atoms: C_7  and  S_8
REMARK    4  A    between atoms: S_8  and  N_11
REMARK    5  A    between atoms: N_11  and  C_12
REMARK    6  A    between atoms: C_16  and  N_17
REMARK    7  A    between atoms: C_22  and  O_23
REMARK                            x       y       z     vdW  Elec       q    Type
REMARK                         _______ _______ _______ _____ _____    ______ ____
ROOT
ATOM      1  C   UNL     1       2.691   5.744  19.159  0.00  0.00    +0.000 C 
ATOM      2  C   UNL     1       2.486   6.449  17.821  0.00  0.00    +0.000 C 
ATOM      3  C   UNL     1       2.637   7.966  17.937  0.00  0.00    +0.000 C 
ATOM      4  C   UNL     1       1.742   8.563  19.022  0.00  0.00    +0.000 C 
ATOM      5  C   UNL     1       1.936   7.860  20.371  0.00  0.00    +0.000 C 
ATOM      6  C   UNL     1       1.723   6.331  20.233  0.00  0.00    +0.000 C 
ENDROOT
BRANCH   5   7
ATOM      7  N   UNL     1       1.180   8.529  21.423  0.00  0.00    +0.000 N 
ATOM      8  C   UNL     1      -0.191   8.519  21.505  0.00  0.00    +0.000 A 
ATOM      9  C   UNL     1      -0.491   9.215  22.648  0.00  0.00    +0.000 A 
ATOM     10  N   UNL     1       0.654   9.631  23.273  0.00  0.00    +0.000 NA
ATOM     11  C   UNL     1       1.642   9.204  22.514  0.00  0.00    +0.000 A 
ENDBRANCH   5   7
BRANCH   1  12
ATOM     12  N   UNL     1       4.091   5.926  19.657  0.00  0.00    +0.000 NA
ATOM     13  H   UNL     1       4.130   6.079  20.674  0.00  0.00    +0.000 HD
BRANCH  12  14
ATOM     14  S   UNL     1       5.287   4.805  19.273  0.00  0.00    +0.000 S 
ATOM     15  O   UNL     1       4.900   3.503  19.750  0.00  0.00    +0.000 OA
ATOM     16  O   UNL     1       6.529   5.439  19.673  0.00  0.00    +0.000 OA
BRANCH  14  23
ATOM     17  C   UNL     1       3.485   3.069  16.796  0.00  0.00    +0.000 C 
ATOM     18  C   UNL     1       4.676   3.941  16.635  0.00  0.00    +0.000 A 
ATOM     19  N   UNL     1       5.200   4.040  15.403  0.00  0.00    +0.000 NA
ATOM     20  N   UNL     1       6.325   4.748  15.568  0.00  0.00    +0.000 N 
ATOM     21  C   UNL     1       7.254   4.871  14.472  0.00  0.00    +0.000 C 
ATOM     22  C   UNL     1       6.494   5.209  16.837  0.00  0.00    +0.000 A 
ATOM     23  C   UNL     1       5.446   4.683  17.569  0.00  0.00    +0.000 A 
ENDBRANCH  14  23
ENDBRANCH  12  14
ENDBRANCH   1  12
BRANCH   6  24
ATOM     24  O   UNL     1       1.996   5.688  21.486  0.00  0.00    +0.000 OA
ATOM     25  H   UNL     1       1.179   5.672  22.017  0.00  0.00    +0.000 HD
ENDBRANCH   6  24
TORSDOF 5
ENDMDL
MODEL 3
REMARK VINA RESULT:      -6.9      2.460      3.719
REMARK  Name = 
REMARK  7 active torsions:
REMARK  status: ('A' for Active; 'I' for Inactive)
REMARK    1  A    between atoms: C_1  and  C_2
REMARK    2  A    between atoms: N_4  and  C_5
REMARK    3  A    between atoms: C_7  and  S_8
REMARK    4  A    between atoms: S_8  and  N_11
REMARK    5  A    between atoms: N_11  and  C_12
REMARK    6  A    between atoms: C_16  and  N_17
REMARK    7  A    between atoms: C_22  and  O_23
REMARK                            x       y       z     vdW  Elec       q    Type
REMARK                         _______ _______ _______ _____ _____    ______ ____
ROOT
ATOM      1  C   UNL     1       4.993   4.217  17.991  0.00  0.00    +0.000 C 
ATOM      2  C   UNL     1       4.080   3.054  18.370  0.00  0.00    +0.000 C 
ATOM      3  C   UNL     1       2.617   3.330  18.023  0.00  0.00    +0.000 C 
ATOM      4  C   UNL     1       2.113   4.646  18.613  0.00  0.00    +0.000 C 
ATOM      5  C   UNL     1       3.024   5.822  18.243  0.00  0.00    +0.000 C 
ATOM      6  C   UNL     1       4.490   5.537  18.656  0.00  0.00    +0.000 C 
ENDROOT
BRANCH   5   7
ATOM      7  N   UNL     1       2.456   7.087  18.695  0.00  0.00    +0.000 N 
ATOM      8  C   UNL     1       2.174   8.141  17.861  0.00  0.00    +0.000 A 
ATOM      9  C   UNL     1       1.620   9.103  18.666  0.00  0.00    +0.000 A 
ATOM     10  N   UNL     1       1.538   8.658  19.959  0.00  0.00    +0.000 NA
ATOM     11  C   UNL     1       2.048   7.444  19.946  0.00  0.00    +0.000 A 
ENDBRANCH   5   7
BRANCH   1  12
ATOM     12  N   UNL     1       5.011   4.430  16.509  0.00  0.00    +0.000 NA
ATOM     13  H   UNL     1       4.241   5.030  16.188  0.00  0.00    +0.000 HD
BRANCH  12  14
ATOM     14  S   UNL     1       6.413   4.960  15.741  0.00  0.00    +0.000 S 
ATOM     15  O   UNL     1       7.567   4.469  16.447  0.00  0.00    +0.000 OA
ATOM     16  O   UNL     1       6.192   6.376  15.508  0.00  0.00    +0.000 OA
BRANCH  14  23
ATOM     17  C   UNL     1       8.387   5.701  12.922  0.00  0.00    +0.000 C 
ATOM     18  C   UNL     1       7.314   4.685  13.060  0.00  0.00    +0.000 A 
ATOM     19  N   UNL     1       6.982   3.992  11.959  0.00  0.00    +0.000 NA
ATOM     20  N   UNL     1       5.913   3.271  12.320  0.00  0.00    +0.000 N 
ATOM     21  C   UNL     1       5.164   2.558  11.314  0.00  0.00    +0.000 C 
ATOM     22  C   UNL     1       5.606   3.381  13.641  0.00  0.00    +0.000 A 
ATOM     23  C   UNL     1       6.488   4.315  14.154  0.00  0.00    +0.000 A 
ENDBRANCH  14  23
ENDBRANCH  12  14
ENDBRANCH   1  12
BRANCH   6  24
ATOM     24  O   UNL     1       5.336   6.611  18.219  0.00  0.00    +0.000 OA
ATOM     25  H   UNL     1       6.167   6.584  18.727  0.00  0.00    +0.000 HD
ENDBRANCH   6  24
TORSDOF 5
ENDMDL
MODEL 4
REMARK VINA RESULT:      -6.6      2.169      3.504
REMARK  Name = 
REMARK  7 active torsions:
REMARK  status: ('A' for Active; 'I' for Inactive)
REMARK    1  A    between atoms: C_1  and  C_2
REMARK    2  A    between atoms: N_4  and  C_5
REMARK    3  A    between atoms: C_7  and  S_8
REMARK    4  A    between atoms: S_8  and  N_11
REMARK    5  A    between atoms: N_11  and  C_12
REMARK    6  A    between atoms: C_16  and  N_17
REMARK    7  A    between atoms: C_22  and  O_23
REMARK                            x       y       z     vdW  Elec       q    Type
REMARK                         _______ _______ _______ _____ _____    ______ ____
ROOT
ATOM      1  C   UNL     1       4.762   3.442  18.500  0.00  0.00    +0.000 C 
ATOM      2  C   UNL     1       3.694   2.470  18.008  0.00  0.00    +0.000 C 
ATOM      3  C   UNL     1       2.578   3.177  17.239  0.00  0.00    +0.000 C 
ATOM      4  C   UNL     1       1.958   4.327  18.032  0.00  0.00    +0.000 C 
ATOM      5  C   UNL     1       3.023   5.310  18.535  0.00  0.00    +0.000 C 
ATOM      6  C   UNL     1       4.111   4.573  19.356  0.00  0.00    +0.000 C 
ENDROOT
BRANCH   5   7
ATOM      7  N   UNL     1       2.407   6.470  19.168  0.00  0.00    +0.000 N 
ATOM      8  C   UNL     1       1.868   6.458  20.431  0.00  0.00    +0.000 A 
ATOM      9  C   UNL     1       1.441   7.742  20.657  0.00  0.00    +0.000 A 
ATOM     10  N   UNL     1       1.721   8.538  19.578  0.00  0.00    +0.000 NA
ATOM     11  C   UNL     1       2.300   7.746  18.699  0.00  0.00    +0.000 A 
ENDBRANCH   5   7
BRANCH   1  12
ATOM     12  N   UNL     1       5.473   4.091  17.353  0.00  0.00    +0.000 NA
ATOM     13  H   UNL     1       4.926   4.851  16.928  0.00  0.00    +0.000 HD
BRANCH  12  14
ATOM     14  S   UNL     1       7.051   4.652  17.534  0.00  0.00    +0.000 S 
ATOM     15  O   UNL     1       7.834   4.270  16.389  0.00  0.00    +0.000 OA
ATOM     16  O   UNL     1       7.422   4.277  18.886  0.00  0.00    +0.000 OA
BRANCH  14  23
ATOM     17  C   UNL     1       5.037   7.127  16.046  0.00  0.00    +0.000 C 
ATOM     18  C   UNL     1       6.207   7.301  16.943  0.00  0.00    +0.000 A 
ATOM     19  N   UNL     1       6.618   8.557  17.176  0.00  0.00    +0.000 NA
ATOM     20  N   UNL     1       7.753   8.420  17.875  0.00  0.00    +0.000 N 
ATOM     21  C   UNL     1       8.580   9.576  18.121  0.00  0.00    +0.000 C 
ATOM     22  C   UNL     1       8.034   7.130  18.203  0.00  0.00    +0.000 A 
ATOM     23  C   UNL     1       7.057   6.366  17.592  0.00  0.00    +0.000 A 
ENDBRANCH  14  23
ENDBRANCH  12  14
ENDBRANCH   1  12
BRANCH   6  24
ATOM     24  O   UNL     1       5.140   5.498  19.740  0.00  0.00    +0.000 OA
ATOM     25  H   UNL     1       5.428   5.289  20.647  0.00  0.00    +0.000 HD
ENDBRANCH   6  24
TORSDOF 5
ENDMDL
MODEL 5
REMARK VINA RESULT:      -6.4      2.606      6.306
REMARK  Name = 
REMARK  7 active torsions:
REMARK  status: ('A' for Active; 'I' for Inactive)
REMARK    1  A    between atoms: C_1  and  C_2
REMARK    2  A    between atoms: N_4  and  C_5
REMARK    3  A    between atoms: C_7  and  S_8
REMARK    4  A    between atoms: S_8  and  N_11
REMARK    5  A    between atoms: N_11  and  C_12
REMARK    6  A    between atoms: C_16  and  N_17
REMARK    7  A    between atoms: C_22  and  O_23
REMARK                            x       y       z     vdW  Elec       q    Type
REMARK                         _______ _______ _______ _____ _____    ______ ____
ROOT
ATOM      1  C   UNL     1       4.480   4.247  17.381  0.00  0.00    +0.000 C 
ATOM      2  C   UNL     1       4.746   3.882  15.925  0.00  0.00    +0.000 C 
ATOM      3  C   UNL     1       6.236   3.914  15.582  0.00  0.00    +0.000 C 
ATOM      4  C   UNL     1       6.893   5.243  15.949  0.00  0.00    +0.000 C 
ATOM      5  C   UNL     1       6.629   5.624  17.411  0.00  0.00    +0.000 C 
ATOM      6  C   UNL     1       5.109   5.636  17.714  0.00  0.00    +0.000 C 
ENDROOT
BRANCH   5   7
ATOM      7  N   UNL     1       7.375   6.820  17.783  0.00  0.00    +0.000 N 
ATOM      8  C   UNL     1       7.224   8.039  17.168  0.00  0.00    +0.000 A 
ATOM      9  C   UNL     1       8.064   8.891  17.839  0.00  0.00    +0.000 A 
ATOM     10  N   UNL     1       8.705   8.233  18.855  0.00  0.00    +0.000 NA
ATOM     11  C   UNL     1       8.272   6.991  18.797  0.00  0.00    +0.000 A 
ENDBRANCH   5   7
BRANCH   1  12
ATOM     12  N   UNL     1       5.082   3.239  18.311  0.00  0.00    +0.000 NA
ATOM     13  H   UNL     1       5.857   3.627  18.864  0.00  0.00    +0.000 HD
BRANCH  12  14
ATOM     14  S   UNL     1       4.106   2.360  19.365  0.00  0.00    +0.000 S 
ATOM     15  O   UNL     1       4.855   2.017  20.545  0.00  0.00    +0.000 OA
ATOM     16  O   UNL     1       3.473   1.356  18.530  0.00  0.00    +0.000 OA
BRANCH  14  23
ATOM     17  C   UNL     1       0.633   2.192  18.813  0.00  0.00    +0.000 C 
ATOM     18  C   UNL     1       1.399   3.195  19.595  0.00  0.00    +0.000 A 
ATOM     19  N   UNL     1       0.710   4.225  20.111  0.00  0.00    +0.000 NA
ATOM     20  N   UNL     1       1.644   5.036  20.624  0.00  0.00    +0.000 N 
ATOM     21  C   UNL     1       1.270   6.352  21.083  0.00  0.00    +0.000 C 
ATOM     22  C   UNL     1       2.902   4.520  20.564  0.00  0.00    +0.000 A 
ATOM     23  C   UNL     1       2.784   3.326  19.878  0.00  0.00    +0.000 A 
ENDBRANCH  14  23
ENDBRANCH  12  14
ENDBRANCH   1  12
BRANCH   6  24
ATOM     24  O   UNL     1       4.894   5.907  19.107  0.00  0.00    +0.000 OA
ATOM     25  H   UNL     1       5.648   5.557  19.616  0.00  0.00    +0.000 HD
ENDBRANCH   6  24
TORSDOF 5
ENDMDL
MODEL 6
REMARK VINA RESULT:      -6.4      3.301      4.330
REMARK  Name = 
REMARK  7 active torsions:
REMARK  status: ('A' for Active; 'I' for Inactive)
REMARK    1  A    between atoms: C_1  and  C_2
REMARK    2  A    between atoms: N_4  and  C_5
REMARK    3  A    between atoms: C_7  and  S_8
REMARK    4  A    between atoms: S_8  and  N_11
REMARK    5  A    between atoms: N_11  and  C_12
REMARK    6  A    between atoms: C_16  and  N_17
REMARK    7  A    between atoms: C_22  and  O_23
REMARK                            x       y       z     vdW  Elec       q    Type
REMARK                         _______ _______ _______ _____ _____    ______ ____
ROOT
ATOM      1  C   UNL     1       4.144   4.811  16.929  0.00  0.00    +0.000 C 
ATOM      2  C   UNL     1       3.870   6.302  17.095  0.00  0.00    +0.000 C 
ATOM      3  C   UNL     1       3.996   6.755  18.550  0.00  0.00    +0.000 C 
ATOM      4  C   UNL     1       3.134   5.923  19.499  0.00  0.00    +0.000 C 
ATOM      5  C   UNL     1       3.398   4.421  19.338  0.00  0.00    +0.000 C 
ATOM      6  C   UNL     1       3.210   3.981  17.864  0.00  0.00    +0.000 C 
ENDROOT
BRANCH   5   7
ATOM      7  N   UNL     1       2.673   3.652  20.343  0.00  0.00    +0.000 N 
ATOM      8  C   UNL     1       1.314   3.723  20.528  0.00  0.00    +0.000 A 
ATOM      9  C   UNL     1       1.036   2.822  21.524  0.00  0.00    +0.000 A 
ATOM     10  N   UNL     1       2.180   2.192  21.936  0.00  0.00    +0.000 NA
ATOM     11  C   UNL     1       3.147   2.710  21.209  0.00  0.00    +0.000 A 
ENDBRANCH   5   7
BRANCH   1  12
ATOM     12  N   UNL     1       5.560   4.478  17.286  0.00  0.00    +0.000 NA
ATOM     13  H   UNL     1       5.725   3.464  17.339  0.00  0.00    +0.000 HD
BRANCH  12  14
ATOM     14  S   UNL     1       6.839   5.148  16.419  0.00  0.00    +0.000 S 
ATOM     15  O   UNL     1       6.346   5.714  15.191  0.00  0.00    +0.000 OA
ATOM     16  O   UNL     1       7.873   4.130  16.442  0.00  0.00    +0.000 OA
BRANCH  14  23
ATOM     17  C   UNL     1       8.020   5.427  19.723  0.00  0.00    +0.000 C 
ATOM     18  C   UNL     1       7.981   6.466  18.663  0.00  0.00    +0.000 A 
ATOM     19  N   UNL     1       8.376   7.703  19.003  0.00  0.00    +0.000 NA
ATOM     20  N   UNL     1       8.103   8.454  17.928  0.00  0.00    +0.000 N 
ATOM     21  C   UNL     1       8.211   9.890  18.018  0.00  0.00    +0.000 C 
ATOM     22  C   UNL     1       7.654   7.735  16.864  0.00  0.00    +0.000 A 
ATOM     23  C   UNL     1       7.540   6.432  17.313  0.00  0.00    +0.000 A 
ENDBRANCH  14  23
ENDBRANCH  12  14
ENDBRANCH   1  12
BRANCH   6  24
ATOM     24  O   UNL     1       3.549   2.594  17.724  0.00  0.00    +0.000 OA
ATOM     25  H   UNL     1       3.590   2.189  18.610  0.00  0.00    +0.000 HD
ENDBRANCH   6  24
TORSDOF 5
ENDMDL
MODEL 7
REMARK VINA RESULT:      -6.4      3.413      4.179
REMARK  Name = 
REMARK  7 active torsions:
REMARK  status: ('A' for Active; 'I' for Inactive)
REMARK    1  A    between atoms: C_1  and  C_2
REMARK    2  A    between atoms: N_4  and  C_5
REMARK    3  A    between atoms: C_7  and  S_8
REMARK    4  A    between atoms: S_8  and  N_11
REMARK    5  A    between atoms: N_11  and  C_12
REMARK    6  A    between atoms: C_16  and  N_17
REMARK    7  A    between atoms: C_22  and  O_23
REMARK                            x       y       z     vdW  Elec       q    Type
REMARK                         _______ _______ _______ _____ _____    ______ ____
ROOT
ATOM      1  C   UNL     1       4.270   4.803  16.732  0.00  0.00    +0.000 C 
ATOM      2  C   UNL     1       4.017   6.298  16.893  0.00  0.00    +0.000 C 
ATOM      3  C   UNL     1       4.073   6.741  18.355  0.00  0.00    +0.000 C 
ATOM      4  C   UNL     1       3.145   5.922  19.251  0.00  0.00    +0.000 C 
ATOM      5  C   UNL     1       3.387   4.415  19.096  0.00  0.00    +0.000 C 
ATOM      6  C   UNL     1       3.270   3.987  17.611  0.00  0.00    +0.000 C 
ENDROOT
BRANCH   5   7
ATOM      7  N   UNL     1       2.595   3.656  20.055  0.00  0.00    +0.000 N 
ATOM      8  C   UNL     1       3.123   2.733  20.924  0.00  0.00    +0.000 A 
ATOM      9  C   UNL     1       2.061   2.289  21.671  0.00  0.00    +0.000 A 
ATOM     10  N   UNL     1       0.909   2.928  21.297  0.00  0.00    +0.000 NA
ATOM     11  C   UNL     1       1.260   3.743  20.324  0.00  0.00    +0.000 A 
ENDBRANCH   5   7
BRANCH   1  12
ATOM     12  N   UNL     1       5.657   4.440  17.163  0.00  0.00    +0.000 NA
ATOM     13  H   UNL     1       5.758   3.435  17.360  0.00  0.00    +0.000 HD
BRANCH  12  14
ATOM     14  S   UNL     1       6.987   4.904  16.238  0.00  0.00    +0.000 S 
ATOM     15  O   UNL     1       8.167   4.236  16.720  0.00  0.00    +0.000 OA
ATOM     16  O   UNL     1       6.893   6.350  16.159  0.00  0.00    +0.000 OA
BRANCH  14  23
ATOM     17  C   UNL     1       8.533   5.812  13.209  0.00  0.00    +0.000 C 
ATOM     18  C   UNL     1       7.430   4.844  13.432  0.00  0.00    +0.000 A 
ATOM     19  N   UNL     1       6.882   4.279  12.344  0.00  0.00    +0.000 NA
ATOM     20  N   UNL     1       5.838   3.583  12.812  0.00  0.00    +0.000 N 
ATOM     21  C   UNL     1       4.893   3.010  11.885  0.00  0.00    +0.000 C 
ATOM     22  C   UNL     1       5.753   3.580  14.170  0.00  0.00    +0.000 A 
ATOM     23  C   UNL     1       6.765   4.412  14.610  0.00  0.00    +0.000 A 
ENDBRANCH  14  23
ENDBRANCH  12  14
ENDBRANCH   1  12
BRANCH   6  24
ATOM     24  O   UNL     1       3.589   2.594  17.481  0.00  0.00    +0.000 OA
ATOM     25  H   UNL     1       2.798   2.119  17.165  0.00  0.00    +0.000 HD
ENDBRANCH   6  24
TORSDOF 5
ENDMDL
MODEL 8
REMARK VINA RESULT:      -6.3      1.657      7.291
REMARK  Name = 
REMARK  7 active torsions:
REMARK  status: ('A' for Active; 'I' for Inactive)
REMARK    1  A    between atoms: C_1  and  C_2
REMARK    2  A    between atoms: N_4  and  C_5
REMARK    3  A    between atoms: C_7  and  S_8
REMARK    4  A    between atoms: S_8  and  N_11
REMARK    5  A    between atoms: N_11  and  C_12
REMARK    6  A    between atoms: C_16  and  N_17
REMARK    7  A    between atoms: C_22  and  O_23
REMARK                            x       y       z     vdW  Elec       q    Type
REMARK                         _______ _______ _______ _____ _____    ______ ____
ROOT
ATOM      1  C   UNL     1       5.445   4.871  18.825  0.00  0.00    +0.000 C 
ATOM      2  C   UNL     1       6.755   5.507  19.280  0.00  0.00    +0.000 C 
ATOM      3  C   UNL     1       7.305   6.496  18.252  0.00  0.00    +0.000 C 
ATOM      4  C   UNL     1       7.441   5.879  16.860  0.00  0.00    +0.000 C 
ATOM      5  C   UNL     1       6.131   5.232  16.394  0.00  0.00    +0.000 C 
ATOM      6  C   UNL     1       5.627   4.196  17.430  0.00  0.00    +0.000 C 
ENDROOT
BRANCH   5   7
ATOM      7  N   UNL     1       6.236   4.773  15.014  0.00  0.00    +0.000 N 
ATOM      8  C   UNL     1       7.269   5.109  14.172  0.00  0.00    +0.000 A 
ATOM      9  C   UNL     1       7.013   4.442  13.001  0.00  0.00    +0.000 A 
ATOM     10  N   UNL     1       5.869   3.697  13.111  0.00  0.00    +0.000 NA
ATOM     11  C   UNL     1       5.424   3.916  14.331  0.00  0.00    +0.000 A 
ENDBRANCH   5   7
BRANCH   1  12
ATOM     12  N   UNL     1       4.361   5.896  18.700  0.00  0.00    +0.000 NA
ATOM     13  H   UNL     1       4.259   6.245  17.738  0.00  0.00    +0.000 HD
BRANCH  12  14
ATOM     14  S   UNL     1       2.813   5.577  19.282  0.00  0.00    +0.000 S 
ATOM     15  O   UNL     1       2.900   4.758  20.463  0.00  0.00    +0.000 OA
ATOM     16  O   UNL     1       2.055   5.171  18.113  0.00  0.00    +0.000 OA
BRANCH  14  23
ATOM     17  C   UNL     1       2.303   8.657  17.657  0.00  0.00    +0.000 C 
ATOM     18  C   UNL     1       1.901   8.256  19.028  0.00  0.00    +0.000 A 
ATOM     19  N   UNL     1       1.329   9.196  19.798  0.00  0.00    +0.000 NA
ATOM     20  N   UNL     1       1.208   8.622  21.002  0.00  0.00    +0.000 N 
ATOM     21  C   UNL     1       0.816   9.424  22.135  0.00  0.00    +0.000 C 
ATOM     22  C   UNL     1       1.573   7.311  21.016  0.00  0.00    +0.000 A 
ATOM     23  C   UNL     1       2.052   7.042  19.748  0.00  0.00    +0.000 A 
ENDBRANCH  14  23
ENDBRANCH  12  14
ENDBRANCH   1  12
BRANCH   6  24
ATOM     24  O   UNL     1       4.357   3.672  17.014  0.00  0.00    +0.000 OA
ATOM     25  H   UNL     1       3.806   3.518  17.803  0.00  0.00    +0.000 HD
ENDBRANCH   6  24
TORSDOF 5
ENDMDL
MODEL 9
REMARK VINA RESULT:      -6.2      0.993      1.896
REMARK  Name = 
REMARK  7 active torsions:
REMARK  status: ('A' for Active; 'I' for Inactive)
REMARK    1  A    between atoms: C_1  and  C_2
REMARK    2  A    between atoms: N_4  and  C_5
REMARK    3  A    between atoms: C_7  and  S_8
REMARK    4  A    between atoms: S_8  and  N_11
REMARK    5  A    between atoms: N_11  and  C_12
REMARK    6  A    between atoms: C_16  and  N_17
REMARK    7  A    between atoms: C_22  and  O_23
REMARK                            x       y       z     vdW  Elec       q    Type
REMARK                         _______ _______ _______ _____ _____    ______ ____
ROOT
ATOM      1  C   UNL     1       2.416   5.557  18.988  0.00  0.00    +0.000 C 
ATOM      2  C   UNL     1       2.307   6.329  17.677  0.00  0.00    +0.000 C 
ATOM      3  C   UNL     1       2.649   7.809  17.846  0.00  0.00    +0.000 C 
ATOM      4  C   UNL     1       1.834   8.477  18.952  0.00  0.00    +0.000 C 
ATOM      5  C   UNL     1       1.934   7.707  20.275  0.00  0.00    +0.000 C 
ATOM      6  C   UNL     1       1.528   6.224  20.084  0.00  0.00    +0.000 C 
ENDROOT
BRANCH   5   7
ATOM      7  N   UNL     1       1.266   8.430  21.352  0.00  0.00    +0.000 N 
ATOM      8  C   UNL     1      -0.097   8.474  21.514  0.00  0.00    +0.000 A 
ATOM      9  C   UNL     1      -0.303   9.209  22.654  0.00  0.00    +0.000 A 
ATOM     10  N   UNL     1       0.892   9.595  23.200  0.00  0.00    +0.000 NA
ATOM     11  C   UNL     1       1.817   9.113  22.396  0.00  0.00    +0.000 A 
ENDBRANCH   5   7
BRANCH   1  12
ATOM     12  N   UNL     1       3.827   5.542  19.490  0.00  0.00    +0.000 NA
ATOM     13  H   UNL     1       3.890   5.270  20.480  0.00  0.00    +0.000 HD
BRANCH  12  14
ATOM     14  S   UNL     1       5.019   4.689  18.661  0.00  0.00    +0.000 S 
ATOM     15  O   UNL     1       4.408   3.851  17.664  0.00  0.00    +0.000 OA
ATOM     16  O   UNL     1       5.880   4.155  19.700  0.00  0.00    +0.000 OA
BRANCH  14  23
ATOM     17  C   UNL     1       7.106   4.376  15.843  0.00  0.00    +0.000 C 
ATOM     18  C   UNL     1       6.876   5.569  16.697  0.00  0.00    +0.000 A 
ATOM     19  N   UNL     1       7.600   6.666  16.425  0.00  0.00    +0.000 NA
ATOM     20  N   UNL     1       7.310   7.519  17.416  0.00  0.00    +0.000 N 
ATOM     21  C   UNL     1       8.075   8.734  17.553  0.00  0.00    +0.000 C 
ATOM     22  C   UNL     1       6.341   7.064  18.256  0.00  0.00    +0.000 A 
ATOM     23  C   UNL     1       6.047   5.782  17.831  0.00  0.00    +0.000 A 
ENDBRANCH  14  23
ENDBRANCH  12  14
ENDBRANCH   1  12
BRANCH   6  24
ATOM     24  O   UNL     1       1.715   5.507  21.314  0.00  0.00    +0.000 OA
ATOM     25  H   UNL     1       2.530   4.978  21.248  0.00  0.00    +0.000 HD
ENDBRANCH   6  24
TORSDOF 5
ENDMDL
