MODEL 1
REMARK VINA RESULT:      -8.5      0.000      0.000
REMARK  Name = 
REMARK  6 active torsions:
REMARK  status: ('A' for Active; 'I' for Inactive)
REMARK    1  A    between atoms: C_1  and  O_2
REMARK    2  A    between atoms: O_2  and  C_3
REMARK    3  A    between atoms: C_6  and  C_7
REMARK    4  A    between atoms: C_13  and  S_14
REMARK    5  A    between atoms: S_14  and  C_17
REMARK    6  A    between atoms: C_17  and  C_18
REMARK                            x       y       z     vdW  Elec       q    Type
REMARK                         _______ _______ _______ _____ _____    ______ ____
ROOT
ATOM      1  C   UNL     1       8.385   9.236  18.309  0.00  0.00    +0.000 C 
ATOM      2  O   UNL     1       7.408   9.601  17.667  0.00  0.00    +0.000 OA
ATOM      3  N   UNL     1       8.596   7.978  18.832  0.00  0.00    +0.000 N 
ATOM      4  C   UNL     1       7.785   6.875  18.662  0.00  0.00    +0.000 A 
ATOM      5  N   UNL     1       7.936   5.776  19.379  0.00  0.00    +0.000 NA
ATOM      6  N   UNL     1       7.045   4.778  19.016  0.00  0.00    +0.000 NA
ATOM      7  C   UNL     1       6.288   5.163  18.009  0.00  0.00    +0.000 A 
ATOM      8  S   UNL     1       6.571   6.760  17.464  0.00  0.00    +0.000 S 
ATOM      9  H   UNL     1       9.324   7.843  19.520  0.00  0.00    +0.000 HD
ENDROOT
BRANCH   1  13
ATOM     10  C   UNL     1      11.324  12.246  19.292  0.00  0.00    +0.000 A 
ATOM     11  C   UNL     1      10.579  11.609  20.287  0.00  0.00    +0.000 A 
ATOM     12  C   UNL     1       9.648  10.618  19.958  0.00  0.00    +0.000 A 
ATOM     13  C   UNL     1       9.443  10.252  18.621  0.00  0.00    +0.000 A 
ATOM     14  C   UNL     1      10.181  10.898  17.620  0.00  0.00    +0.000 A 
ATOM     15  C   UNL     1      11.119  11.891  17.957  0.00  0.00    +0.000 A 
BRANCH  10  17
ATOM     16  C   UNL     1      11.603  14.524  19.903  0.00  0.00    +0.000 C 
ATOM     17  O   UNL     1      12.164  13.227  19.737  0.00  0.00    +0.000 OA
ENDBRANCH  10  17
ENDBRANCH   1  13
BRANCH   7  18
ATOM     18  S   UNL     1       5.086   4.169  17.177  0.00  0.00    +0.000 S 
ATOM     19  O   UNL     1       5.531   4.106  15.798  0.00  0.00    +0.000 OA
ATOM     20  O   UNL     1       4.955   2.981  18.004  0.00  0.00    +0.000 OA
BRANCH  18  21
ATOM     21  C   UNL     1       3.587   5.141  17.280  0.00  0.00    +0.000 C 
BRANCH  21  22
ATOM     22  C   UNL     1       2.713   4.629  18.407  0.00  0.00    +0.000 A 
ATOM     23  C   UNL     1       2.869   5.122  19.712  0.00  0.00    +0.000 A 
ATOM     24  C   UNL     1       2.059   4.660  20.754  0.00  0.00    +0.000 A 
ATOM     25  C   UNL     1       1.083   3.697  20.506  0.00  0.00    +0.000 A 
ATOM     26  C   UNL     1       0.916   3.198  19.216  0.00  0.00    +0.000 A 
ATOM     27  C   UNL     1       1.726   3.659  18.173  0.00  0.00    +0.000 A 
ENDBRANCH  21  22
ENDBRANCH  18  21
ENDBRANCH   7  18
TORSDOF 5
ENDMDL
MODEL 2
REMARK VINA RESULT:      -7.8      5.875      7.969
REMARK  Name = 
REMARK  6 active torsions:
REMARK  status: ('A' for Active; 'I' for Inactive)
REMARK    1  A    between atoms: C_1  and  O_2
REMARK    2  A    between atoms: O_2  and  C_3
REMARK    3  A    between atoms: C_6  and  C_7
REMARK    4  A    between atoms: C_13  and  S_14
REMARK    5  A    between atoms: S_14  and  C_17
REMARK    6  A    between atoms: C_17  and  C_18
REMARK                            x       y       z     vdW  Elec       q    Type
REMARK                         _______ _______ _______ _____ _____    ______ ____
ROOT
ATOM      1  C   UNL     1       1.344   8.219  20.502  0.00  0.00    +0.000 C 
ATOM      2  O   UNL     1       1.931   8.472  19.457  0.00  0.00    +0.000 OA
ATOM      3  N   UNL     1       1.268   6.989  21.119  0.00  0.00    +0.000 N 
ATOM      4  C   UNL     1       1.904   5.832  20.719  0.00  0.00    +0.000 A 
ATOM      5  N   UNL     1       1.599   4.652  21.228  0.00  0.00    +0.000 NA
ATOM      6  N   UNL     1       2.388   3.633  20.717  0.00  0.00    +0.000 NA
ATOM      7  C   UNL     1       3.282   4.105  19.872  0.00  0.00    +0.000 A 
ATOM      8  S   UNL     1       3.203   5.793  19.608  0.00  0.00    +0.000 S 
ATOM      9  H   UNL     1       0.588   6.844  21.852  0.00  0.00    +0.000 HD
ENDROOT
BRANCH   1  13
ATOM     10  C   UNL     1      -0.978  11.295  22.452  0.00  0.00    +0.000 A 
ATOM     11  C   UNL     1      -0.591  10.139  23.133  0.00  0.00    +0.000 A 
ATOM     12  C   UNL     1       0.183   9.161  22.498  0.00  0.00    +0.000 A 
ATOM     13  C   UNL     1       0.577   9.324  21.163  0.00  0.00    +0.000 A 
ATOM     14  C   UNL     1       0.180  10.478  20.474  0.00  0.00    +0.000 A 
ATOM     15  C   UNL     1      -0.595  11.460  21.120  0.00  0.00    +0.000 A 
BRANCH  10  17
ATOM     16  C   UNL     1      -1.318  13.494  23.282  0.00  0.00    +0.000 C 
ATOM     17  O   UNL     1      -1.769  12.150  23.166  0.00  0.00    +0.000 OA
ENDBRANCH  10  17
ENDBRANCH   1  13
BRANCH   7  18
ATOM     18  S   UNL     1       4.543   3.164  19.066  0.00  0.00    +0.000 S 
ATOM     19  O   UNL     1       5.738   3.983  19.142  0.00  0.00    +0.000 OA
ATOM     20  O   UNL     1       4.466   1.847  19.675  0.00  0.00    +0.000 OA
BRANCH  18  21
ATOM     21  C   UNL     1       3.983   3.074  17.367  0.00  0.00    +0.000 C 
BRANCH  21  22
ATOM     22  C   UNL     1       4.828   3.980  16.495  0.00  0.00    +0.000 A 
ATOM     23  C   UNL     1       5.846   3.446  15.687  0.00  0.00    +0.000 A 
ATOM     24  C   UNL     1       6.623   4.275  14.873  0.00  0.00    +0.000 A 
ATOM     25  C   UNL     1       6.395   5.649  14.855  0.00  0.00    +0.000 A 
ATOM     26  C   UNL     1       5.389   6.193  15.651  0.00  0.00    +0.000 A 
ATOM     27  C   UNL     1       4.611   5.366  16.467  0.00  0.00    +0.000 A 
ENDBRANCH  21  22
ENDBRANCH  18  21
ENDBRANCH   7  18
TORSDOF 5
ENDMDL
MODEL 3
REMARK VINA RESULT:      -7.7      1.005      1.441
REMARK  Name = 
REMARK  6 active torsions:
REMARK  status: ('A' for Active; 'I' for Inactive)
REMARK    1  A    between atoms: C_1  and  O_2
REMARK    2  A    between atoms: O_2  and  C_3
REMARK    3  A    between atoms: C_6  and  C_7
REMARK    4  A    between atoms: C_13  and  S_14
REMARK    5  A    between atoms: S_14  and  C_17
REMARK    6  A    between atoms: C_17  and  C_18
REMARK                            x       y       z     vdW  Elec       q    Type
REMARK                         _______ _______ _______ _____ _____    ______ ____
ROOT
ATOM      1  C   UNL     1       8.544   9.730  18.289  0.00  0.00    +0.000 C 
ATOM      2  O   UNL     1       7.657  10.055  17.509  0.00  0.00    +0.000 OA
ATOM      3  N   UNL     1       8.734   8.479  18.835  0.00  0.00    +0.000 N 
ATOM      4  C   UNL     1       8.012   7.340  18.543  0.00  0.00    +0.000 A 
ATOM      5  N   UNL     1       8.106   6.243  19.272  0.00  0.00    +0.000 NA
ATOM      6  N   UNL     1       7.328   5.208  18.777  0.00  0.00    +0.000 NA
ATOM      7  C   UNL     1       6.714   5.565  17.669  0.00  0.00    +0.000 A 
ATOM      8  S   UNL     1       6.998   7.179  17.176  0.00  0.00    +0.000 S 
ATOM      9  H   UNL     1       9.356   8.372  19.625  0.00  0.00    +0.000 HD
ENDROOT
BRANCH   1  13
ATOM     10  C   UNL     1      11.379  12.743  19.530  0.00  0.00    +0.000 A 
ATOM     11  C   UNL     1      10.957  12.649  18.202  0.00  0.00    +0.000 A 
ATOM     12  C   UNL     1      10.019  11.685  17.816  0.00  0.00    +0.000 A 
ATOM     13  C   UNL     1       9.492  10.792  18.759  0.00  0.00    +0.000 A 
ATOM     14  C   UNL     1       9.923  10.877  20.090  0.00  0.00    +0.000 A 
ATOM     15  C   UNL     1      10.863  11.852  20.472  0.00  0.00    +0.000 A 
BRANCH  10  17
ATOM     16  C   UNL     1      12.042  15.015  19.328  0.00  0.00    +0.000 C 
ATOM     17  O   UNL     1      12.332  13.693  19.769  0.00  0.00    +0.000 OA
ENDBRANCH  10  17
ENDBRANCH   1  13
BRANCH   7  18
ATOM     18  S   UNL     1       5.700   4.523  16.664  0.00  0.00    +0.000 S 
ATOM     19  O   UNL     1       4.617   5.372  16.203  0.00  0.00    +0.000 OA
ATOM     20  O   UNL     1       6.626   3.882  15.746  0.00  0.00    +0.000 OA
BRANCH  18  21
ATOM     21  C   UNL     1       5.062   3.311  17.818  0.00  0.00    +0.000 C 
BRANCH  21  22
ATOM     22  C   UNL     1       3.779   3.817  18.443  0.00  0.00    +0.000 A 
ATOM     23  C   UNL     1       3.816   4.692  19.541  0.00  0.00    +0.000 A 
ATOM     24  C   UNL     1       2.635   5.169  20.117  0.00  0.00    +0.000 A 
ATOM     25  C   UNL     1       1.400   4.777  19.605  0.00  0.00    +0.000 A 
ATOM     26  C   UNL     1       1.347   3.910  18.517  0.00  0.00    +0.000 A 
ATOM     27  C   UNL     1       2.527   3.431  17.940  0.00  0.00    +0.000 A 
ENDBRANCH  21  22
ENDBRANCH  18  21
ENDBRANCH   7  18
TORSDOF 5
ENDMDL
MODEL 4
REMARK VINA RESULT:      -7.7      5.878      8.193
REMARK  Name = 
REMARK  6 active torsions:
REMARK  status: ('A' for Active; 'I' for Inactive)
REMARK    1  A    between atoms: C_1  and  O_2
REMARK    2  A    between atoms: O_2  and  C_3
REMARK    3  A    between atoms: C_6  and  C_7
REMARK    4  A    between atoms: C_13  and  S_14
REMARK    5  A    between atoms: S_14  and  C_17
REMARK    6  A    between atoms: C_17  and  C_18
REMARK                            x       y       z     vdW  Elec       q    Type
REMARK                         _______ _______ _______ _____ _____    ______ ____
ROOT
ATOM      1  C   UNL     1       1.268   8.295  20.539  0.00  0.00    +0.000 C 
ATOM      2  O   UNL     1       1.845   8.577  19.497  0.00  0.00    +0.000 OA
ATOM      3  N   UNL     1       1.214   7.051  21.133  0.00  0.00    +0.000 N 
ATOM      4  C   UNL     1       1.865   5.912  20.707  0.00  0.00    +0.000 A 
ATOM      5  N   UNL     1       1.582   4.718  21.194  0.00  0.00    +0.000 NA
ATOM      6  N   UNL     1       2.384   3.722  20.658  0.00  0.00    +0.000 NA
ATOM      7  C   UNL     1       3.265   4.223  19.819  0.00  0.00    +0.000 A 
ATOM      8  S   UNL     1       3.158   5.916  19.589  0.00  0.00    +0.000 S 
ATOM      9  H   UNL     1       0.540   6.882  21.867  0.00  0.00    +0.000 HD
ENDROOT
BRANCH   1  13
ATOM     10  C   UNL     1      -1.096  11.297  22.552  0.00  0.00    +0.000 A 
ATOM     11  C   UNL     1      -0.761  10.097  23.183  0.00  0.00    +0.000 A 
ATOM     12  C   UNL     1       0.026   9.142  22.530  0.00  0.00    +0.000 A 
ATOM     13  C   UNL     1       0.487   9.374  21.227  0.00  0.00    +0.000 A 
ATOM     14  C   UNL     1       0.143  10.573  20.588  0.00  0.00    +0.000 A 
ATOM     15  C   UNL     1      -0.646  11.531  21.252  0.00  0.00    +0.000 A 
BRANCH  10  17
ATOM     16  C   UNL     1      -3.192  12.399  22.731  0.00  0.00    +0.000 C 
ATOM     17  O   UNL     1      -1.907  12.125  23.276  0.00  0.00    +0.000 OA
ENDBRANCH  10  17
ENDBRANCH   1  13
BRANCH   7  18
ATOM     18  S   UNL     1       4.536   3.319  18.987  0.00  0.00    +0.000 S 
ATOM     19  O   UNL     1       5.001   2.339  19.951  0.00  0.00    +0.000 OA
ATOM     20  O   UNL     1       3.944   2.936  17.716  0.00  0.00    +0.000 OA
BRANCH  18  21
ATOM     21  C   UNL     1       5.814   4.541  18.710  0.00  0.00    +0.000 C 
BRANCH  21  22
ATOM     22  C   UNL     1       5.942   4.831  17.229  0.00  0.00    +0.000 A 
ATOM     23  C   UNL     1       6.924   4.187  16.458  0.00  0.00    +0.000 A 
ATOM     24  C   UNL     1       7.042   4.443  15.089  0.00  0.00    +0.000 A 
ATOM     25  C   UNL     1       6.180   5.347  14.470  0.00  0.00    +0.000 A 
ATOM     26  C   UNL     1       5.201   5.993  15.222  0.00  0.00    +0.000 A 
ATOM     27  C   UNL     1       5.082   5.738  16.592  0.00  0.00    +0.000 A 
ENDBRANCH  21  22
ENDBRANCH  18  21
ENDBRANCH   7  18
TORSDOF 5
ENDMDL
MODEL 5
REMARK VINA RESULT:      -7.7      5.837      7.982
REMARK  Name = 
REMARK  6 active torsions:
REMARK  status: ('A' for Active; 'I' for Inactive)
REMARK    1  A    between atoms: C_1  and  O_2
REMARK    2  A    between atoms: O_2  and  C_3
REMARK    3  A    between atoms: C_6  and  C_7
REMARK    4  A    between atoms: C_13  and  S_14
REMARK    5  A    between atoms: S_14  and  C_17
REMARK    6  A    between atoms: C_17  and  C_18
REMARK                            x       y       z     vdW  Elec       q    Type
REMARK                         _______ _______ _______ _____ _____    ______ ____
ROOT
ATOM      1  C   UNL     1       1.339   8.206  20.568  0.00  0.00    +0.000 C 
ATOM      2  O   UNL     1       1.953   8.500  19.550  0.00  0.00    +0.000 OA
ATOM      3  N   UNL     1       1.227   6.948  21.120  0.00  0.00    +0.000 N 
ATOM      4  C   UNL     1       1.852   5.801  20.677  0.00  0.00    +0.000 A 
ATOM      5  N   UNL     1       1.516   4.603  21.118  0.00  0.00    +0.000 NA
ATOM      6  N   UNL     1       2.298   3.596  20.574  0.00  0.00    +0.000 NA
ATOM      7  C   UNL     1       3.218   4.093  19.774  0.00  0.00    +0.000 A 
ATOM      8  S   UNL     1       3.174   5.794  19.593  0.00  0.00    +0.000 S 
ATOM      9  H   UNL     1       0.528   6.779  21.831  0.00  0.00    +0.000 HD
ENDROOT
BRANCH   1  13
ATOM     10  C   UNL     1      -0.729  11.421  22.579  0.00  0.00    +0.000 A 
ATOM     11  C   UNL     1      -0.083  11.627  21.358  0.00  0.00    +0.000 A 
ATOM     12  C   UNL     1       0.562  10.572  20.704  0.00  0.00    +0.000 A 
ATOM     13  C   UNL     1       0.575   9.290  21.268  0.00  0.00    +0.000 A 
ATOM     14  C   UNL     1      -0.063   9.082  22.498  0.00  0.00    +0.000 A 
ATOM     15  C   UNL     1      -0.714  10.147  23.150  0.00  0.00    +0.000 A 
BRANCH  10  17
ATOM     16  C   UNL     1      -1.404  13.680  22.299  0.00  0.00    +0.000 C 
ATOM     17  O   UNL     1      -1.281  12.539  23.138  0.00  0.00    +0.000 OA
ENDBRANCH  10  17
ENDBRANCH   1  13
BRANCH   7  18
ATOM     18  S   UNL     1       4.481   3.171  18.948  0.00  0.00    +0.000 S 
ATOM     19  O   UNL     1       4.998   2.254  19.945  0.00  0.00    +0.000 OA
ATOM     20  O   UNL     1       3.855   2.708  17.720  0.00  0.00    +0.000 OA
BRANCH  18  21
ATOM     21  C   UNL     1       5.722   4.403  18.563  0.00  0.00    +0.000 C 
BRANCH  21  22
ATOM     22  C   UNL     1       5.747   4.665  17.071  0.00  0.00    +0.000 A 
ATOM     23  C   UNL     1       6.275   3.710  16.187  0.00  0.00    +0.000 A 
ATOM     24  C   UNL     1       6.292   3.943  14.809  0.00  0.00    +0.000 A 
ATOM     25  C   UNL     1       5.783   5.133  14.294  0.00  0.00    +0.000 A 
ATOM     26  C   UNL     1       5.255   6.089  15.158  0.00  0.00    +0.000 A 
ATOM     27  C   UNL     1       5.238   5.859  16.538  0.00  0.00    +0.000 A 
ENDBRANCH  21  22
ENDBRANCH  18  21
ENDBRANCH   7  18
TORSDOF 5
ENDMDL
MODEL 6
REMARK VINA RESULT:      -7.6      5.736      8.031
REMARK  Name = 
REMARK  6 active torsions:
REMARK  status: ('A' for Active; 'I' for Inactive)
REMARK    1  A    between atoms: C_1  and  O_2
REMARK    2  A    between atoms: O_2  and  C_3
REMARK    3  A    between atoms: C_6  and  C_7
REMARK    4  A    between atoms: C_13  and  S_14
REMARK    5  A    between atoms: S_14  and  C_17
REMARK    6  A    between atoms: C_17  and  C_18
REMARK                            x       y       z     vdW  Elec       q    Type
REMARK                         _______ _______ _______ _____ _____    ______ ____
ROOT
ATOM      1  C   UNL     1       1.747   8.361  19.599  0.00  0.00    +0.000 C 
ATOM      2  O   UNL     1       1.833   8.698  18.425  0.00  0.00    +0.000 OA
ATOM      3  N   UNL     1       2.260   7.211  20.159  0.00  0.00    +0.000 N 
ATOM      4  C   UNL     1       3.036   6.266  19.521  0.00  0.00    +0.000 A 
ATOM      5  N   UNL     1       3.294   5.089  20.060  0.00  0.00    +0.000 NA
ATOM      6  N   UNL     1       4.127   4.312  19.269  0.00  0.00    +0.000 NA
ATOM      7  C   UNL     1       4.490   4.963  18.183  0.00  0.00    +0.000 A 
ATOM      8  S   UNL     1       3.821   6.530  18.025  0.00  0.00    +0.000 S 
ATOM      9  H   UNL     1       1.951   6.926  21.078  0.00  0.00    +0.000 HD
ENDROOT
BRANCH   1  13
ATOM     10  C   UNL     1      -0.616  10.759  22.306  0.00  0.00    +0.000 A 
ATOM     11  C   UNL     1      -0.052   9.549  22.715  0.00  0.00    +0.000 A 
ATOM     12  C   UNL     1       0.732   8.793  21.837  0.00  0.00    +0.000 A 
ATOM     13  C   UNL     1       0.959   9.237  20.527  0.00  0.00    +0.000 A 
ATOM     14  C   UNL     1       0.385  10.446  20.111  0.00  0.00    +0.000 A 
ATOM     15  C   UNL     1      -0.400  11.203  21.000  0.00  0.00    +0.000 A 
BRANCH  10  17
ATOM     16  C   UNL     1      -1.393  12.801  23.237  0.00  0.00    +0.000 C 
ATOM     17  O   UNL     1      -1.398  11.378  23.239  0.00  0.00    +0.000 OA
ENDBRANCH  10  17
ENDBRANCH   1  13
BRANCH   7  18
ATOM     18  S   UNL     1       5.617   4.378  16.953  0.00  0.00    +0.000 S 
ATOM     19  O   UNL     1       6.938   4.623  17.498  0.00  0.00    +0.000 OA
ATOM     20  O   UNL     1       5.147   3.041  16.629  0.00  0.00    +0.000 OA
BRANCH  18  21
ATOM     21  C   UNL     1       5.329   5.469  15.563  0.00  0.00    +0.000 C 
BRANCH  21  22
ATOM     22  C   UNL     1       5.926   4.873  14.304  0.00  0.00    +0.000 A 
ATOM     23  C   UNL     1       5.187   3.970  13.523  0.00  0.00    +0.000 A 
ATOM     24  C   UNL     1       5.729   3.423  12.355  0.00  0.00    +0.000 A 
ATOM     25  C   UNL     1       7.017   3.771  11.953  0.00  0.00    +0.000 A 
ATOM     26  C   UNL     1       7.762   4.665  12.718  0.00  0.00    +0.000 A 
ATOM     27  C   UNL     1       7.222   5.212  13.887  0.00  0.00    +0.000 A 
ENDBRANCH  21  22
ENDBRANCH  18  21
ENDBRANCH   7  18
TORSDOF 5
ENDMDL
MODEL 7
REMARK VINA RESULT:      -7.6      5.693      8.058
REMARK  Name = 
REMARK  6 active torsions:
REMARK  status: ('A' for Active; 'I' for Inactive)
REMARK    1  A    between atoms: C_1  and  O_2
REMARK    2  A    between atoms: O_2  and  C_3
REMARK    3  A    between atoms: C_6  and  C_7
REMARK    4  A    between atoms: C_13  and  S_14
REMARK    5  A    between atoms: S_14  and  C_17
REMARK    6  A    between atoms: C_17  and  C_18
REMARK                            x       y       z     vdW  Elec       q    Type
REMARK                         _______ _______ _______ _____ _____    ______ ____
ROOT
ATOM      1  C   UNL     1       1.811   8.157  19.671  0.00  0.00    +0.000 C 
ATOM      2  O   UNL     1       1.940   8.573  18.526  0.00  0.00    +0.000 OA
ATOM      3  N   UNL     1       2.319   6.978  20.174  0.00  0.00    +0.000 N 
ATOM      4  C   UNL     1       3.134   6.087  19.506  0.00  0.00    +0.000 A 
ATOM      5  N   UNL     1       3.388   4.880  19.976  0.00  0.00    +0.000 NA
ATOM      6  N   UNL     1       4.263   4.168  19.170  0.00  0.00    +0.000 NA
ATOM      7  C   UNL     1       4.660   4.895  18.146  0.00  0.00    +0.000 A 
ATOM      8  S   UNL     1       3.974   6.461  18.065  0.00  0.00    +0.000 S 
ATOM      9  H   UNL     1       1.977   6.629  21.058  0.00  0.00    +0.000 HD
ENDROOT
BRANCH   1  13
ATOM     10  C   UNL     1      -0.529  10.599  22.357  0.00  0.00    +0.000 A 
ATOM     11  C   UNL     1      -0.502  10.854  20.984  0.00  0.00    +0.000 A 
ATOM     12  C   UNL     1       0.240  10.041  20.121  0.00  0.00    +0.000 A 
ATOM     13  C   UNL     1       0.974   8.959  20.622  0.00  0.00    +0.000 A 
ATOM     14  C   UNL     1       0.958   8.707  22.001  0.00  0.00    +0.000 A 
ATOM     15  C   UNL     1       0.206   9.527  22.864  0.00  0.00    +0.000 A 
BRANCH  10  17
ATOM     16  C   UNL     1      -2.114  12.368  22.381  0.00  0.00    +0.000 C 
ATOM     17  O   UNL     1      -1.251  11.492  23.097  0.00  0.00    +0.000 OA
ENDBRANCH  10  17
ENDBRANCH   1  13
BRANCH   7  18
ATOM     18  S   UNL     1       5.844   4.408  16.927  0.00  0.00    +0.000 S 
ATOM     19  O   UNL     1       7.136   4.744  17.493  0.00  0.00    +0.000 OA
ATOM     20  O   UNL     1       5.479   3.043  16.584  0.00  0.00    +0.000 OA
BRANCH  18  21
ATOM     21  C   UNL     1       5.495   5.488  15.542  0.00  0.00    +0.000 C 
BRANCH  21  22
ATOM     22  C   UNL     1       6.016   4.872  14.260  0.00  0.00    +0.000 A 
ATOM     23  C   UNL     1       7.299   5.190  13.786  0.00  0.00    +0.000 A 
ATOM     24  C   UNL     1       7.789   4.618  12.608  0.00  0.00    +0.000 A 
ATOM     25  C   UNL     1       7.004   3.721  11.887  0.00  0.00    +0.000 A 
ATOM     26  C   UNL     1       5.729   3.396  12.345  0.00  0.00    +0.000 A 
ATOM     27  C   UNL     1       5.237   3.968  13.523  0.00  0.00    +0.000 A 
ENDBRANCH  21  22
ENDBRANCH  18  21
ENDBRANCH   7  18
TORSDOF 5
ENDMDL
MODEL 8
REMARK VINA RESULT:      -7.4      7.852     10.742
REMARK  Name = 
REMARK  6 active torsions:
REMARK  status: ('A' for Active; 'I' for Inactive)
REMARK    1  A    between atoms: C_1  and  O_2
REMARK    2  A    between atoms: O_2  and  C_3
REMARK    3  A    between atoms: C_6  and  C_7
REMARK    4  A    between atoms: C_13  and  S_14
REMARK    5  A    between atoms: S_14  and  C_17
REMARK    6  A    between atoms: C_17  and  C_18
REMARK                            x       y       z     vdW  Elec       q    Type
REMARK                         _______ _______ _______ _____ _____    ______ ____
ROOT
ATOM      1  C   UNL     1       1.973   7.569  20.033  0.00  0.00    +0.000 C 
ATOM      2  O   UNL     1       2.030   8.303  19.054  0.00  0.00    +0.000 OA
ATOM      3  N   UNL     1       1.475   7.901  21.275  0.00  0.00    +0.000 N 
ATOM      4  C   UNL     1       0.874   9.093  21.624  0.00  0.00    +0.000 A 
ATOM      5  N   UNL     1       0.633   9.416  22.881  0.00  0.00    +0.000 NA
ATOM      6  N   UNL     1      -0.014  10.636  23.002  0.00  0.00    +0.000 NA
ATOM      7  C   UNL     1      -0.266  11.157  21.819  0.00  0.00    +0.000 A 
ATOM      8  S   UNL     1       0.295  10.235  20.491  0.00  0.00    +0.000 S 
ATOM      9  H   UNL     1       1.670   7.300  22.064  0.00  0.00    +0.000 HD
ENDROOT
BRANCH   1  13
ATOM     10  C   UNL     1       3.602   3.600  19.534  0.00  0.00    +0.000 A 
ATOM     11  C   UNL     1       4.072   4.676  18.778  0.00  0.00    +0.000 A 
ATOM     12  C   UNL     1       3.554   5.962  18.966  0.00  0.00    +0.000 A 
ATOM     13  C   UNL     1       2.548   6.190  19.914  0.00  0.00    +0.000 A 
ATOM     14  C   UNL     1       2.067   5.110  20.667  0.00  0.00    +0.000 A 
ATOM     15  C   UNL     1       2.595   3.819  20.476  0.00  0.00    +0.000 A 
BRANCH  10  17
ATOM     16  C   UNL     1       3.417   1.560  18.333  0.00  0.00    +0.000 C 
ATOM     17  O   UNL     1       4.154   2.389  19.224  0.00  0.00    +0.000 OA
ENDBRANCH  10  17
ENDBRANCH   1  13
BRANCH   7  18
ATOM     18  S   UNL     1      -1.155  12.655  21.515  0.00  0.00    +0.000 S 
ATOM     19  O   UNL     1      -0.218  13.524  20.830  0.00  0.00    +0.000 OA
ATOM     20  O   UNL     1      -2.402  12.225  20.904  0.00  0.00    +0.000 OA
BRANCH  18  21
ATOM     21  C   UNL     1      -1.480  13.296  23.155  0.00  0.00    +0.000 C 
BRANCH  21  22
ATOM     22  C   UNL     1      -2.970  13.477  23.356  0.00  0.00    +0.000 A 
ATOM     23  C   UNL     1      -3.717  12.519  24.061  0.00  0.00    +0.000 A 
ATOM     24  C   UNL     1      -5.091  12.685  24.257  0.00  0.00    +0.000 A 
ATOM     25  C   UNL     1      -5.739  13.810  23.750  0.00  0.00    +0.000 A 
ATOM     26  C   UNL     1      -5.012  14.768  23.048  0.00  0.00    +0.000 A 
ATOM     27  C   UNL     1      -3.637  14.604  22.851  0.00  0.00    +0.000 A 
ENDBRANCH  21  22
ENDBRANCH  18  21
ENDBRANCH   7  18
TORSDOF 5
ENDMDL
MODEL 9
REMARK VINA RESULT:      -7.4      5.640      7.571
REMARK  Name = 
REMARK  6 active torsions:
REMARK  status: ('A' for Active; 'I' for Inactive)
REMARK    1  A    between atoms: C_1  and  O_2
REMARK    2  A    between atoms: O_2  and  C_3
REMARK    3  A    between atoms: C_6  and  C_7
REMARK    4  A    between atoms: C_13  and  S_14
REMARK    5  A    between atoms: S_14  and  C_17
REMARK    6  A    between atoms: C_17  and  C_18
REMARK                            x       y       z     vdW  Elec       q    Type
REMARK                         _______ _______ _______ _____ _____    ______ ____
ROOT
ATOM      1  C   UNL     1       1.295   8.881  19.550  0.00  0.00    +0.000 C 
ATOM      2  O   UNL     1       1.558   8.302  20.597  0.00  0.00    +0.000 OA
ATOM      3  N   UNL     1       1.900   8.676  18.328  0.00  0.00    +0.000 N 
ATOM      4  C   UNL     1       2.856   7.725  18.038  0.00  0.00    +0.000 A 
ATOM      5  N   UNL     1       3.545   7.743  16.912  0.00  0.00    +0.000 NA
ATOM      6  N   UNL     1       4.420   6.673  16.806  0.00  0.00    +0.000 NA
ATOM      7  C   UNL     1       4.318   5.874  17.848  0.00  0.00    +0.000 A 
ATOM      8  S   UNL     1       3.196   6.379  19.036  0.00  0.00    +0.000 S 
ATOM      9  H   UNL     1       1.760   9.348  17.587  0.00  0.00    +0.000 HD
ENDROOT
BRANCH   1  13
ATOM     10  C   UNL     1      -1.748  11.938  19.784  0.00  0.00    +0.000 A 
ATOM     11  C   UNL     1      -0.916  11.659  20.870  0.00  0.00    +0.000 A 
ATOM     12  C   UNL     1       0.082  10.684  20.775  0.00  0.00    +0.000 A 
ATOM     13  C   UNL     1       0.260   9.965  19.585  0.00  0.00    +0.000 A 
ATOM     14  C   UNL     1      -0.580  10.235  18.497  0.00  0.00    +0.000 A 
ATOM     15  C   UNL     1      -1.581  11.220  18.598  0.00  0.00    +0.000 A 
BRANCH  10  17
ATOM     16  C   UNL     1      -4.063  12.466  19.835  0.00  0.00    +0.000 C 
ATOM     17  O   UNL     1      -2.713  12.876  20.018  0.00  0.00    +0.000 OA
ENDBRANCH  10  17
ENDBRANCH   1  13
BRANCH   7  18
ATOM     18  S   UNL     1       5.183   4.348  18.072  0.00  0.00    +0.000 S 
ATOM     19  O   UNL     1       6.170   4.309  17.010  0.00  0.00    +0.000 OA
ATOM     20  O   UNL     1       5.555   4.339  19.477  0.00  0.00    +0.000 OA
BRANCH  18  21
ATOM     21  C   UNL     1       3.931   3.104  17.774  0.00  0.00    +0.000 C 
BRANCH  21  22
ATOM     22  C   UNL     1       2.995   3.015  18.962  0.00  0.00    +0.000 A 
ATOM     23  C   UNL     1       3.490   2.698  20.238  0.00  0.00    +0.000 A 
ATOM     24  C   UNL     1       2.633   2.623  21.340  0.00  0.00    +0.000 A 
ATOM     25  C   UNL     1       1.270   2.864  21.183  0.00  0.00    +0.000 A 
ATOM     26  C   UNL     1       0.764   3.180  19.924  0.00  0.00    +0.000 A 
ATOM     27  C   UNL     1       1.620   3.254  18.820  0.00  0.00    +0.000 A 
ENDBRANCH  21  22
ENDBRANCH  18  21
ENDBRANCH   7  18
TORSDOF 5
ENDMDL
