MODEL 1
REMARK VINA RESULT:      -7.9      0.000      0.000
REMARK  Name = 
REMARK  10 active torsions:
REMARK  status: ('A' for Active; 'I' for Inactive)
REMARK    1  A    between atoms: C_1  and  C_2
REMARK    2  A    between atoms: C_2  and  C_3
REMARK    3  A    between atoms: C_3  and  C_4
REMARK    4  A    between atoms: C_4  and  N_5
REMARK    5  A    between atoms: N_5  and  C_6
REMARK    6  A    between atoms: C_8  and  N_9
REMARK    7  A    between atoms: C_10  and  C_11
REMARK    8  A    between atoms: C_16  and  C_17
REMARK    9  A    between atoms: C_16  and  C_18
REMARK   10  A    between atoms: C_24  and  C_25
REMARK                            x       y       z     vdW  Elec       q    Type
REMARK                         _______ _______ _______ _____ _____    ______ ____
ROOT
ATOM      1  C   UNL     1       1.406   8.890  20.207  0.00  0.00    +0.000 A 
ATOM      2  C   UNL     1       2.060   7.678  19.901  0.00  0.00    +0.000 A 
ATOM      3  C   UNL     1       2.419   7.318  18.597  0.00  0.00    +0.000 A 
ATOM      4  C   UNL     1       2.075   8.184  17.566  0.00  0.00    +0.000 A 
ATOM      5  C   UNL     1       1.554   9.432  17.845  0.00  0.00    +0.000 A 
ATOM      6  C   UNL     1       1.252   9.824  19.161  0.00  0.00    +0.000 A 
ENDROOT
BRANCH   3   7
ATOM      7  N   UNL     1       3.206   6.151  18.350  0.00  0.00    +0.000 N 
ATOM      8  C   UNL     1       4.354   6.060  17.566  0.00  0.00    +0.000 A 
ATOM      9  C   UNL     1       5.120   7.211  16.996  0.00  0.00    +0.000 C 
ATOM     10  C   UNL     1       4.690   4.725  17.445  0.00  0.00    +0.000 A 
ATOM     11  C   UNL     1       3.763   3.971  18.194  0.00  0.00    +0.000 A 
ATOM     12  C   UNL     1       2.896   4.853  18.783  0.00  0.00    +0.000 A 
ATOM     13  C   UNL     1       1.744   4.472  19.649  0.00  0.00    +0.000 C 
ATOM     14  C   UNL     1       1.502   2.952  19.829  0.00  0.00    +0.000 C 
ATOM     15  C   UNL     1       0.143   2.610  19.179  0.00  0.00    +0.000 C 
ATOM     16  C   UNL     1       1.382   2.693  21.353  0.00  0.00    +0.000 C 
ATOM     17  C   UNL     1       2.588   1.990  19.271  0.00  0.00    +0.000 C 
ATOM     18  C   UNL     1       3.669   2.536  18.358  0.00  0.00    +0.000 C 
ATOM     19  O   UNL     1       4.455   1.774  17.801  0.00  0.00    +0.000 OA
ENDBRANCH   3   7
BRANCH   6  20
ATOM     20  C   UNL     1       0.933  11.267  19.367  0.00  0.00    +0.000 C 
ATOM     21  N   UNL     1       0.128  11.895  18.447  0.00  0.00    +0.000 N 
ATOM     22  O   UNL     1       1.415  11.932  20.267  0.00  0.00    +0.000 OA
ATOM     23  H   UNL     1      -0.181  11.501  17.577  0.00  0.00    +0.000 HD
ATOM     24  H   UNL     1       0.012  12.894  18.574  0.00  0.00    +0.000 HD
ENDBRANCH   6  20
BRANCH   1  25
ATOM     25  N   UNL     1       1.079   9.008  21.566  0.00  0.00    +0.000 N 
ATOM     26  H   UNL     1       1.552   9.811  21.979  0.00  0.00    +0.000 HD
BRANCH  25  27
ATOM     27  C   UNL     1      -0.300   8.895  22.014  0.00  0.00    +0.000 C 
BRANCH  27  28
ATOM     28  C   UNL     1      -0.560   9.900  23.143  0.00  0.00    +0.000 C 
BRANCH  28  30
ATOM     29  C   UNL     1      -2.234  11.800  23.281  0.00  0.00    +0.000 C 
ATOM     30  C   UNL     1      -1.023  11.236  22.558  0.00  0.00    +0.000 C 
ENDBRANCH  28  30
ENDBRANCH  27  28
ENDBRANCH  25  27
ENDBRANCH   1  25
TORSDOF 6
ENDMDL
MODEL 2
REMARK VINA RESULT:      -7.6      2.774      7.417
REMARK  Name = 
REMARK  10 active torsions:
REMARK  status: ('A' for Active; 'I' for Inactive)
REMARK    1  A    between atoms: C_1  and  C_2
REMARK    2  A    between atoms: C_2  and  C_3
REMARK    3  A    between atoms: C_3  and  C_4
REMARK    4  A    between atoms: C_4  and  N_5
REMARK    5  A    between atoms: N_5  and  C_6
REMARK    6  A    between atoms: C_8  and  N_9
REMARK    7  A    between atoms: C_10  and  C_11
REMARK    8  A    between atoms: C_16  and  C_17
REMARK    9  A    between atoms: C_16  and  C_18
REMARK   10  A    between atoms: C_24  and  C_25
REMARK                            x       y       z     vdW  Elec       q    Type
REMARK                         _______ _______ _______ _____ _____    ______ ____
ROOT
ATOM      1  C   UNL     1       5.555   6.524  16.893  0.00  0.00    +0.000 A 
ATOM      2  C   UNL     1       4.631   6.852  17.906  0.00  0.00    +0.000 A 
ATOM      3  C   UNL     1       3.521   6.054  18.207  0.00  0.00    +0.000 A 
ATOM      4  C   UNL     1       3.312   4.916  17.438  0.00  0.00    +0.000 A 
ATOM      5  C   UNL     1       4.266   4.500  16.529  0.00  0.00    +0.000 A 
ATOM      6  C   UNL     1       5.416   5.265  16.271  0.00  0.00    +0.000 A 
ENDROOT
BRANCH   3   7
ATOM      7  N   UNL     1       2.693   6.347  19.335  0.00  0.00    +0.000 N 
ATOM      8  C   UNL     1       2.386   5.499  20.395  0.00  0.00    +0.000 A 
ATOM      9  C   UNL     1       3.033   4.181  20.681  0.00  0.00    +0.000 C 
ATOM     10  C   UNL     1       1.413   6.106  21.166  0.00  0.00    +0.000 A 
ATOM     11  C   UNL     1       1.132   7.368  20.602  0.00  0.00    +0.000 A 
ATOM     12  C   UNL     1       1.955   7.526  19.518  0.00  0.00    +0.000 A 
ATOM     13  C   UNL     1       1.971   8.716  18.621  0.00  0.00    +0.000 C 
ATOM     14  C   UNL     1       0.924   9.816  18.932  0.00  0.00    +0.000 C 
ATOM     15  C   UNL     1      -0.058   9.883  17.741  0.00  0.00    +0.000 C 
ATOM     16  C   UNL     1       1.691  11.162  18.996  0.00  0.00    +0.000 C 
ATOM     17  C   UNL     1       0.113   9.671  20.250  0.00  0.00    +0.000 C 
ATOM     18  C   UNL     1       0.172   8.366  21.021  0.00  0.00    +0.000 C 
ATOM     19  O   UNL     1      -0.562   8.184  21.989  0.00  0.00    +0.000 OA
ENDBRANCH   3   7
BRANCH   6  20
ATOM     20  C   UNL     1       6.485   4.605  15.466  0.00  0.00    +0.000 C 
ATOM     21  N   UNL     1       6.377   3.257  15.220  0.00  0.00    +0.000 N 
ATOM     22  O   UNL     1       7.485   5.188  15.085  0.00  0.00    +0.000 OA
ATOM     23  H   UNL     1       5.698   2.642  15.629  0.00  0.00    +0.000 HD
ATOM     24  H   UNL     1       7.169   2.832  14.750  0.00  0.00    +0.000 HD
ENDBRANCH   6  20
BRANCH   1  25
ATOM     25  N   UNL     1       6.547   7.502  16.718  0.00  0.00    +0.000 N 
ATOM     26  H   UNL     1       6.126   8.398  16.476  0.00  0.00    +0.000 HD
BRANCH  25  27
ATOM     27  C   UNL     1       7.629   7.648  17.680  0.00  0.00    +0.000 C 
BRANCH  27  28
ATOM     28  C   UNL     1       8.138   9.094  17.669  0.00  0.00    +0.000 C 
BRANCH  28  30
ATOM     29  C   UNL     1       9.562  10.756  18.949  0.00  0.00    +0.000 C 
ATOM     30  C   UNL     1       8.892   9.393  18.966  0.00  0.00    +0.000 C 
ENDBRANCH  28  30
ENDBRANCH  27  28
ENDBRANCH  25  27
ENDBRANCH   1  25
TORSDOF 6
ENDMDL
MODEL 3
REMARK VINA RESULT:      -7.5      2.252      4.424
REMARK  Name = 
REMARK  10 active torsions:
REMARK  status: ('A' for Active; 'I' for Inactive)
REMARK    1  A    between atoms: C_1  and  C_2
REMARK    2  A    between atoms: C_2  and  C_3
REMARK    3  A    between atoms: C_3  and  C_4
REMARK    4  A    between atoms: C_4  and  N_5
REMARK    5  A    between atoms: N_5  and  C_6
REMARK    6  A    between atoms: C_8  and  N_9
REMARK    7  A    between atoms: C_10  and  C_11
REMARK    8  A    between atoms: C_16  and  C_17
REMARK    9  A    between atoms: C_16  and  C_18
REMARK   10  A    between atoms: C_24  and  C_25
REMARK                            x       y       z     vdW  Elec       q    Type
REMARK                         _______ _______ _______ _____ _____    ______ ____
ROOT
ATOM      1  C   UNL     1       1.556   8.614  19.626  0.00  0.00    +0.000 A 
ATOM      2  C   UNL     1       2.262   7.775  18.738  0.00  0.00    +0.000 A 
ATOM      3  C   UNL     1       2.681   6.486  19.086  0.00  0.00    +0.000 A 
ATOM      4  C   UNL     1       2.420   6.044  20.376  0.00  0.00    +0.000 A 
ATOM      5  C   UNL     1       1.620   6.787  21.223  0.00  0.00    +0.000 A 
ATOM      6  C   UNL     1       1.141   8.056  20.853  0.00  0.00    +0.000 A 
ENDROOT
BRANCH   3   7
ATOM      7  N   UNL     1       3.265   5.619  18.110  0.00  0.00    +0.000 N 
ATOM      8  C   UNL     1       2.656   4.541  17.472  0.00  0.00    +0.000 A 
ATOM      9  C   UNL     1       1.200   4.204  17.516  0.00  0.00    +0.000 C 
ATOM     10  C   UNL     1       3.622   3.865  16.751  0.00  0.00    +0.000 A 
ATOM     11  C   UNL     1       4.846   4.549  16.910  0.00  0.00    +0.000 A 
ATOM     12  C   UNL     1       4.605   5.644  17.697  0.00  0.00    +0.000 A 
ATOM     13  C   UNL     1       5.635   6.631  18.128  0.00  0.00    +0.000 C 
ATOM     14  C   UNL     1       7.090   6.334  17.685  0.00  0.00    +0.000 C 
ATOM     15  C   UNL     1       7.924   6.055  18.954  0.00  0.00    +0.000 C 
ATOM     16  C   UNL     1       7.634   7.630  17.030  0.00  0.00    +0.000 C 
ATOM     17  C   UNL     1       7.300   5.171  16.674  0.00  0.00    +0.000 C 
ATOM     18  C   UNL     1       6.153   4.222  16.382  0.00  0.00    +0.000 C 
ATOM     19  O   UNL     1       6.335   3.222  15.693  0.00  0.00    +0.000 OA
ENDBRANCH   3   7
BRANCH   6  20
ATOM     20  C   UNL     1       0.093   8.652  21.734  0.00  0.00    +0.000 C 
ATOM     21  N   UNL     1       0.426   9.749  22.492  0.00  0.00    +0.000 N 
ATOM     22  O   UNL     1      -1.016   8.166  21.869  0.00  0.00    +0.000 OA
ATOM     23  H   UNL     1       1.350  10.126  22.598  0.00  0.00    +0.000 HD
ATOM     24  H   UNL     1      -0.284  10.065  23.142  0.00  0.00    +0.000 HD
ENDBRANCH   6  20
BRANCH   1  25
ATOM     25  N   UNL     1       1.300   9.887  19.091  0.00  0.00    +0.000 N 
ATOM     26  H   UNL     1       2.170  10.336  18.808  0.00  0.00    +0.000 HD
BRANCH  25  27
ATOM     27  C   UNL     1       0.238  10.087  18.118  0.00  0.00    +0.000 C 
BRANCH  27  28
ATOM     28  C   UNL     1      -1.045  10.521  18.836  0.00  0.00    +0.000 C 
BRANCH  28  30
ATOM     29  C   UNL     1      -3.047   9.731  17.495  0.00  0.00    +0.000 C 
ATOM     30  C   UNL     1      -2.119  10.891  17.812  0.00  0.00    +0.000 C 
ENDBRANCH  28  30
ENDBRANCH  27  28
ENDBRANCH  25  27
ENDBRANCH   1  25
TORSDOF 6
ENDMDL
MODEL 4
REMARK VINA RESULT:      -7.3      2.831      7.687
REMARK  Name = 
REMARK  10 active torsions:
REMARK  status: ('A' for Active; 'I' for Inactive)
REMARK    1  A    between atoms: C_1  and  C_2
REMARK    2  A    between atoms: C_2  and  C_3
REMARK    3  A    between atoms: C_3  and  C_4
REMARK    4  A    between atoms: C_4  and  N_5
REMARK    5  A    between atoms: N_5  and  C_6
REMARK    6  A    between atoms: C_8  and  N_9
REMARK    7  A    between atoms: C_10  and  C_11
REMARK    8  A    between atoms: C_16  and  C_17
REMARK    9  A    between atoms: C_16  and  C_18
REMARK   10  A    between atoms: C_24  and  C_25
REMARK                            x       y       z     vdW  Elec       q    Type
REMARK                         _______ _______ _______ _____ _____    ______ ____
ROOT
ATOM      1  C   UNL     1       2.130   7.543  19.703  0.00  0.00    +0.000 A 
ATOM      2  C   UNL     1       1.309   8.639  20.041  0.00  0.00    +0.000 A 
ATOM      3  C   UNL     1       1.124   9.737  19.194  0.00  0.00    +0.000 A 
ATOM      4  C   UNL     1       1.816   9.753  17.990  0.00  0.00    +0.000 A 
ATOM      5  C   UNL     1       2.521   8.640  17.573  0.00  0.00    +0.000 A 
ATOM      6  C   UNL     1       2.656   7.507  18.394  0.00  0.00    +0.000 A 
ENDROOT
BRANCH   3   7
ATOM      7  N   UNL     1       0.173  10.756  19.515  0.00  0.00    +0.000 N 
ATOM      8  C   UNL     1       0.261  11.697  20.537  0.00  0.00    +0.000 A 
ATOM      9  C   UNL     1       1.470  11.973  21.374  0.00  0.00    +0.000 C 
ATOM     10  C   UNL     1      -0.945  12.366  20.614  0.00  0.00    +0.000 A 
ATOM     11  C   UNL     1      -1.790  11.863  19.602  0.00  0.00    +0.000 A 
ATOM     12  C   UNL     1      -1.080  10.920  18.906  0.00  0.00    +0.000 A 
ATOM     13  C   UNL     1      -1.607  10.125  17.761  0.00  0.00    +0.000 C 
ATOM     14  C   UNL     1      -3.094  10.365  17.393  0.00  0.00    +0.000 C 
ATOM     15  C   UNL     1      -3.866   9.057  17.669  0.00  0.00    +0.000 C 
ATOM     16  C   UNL     1      -3.141  10.637  15.867  0.00  0.00    +0.000 C 
ATOM     17  C   UNL     1      -3.819  11.543  18.104  0.00  0.00    +0.000 C 
ATOM     18  C   UNL     1      -3.158  12.215  19.293  0.00  0.00    +0.000 C 
ATOM     19  O   UNL     1      -3.769  13.054  19.949  0.00  0.00    +0.000 OA
ENDBRANCH   3   7
BRANCH   6  20
ATOM     20  C   UNL     1       3.218   6.285  17.749  0.00  0.00    +0.000 C 
ATOM     21  N   UNL     1       4.413   6.393  17.079  0.00  0.00    +0.000 N 
ATOM     22  O   UNL     1       2.632   5.217  17.725  0.00  0.00    +0.000 OA
ATOM     23  H   UNL     1       4.896   7.250  16.881  0.00  0.00    +0.000 HD
ATOM     24  H   UNL     1       4.713   5.563  16.579  0.00  0.00    +0.000 HD
ENDBRANCH   6  20
BRANCH   1  25
ATOM     25  N   UNL     1       2.225   6.591  20.730  0.00  0.00    +0.000 N 
ATOM     26  H   UNL     1       2.367   7.050  21.629  0.00  0.00    +0.000 HD
BRANCH  25  27
ATOM     27  C   UNL     1       1.278   5.492  20.820  0.00  0.00    +0.000 C 
BRANCH  27  28
ATOM     28  C   UNL     1       2.033   4.176  21.038  0.00  0.00    +0.000 C 
BRANCH  28  30
ATOM     29  C   UNL     1       1.734   2.182  19.500  0.00  0.00    +0.000 C 
ATOM     30  C   UNL     1       1.148   2.992  20.644  0.00  0.00    +0.000 C 
ENDBRANCH  28  30
ENDBRANCH  27  28
ENDBRANCH  25  27
ENDBRANCH   1  25
TORSDOF 6
ENDMDL
MODEL 5
REMARK VINA RESULT:      -7.1      1.607      3.332
REMARK  Name = 
REMARK  10 active torsions:
REMARK  status: ('A' for Active; 'I' for Inactive)
REMARK    1  A    between atoms: C_1  and  C_2
REMARK    2  A    between atoms: C_2  and  C_3
REMARK    3  A    between atoms: C_3  and  C_4
REMARK    4  A    between atoms: C_4  and  N_5
REMARK    5  A    between atoms: N_5  and  C_6
REMARK    6  A    between atoms: C_8  and  N_9
REMARK    7  A    between atoms: C_10  and  C_11
REMARK    8  A    between atoms: C_16  and  C_17
REMARK    9  A    between atoms: C_16  and  C_18
REMARK   10  A    between atoms: C_24  and  C_25
REMARK                            x       y       z     vdW  Elec       q    Type
REMARK                         _______ _______ _______ _____ _____    ______ ____
ROOT
ATOM      1  C   UNL     1       1.149   9.949  20.025  0.00  0.00    +0.000 A 
ATOM      2  C   UNL     1       1.566   8.606  20.126  0.00  0.00    +0.000 A 
ATOM      3  C   UNL     1       2.048   7.877  19.032  0.00  0.00    +0.000 A 
ATOM      4  C   UNL     1       2.071   8.504  17.793  0.00  0.00    +0.000 A 
ATOM      5  C   UNL     1       1.793   9.853  17.686  0.00  0.00    +0.000 A 
ATOM      6  C   UNL     1       1.372  10.606  18.796  0.00  0.00    +0.000 A 
ENDROOT
BRANCH   3   7
ATOM      7  N   UNL     1       2.594   6.568  19.209  0.00  0.00    +0.000 N 
ATOM      8  C   UNL     1       2.186   5.604  20.128  0.00  0.00    +0.000 A 
ATOM      9  C   UNL     1       0.953   5.662  20.972  0.00  0.00    +0.000 C 
ATOM     10  C   UNL     1       3.093   4.561  20.091  0.00  0.00    +0.000 A 
ATOM     11  C   UNL     1       4.061   4.859  19.110  0.00  0.00    +0.000 A 
ATOM     12  C   UNL     1       3.718   6.057  18.543  0.00  0.00    +0.000 A 
ATOM     13  C   UNL     1       4.488   6.750  17.471  0.00  0.00    +0.000 C 
ATOM     14  C   UNL     1       5.805   6.063  17.028  0.00  0.00    +0.000 C 
ATOM     15  C   UNL     1       6.976   6.992  17.414  0.00  0.00    +0.000 C 
ATOM     16  C   UNL     1       5.762   5.964  15.481  0.00  0.00    +0.000 C 
ATOM     17  C   UNL     1       6.083   4.638  17.584  0.00  0.00    +0.000 C 
ATOM     18  C   UNL     1       5.229   4.100  18.717  0.00  0.00    +0.000 C 
ATOM     19  O   UNL     1       5.516   3.036  19.258  0.00  0.00    +0.000 OA
ENDBRANCH   3   7
BRANCH   6  20
ATOM     20  C   UNL     1       1.344  12.088  18.620  0.00  0.00    +0.000 C 
ATOM     21  N   UNL     1       2.180  12.650  17.685  0.00  0.00    +0.000 N 
ATOM     22  O   UNL     1       0.672  12.827  19.319  0.00  0.00    +0.000 OA
ATOM     23  H   UNL     1       2.899  12.165  17.180  0.00  0.00    +0.000 HD
ATOM     24  H   UNL     1       2.195  13.663  17.662  0.00  0.00    +0.000 HD
ENDBRANCH   6  20
BRANCH   1  25
ATOM     25  N   UNL     1       0.638  10.457  21.229  0.00  0.00    +0.000 N 
ATOM     26  H   UNL     1       0.107  11.311  21.060  0.00  0.00    +0.000 HD
BRANCH  25  27
ATOM     27  C   UNL     1      -0.022   9.583  22.187  0.00  0.00    +0.000 C 
BRANCH  27  28
ATOM     28  C   UNL     1      -0.896  10.418  23.130  0.00  0.00    +0.000 C 
BRANCH  28  30
ATOM     29  C   UNL     1      -1.263  12.927  23.079  0.00  0.00    +0.000 C 
ATOM     30  C   UNL     1      -1.500  11.602  22.374  0.00  0.00    +0.000 C 
ENDBRANCH  28  30
ENDBRANCH  27  28
ENDBRANCH  25  27
ENDBRANCH   1  25
TORSDOF 6
ENDMDL
MODEL 6
REMARK VINA RESULT:      -7.0      2.042      4.399
REMARK  Name = 
REMARK  10 active torsions:
REMARK  status: ('A' for Active; 'I' for Inactive)
REMARK    1  A    between atoms: C_1  and  C_2
REMARK    2  A    between atoms: C_2  and  C_3
REMARK    3  A    between atoms: C_3  and  C_4
REMARK    4  A    between atoms: C_4  and  N_5
REMARK    5  A    between atoms: N_5  and  C_6
REMARK    6  A    between atoms: C_8  and  N_9
REMARK    7  A    between atoms: C_10  and  C_11
REMARK    8  A    between atoms: C_16  and  C_17
REMARK    9  A    between atoms: C_16  and  C_18
REMARK   10  A    between atoms: C_24  and  C_25
REMARK                            x       y       z     vdW  Elec       q    Type
REMARK                         _______ _______ _______ _____ _____    ______ ____
ROOT
ATOM      1  C   UNL     1       1.509   9.076  19.173  0.00  0.00    +0.000 A 
ATOM      2  C   UNL     1       2.207   8.120  18.407  0.00  0.00    +0.000 A 
ATOM      3  C   UNL     1       2.578   6.868  18.912  0.00  0.00    +0.000 A 
ATOM      4  C   UNL     1       2.274   6.587  20.238  0.00  0.00    +0.000 A 
ATOM      5  C   UNL     1       1.481   7.447  20.972  0.00  0.00    +0.000 A 
ATOM      6  C   UNL     1       1.050   8.677  20.446  0.00  0.00    +0.000 A 
ENDROOT
BRANCH   3   7
ATOM      7  N   UNL     1       3.154   5.876  18.058  0.00  0.00    +0.000 N 
ATOM      8  C   UNL     1       2.524   4.753  17.529  0.00  0.00    +0.000 A 
ATOM      9  C   UNL     1       1.056   4.470  17.569  0.00  0.00    +0.000 C 
ATOM     10  C   UNL     1       3.483   3.968  16.917  0.00  0.00    +0.000 A 
ATOM     11  C   UNL     1       4.725   4.625  17.033  0.00  0.00    +0.000 A 
ATOM     12  C   UNL     1       4.504   5.810  17.683  0.00  0.00    +0.000 A 
ATOM     13  C   UNL     1       5.557   6.806  18.030  0.00  0.00    +0.000 C 
ATOM     14  C   UNL     1       7.012   6.413  17.665  0.00  0.00    +0.000 C 
ATOM     15  C   UNL     1       7.803   6.254  18.981  0.00  0.00    +0.000 C 
ATOM     16  C   UNL     1       7.618   7.607  16.883  0.00  0.00    +0.000 C 
ATOM     17  C   UNL     1       7.205   5.136  16.799  0.00  0.00    +0.000 C 
ATOM     18  C   UNL     1       6.033   4.198  16.584  0.00  0.00    +0.000 C 
ATOM     19  O   UNL     1       6.196   3.120  16.018  0.00  0.00    +0.000 OA
ENDBRANCH   3   7
BRANCH   6  20
ATOM     20  C   UNL     1       0.004   9.402  21.225  0.00  0.00    +0.000 C 
ATOM     21  N   UNL     1      -0.253   8.991  22.511  0.00  0.00    +0.000 N 
ATOM     22  O   UNL     1      -0.684  10.288  20.749  0.00  0.00    +0.000 OA
ATOM     23  H   UNL     1       0.121   8.167  22.946  0.00  0.00    +0.000 HD
ATOM     24  H   UNL     1      -1.032   9.449  22.971  0.00  0.00    +0.000 HD
ENDBRANCH   6  20
BRANCH   1  25
ATOM     25  N   UNL     1       1.306  10.284  18.488  0.00  0.00    +0.000 N 
ATOM     26  H   UNL     1       0.639  10.871  18.989  0.00  0.00    +0.000 HD
BRANCH  25  27
ATOM     27  C   UNL     1       2.431  11.050  17.975  0.00  0.00    +0.000 C 
BRANCH  27  28
ATOM     28  C   UNL     1       2.248  12.532  18.321  0.00  0.00    +0.000 C 
BRANCH  28  30
ATOM     29  C   UNL     1       0.503  14.285  18.882  0.00  0.00    +0.000 C 
ATOM     30  C   UNL     1       0.793  12.804  18.709  0.00  0.00    +0.000 C 
ENDBRANCH  28  30
ENDBRANCH  27  28
ENDBRANCH  25  27
ENDBRANCH   1  25
TORSDOF 6
ENDMDL
MODEL 7
REMARK VINA RESULT:      -7.0      4.617      9.067
REMARK  Name = 
REMARK  10 active torsions:
REMARK  status: ('A' for Active; 'I' for Inactive)
REMARK    1  A    between atoms: C_1  and  C_2
REMARK    2  A    between atoms: C_2  and  C_3
REMARK    3  A    between atoms: C_3  and  C_4
REMARK    4  A    between atoms: C_4  and  N_5
REMARK    5  A    between atoms: N_5  and  C_6
REMARK    6  A    between atoms: C_8  and  N_9
REMARK    7  A    between atoms: C_10  and  C_11
REMARK    8  A    between atoms: C_16  and  C_17
REMARK    9  A    between atoms: C_16  and  C_18
REMARK   10  A    between atoms: C_24  and  C_25
REMARK                            x       y       z     vdW  Elec       q    Type
REMARK                         _______ _______ _______ _____ _____    ______ ____
ROOT
ATOM      1  C   UNL     1       0.107  10.797  19.254  0.00  0.00    +0.000 A 
ATOM      2  C   UNL     1      -1.272  10.916  19.523  0.00  0.00    +0.000 A 
ATOM      3  C   UNL     1      -1.947  12.142  19.497  0.00  0.00    +0.000 A 
ATOM      4  C   UNL     1      -1.205  13.286  19.234  0.00  0.00    +0.000 A 
ATOM      5  C   UNL     1       0.115  13.189  18.840  0.00  0.00    +0.000 A 
ATOM      6  C   UNL     1       0.780  11.952  18.800  0.00  0.00    +0.000 A 
ENDROOT
BRANCH   3   7
ATOM      7  N   UNL     1      -3.369  12.197  19.634  0.00  0.00    +0.000 N 
ATOM      8  C   UNL     1      -4.318  12.024  18.629  0.00  0.00    +0.000 A 
ATOM      9  C   UNL     1      -4.048  11.531  17.242  0.00  0.00    +0.000 C 
ATOM     10  C   UNL     1      -5.559  12.341  19.147  0.00  0.00    +0.000 A 
ATOM     11  C   UNL     1      -5.392  12.682  20.505  0.00  0.00    +0.000 A 
ATOM     12  C   UNL     1      -4.062  12.540  20.804  0.00  0.00    +0.000 A 
ATOM     13  C   UNL     1      -3.449  12.818  22.133  0.00  0.00    +0.000 C 
ATOM     14  C   UNL     1      -4.406  13.365  23.223  0.00  0.00    +0.000 C 
ATOM     15  C   UNL     1      -3.959  14.803  23.566  0.00  0.00    +0.000 C 
ATOM     16  C   UNL     1      -4.202  12.486  24.484  0.00  0.00    +0.000 C 
ATOM     17  C   UNL     1      -5.926  13.372  22.894  0.00  0.00    +0.000 C 
ATOM     18  C   UNL     1      -6.380  13.115  21.470  0.00  0.00    +0.000 C 
ATOM     19  O   UNL     1      -7.562  13.246  21.162  0.00  0.00    +0.000 OA
ENDBRANCH   3   7
BRANCH   6  20
ATOM     20  C   UNL     1       2.112  11.935  18.128  0.00  0.00    +0.000 C 
ATOM     21  N   UNL     1       2.779  13.127  17.972  0.00  0.00    +0.000 N 
ATOM     22  O   UNL     1       2.599  10.929  17.643  0.00  0.00    +0.000 OA
ATOM     23  H   UNL     1       2.401  14.036  18.169  0.00  0.00    +0.000 HD
ATOM     24  H   UNL     1       3.634  13.084  17.430  0.00  0.00    +0.000 HD
ENDBRANCH   6  20
BRANCH   1  25
ATOM     25  N   UNL     1       0.585   9.486  19.406  0.00  0.00    +0.000 N 
ATOM     26  H   UNL     1       1.131   9.209  18.592  0.00  0.00    +0.000 HD
BRANCH  25  27
ATOM     27  C   UNL     1       1.201   9.057  20.651  0.00  0.00    +0.000 C 
BRANCH  27  28
ATOM     28  C   UNL     1       0.115   8.604  21.635  0.00  0.00    +0.000 C 
BRANCH  28  30
ATOM     29  C   UNL     1      -0.901  10.401  23.108  0.00  0.00    +0.000 C 
ATOM     30  C   UNL     1       0.226   9.397  22.939  0.00  0.00    +0.000 C 
ENDBRANCH  28  30
ENDBRANCH  27  28
ENDBRANCH  25  27
ENDBRANCH   1  25
TORSDOF 6
ENDMDL
MODEL 8
REMARK VINA RESULT:      -7.0      1.912      4.263
REMARK  Name = 
REMARK  10 active torsions:
REMARK  status: ('A' for Active; 'I' for Inactive)
REMARK    1  A    between atoms: C_1  and  C_2
REMARK    2  A    between atoms: C_2  and  C_3
REMARK    3  A    between atoms: C_3  and  C_4
REMARK    4  A    between atoms: C_4  and  N_5
REMARK    5  A    between atoms: N_5  and  C_6
REMARK    6  A    between atoms: C_8  and  N_9
REMARK    7  A    between atoms: C_10  and  C_11
REMARK    8  A    between atoms: C_16  and  C_17
REMARK    9  A    between atoms: C_16  and  C_18
REMARK   10  A    between atoms: C_24  and  C_25
REMARK                            x       y       z     vdW  Elec       q    Type
REMARK                         _______ _______ _______ _____ _____    ______ ____
ROOT
ATOM      1  C   UNL     1       0.933   9.447  19.396  0.00  0.00    +0.000 A 
ATOM      2  C   UNL     1       1.442   8.235  18.887  0.00  0.00    +0.000 A 
ATOM      3  C   UNL     1       1.969   7.230  19.706  0.00  0.00    +0.000 A 
ATOM      4  C   UNL     1       2.022   7.468  21.074  0.00  0.00    +0.000 A 
ATOM      5  C   UNL     1       1.414   8.585  21.614  0.00  0.00    +0.000 A 
ATOM      6  C   UNL     1       0.825   9.567  20.798  0.00  0.00    +0.000 A 
ENDROOT
BRANCH   3   7
ATOM      7  N   UNL     1       2.341   5.962  19.162  0.00  0.00    +0.000 N 
ATOM      8  C   UNL     1       1.874   4.709  19.552  0.00  0.00    +0.000 A 
ATOM      9  C   UNL     1       0.725   4.449  20.474  0.00  0.00    +0.000 C 
ATOM     10  C   UNL     1       2.623   3.747  18.902  0.00  0.00    +0.000 A 
ATOM     11  C   UNL     1       3.548   4.405  18.065  0.00  0.00    +0.000 A 
ATOM     12  C   UNL     1       3.332   5.751  18.192  0.00  0.00    +0.000 A 
ATOM     13  C   UNL     1       4.109   6.813  17.491  0.00  0.00    +0.000 C 
ATOM     14  C   UNL     1       5.283   6.324  16.605  0.00  0.00    +0.000 C 
ATOM     15  C   UNL     1       6.596   6.841  17.231  0.00  0.00    +0.000 C 
ATOM     16  C   UNL     1       5.114   7.001  15.220  0.00  0.00    +0.000 C 
ATOM     17  C   UNL     1       5.403   4.792  16.369  0.00  0.00    +0.000 C 
ATOM     18  C   UNL     1       4.569   3.842  17.207  0.00  0.00    +0.000 C 
ATOM     19  O   UNL     1       4.745   2.628  17.131  0.00  0.00    +0.000 OA
ENDBRANCH   3   7
BRANCH   6  20
ATOM     20  C   UNL     1      -0.012  10.590  21.490  0.00  0.00    +0.000 C 
ATOM     21  N   UNL     1      -0.622  10.243  22.672  0.00  0.00    +0.000 N 
ATOM     22  O   UNL     1      -0.240  11.691  21.019  0.00  0.00    +0.000 OA
ATOM     23  H   UNL     1      -0.651   9.319  23.064  0.00  0.00    +0.000 HD
ATOM     24  H   UNL     1      -1.253  10.935  23.061  0.00  0.00    +0.000 HD
ENDBRANCH   6  20
BRANCH   1  25
ATOM     25  N   UNL     1       0.523  10.336  18.390  0.00  0.00    +0.000 N 
ATOM     26  H   UNL     1       1.328  10.671  17.861  0.00  0.00    +0.000 HD
BRANCH  25  27
ATOM     27  C   UNL     1      -0.605  10.020  17.529  0.00  0.00    +0.000 C 
BRANCH  27  28
ATOM     28  C   UNL     1      -1.916  10.279  18.280  0.00  0.00    +0.000 C 
BRANCH  28  30
ATOM     29  C   UNL     1      -2.856   9.888  15.957  0.00  0.00    +0.000 C 
ATOM     30  C   UNL     1      -3.102   9.778  17.453  0.00  0.00    +0.000 C 
ENDBRANCH  28  30
ENDBRANCH  27  28
ENDBRANCH  25  27
ENDBRANCH   1  25
TORSDOF 6
ENDMDL
MODEL 9
REMARK VINA RESULT:      -7.0      2.033      3.143
REMARK  Name = 
REMARK  10 active torsions:
REMARK  status: ('A' for Active; 'I' for Inactive)
REMARK    1  A    between atoms: C_1  and  C_2
REMARK    2  A    between atoms: C_2  and  C_3
REMARK    3  A    between atoms: C_3  and  C_4
REMARK    4  A    between atoms: C_4  and  N_5
REMARK    5  A    between atoms: N_5  and  C_6
REMARK    6  A    between atoms: C_8  and  N_9
REMARK    7  A    between atoms: C_10  and  C_11
REMARK    8  A    between atoms: C_16  and  C_17
REMARK    9  A    between atoms: C_16  and  C_18
REMARK   10  A    between atoms: C_24  and  C_25
REMARK                            x       y       z     vdW  Elec       q    Type
REMARK                         _______ _______ _______ _____ _____    ______ ____
ROOT
ATOM      1  C   UNL     1       0.627   9.558  19.039  0.00  0.00    +0.000 A 
ATOM      2  C   UNL     1       1.428   8.525  18.509  0.00  0.00    +0.000 A 
ATOM      3  C   UNL     1       2.194   7.672  19.312  0.00  0.00    +0.000 A 
ATOM      4  C   UNL     1       2.187   7.890  20.684  0.00  0.00    +0.000 A 
ATOM      5  C   UNL     1       1.315   8.805  21.242  0.00  0.00    +0.000 A 
ATOM      6  C   UNL     1       0.495   9.619  20.443  0.00  0.00    +0.000 A 
ENDROOT
BRANCH   3   7
ATOM      7  N   UNL     1       2.876   6.550  18.745  0.00  0.00    +0.000 N 
ATOM      8  C   UNL     1       3.762   6.561  17.670  0.00  0.00    +0.000 A 
ATOM      9  C   UNL     1       4.348   7.777  17.027  0.00  0.00    +0.000 C 
ATOM     10  C   UNL     1       4.045   5.251  17.331  0.00  0.00    +0.000 A 
ATOM     11  C   UNL     1       3.355   4.409  18.228  0.00  0.00    +0.000 A 
ATOM     12  C   UNL     1       2.689   5.211  19.116  0.00  0.00    +0.000 A 
ATOM     13  C   UNL     1       1.820   4.724  20.224  0.00  0.00    +0.000 C 
ATOM     14  C   UNL     1       1.627   3.189  20.313  0.00  0.00    +0.000 C 
ATOM     15  C   UNL     1       0.141   2.881  20.032  0.00  0.00    +0.000 C 
ATOM     16  C   UNL     1       1.931   2.782  21.779  0.00  0.00    +0.000 C 
ATOM     17  C   UNL     1       2.512   2.308  19.387  0.00  0.00    +0.000 C 
ATOM     18  C   UNL     1       3.302   2.963  18.270  0.00  0.00    +0.000 C 
ATOM     19  O   UNL     1       3.900   2.275  17.446  0.00  0.00    +0.000 OA
ENDBRANCH   3   7
BRANCH   6  20
ATOM     20  C   UNL     1      -0.574  10.383  21.151  0.00  0.00    +0.000 C 
ATOM     21  N   UNL     1      -0.790  10.120  22.483  0.00  0.00    +0.000 N 
ATOM     22  O   UNL     1      -1.312  11.171  20.586  0.00  0.00    +0.000 OA
ATOM     23  H   UNL     1      -0.369   9.374  23.005  0.00  0.00    +0.000 HD
ATOM     24  H   UNL     1      -1.583  10.593  22.900  0.00  0.00    +0.000 HD
ENDBRANCH   6  20
BRANCH   1  25
ATOM     25  N   UNL     1       0.004  10.332  18.048  0.00  0.00    +0.000 N 
ATOM     26  H   UNL     1       0.689  10.660  17.368  0.00  0.00    +0.000 HD
BRANCH  25  27
ATOM     27  C   UNL     1      -1.225   9.883  17.414  0.00  0.00    +0.000 C 
BRANCH  27  28
ATOM     28  C   UNL     1      -2.143  11.085  17.159  0.00  0.00    +0.000 C 
BRANCH  28  30
ATOM     29  C   UNL     1      -3.006  10.319  14.901  0.00  0.00    +0.000 C 
ATOM     30  C   UNL     1      -3.360  10.650  16.341  0.00  0.00    +0.000 C 
ENDBRANCH  28  30
ENDBRANCH  27  28
ENDBRANCH  25  27
ENDBRANCH   1  25
TORSDOF 6
ENDMDL
