MODEL 1
REMARK VINA RESULT:      -6.3      0.000      0.000
REMARK  Name = 
REMARK  1 active torsions:
REMARK  status: ('A' for Active; 'I' for Inactive)
REMARK    1  A    between atoms: N_5  and  N_6
REMARK                            x       y       z     vdW  Elec       q    Type
REMARK                         _______ _______ _______ _____ _____    ______ ____
ROOT
ATOM      1  C   UNL     1       1.129   2.847  20.451  0.00  0.00    +0.000 C 
ATOM      2  C   UNL     1       1.021   4.367  20.467  0.00  0.00    +0.000 C 
ATOM      3  C   UNL     1       2.323   5.096  20.168  0.00  0.00    +0.000 C 
ATOM      4  C   UNL     1       2.999   4.731  18.844  0.00  0.00    +0.000 C 
ATOM      5  N   UNL     1       3.720   3.452  18.925  0.00  0.00    +0.000 NA
ATOM      6  C   UNL     1       2.879   2.268  18.656  0.00  0.00    +0.000 C 
ATOM      7  C   UNL     1       1.397   2.311  19.050  0.00  0.00    +0.000 C 
ENDROOT
BRANCH   5   8
ATOM      8  N   UNL     1       4.793   3.471  17.965  0.00  0.00    +0.000 N 
ATOM      9  C   UNL     1       5.830   4.357  18.118  0.00  0.00    +0.000 C 
ATOM     10  N   UNL     1       6.476   4.885  17.127  0.00  0.00    +0.000 NA
ATOM     11  C   UNL     1       7.514   5.698  17.762  0.00  0.00    +0.000 C 
ATOM     12  C   UNL     1       7.208   5.663  19.240  0.00  0.00    +0.000 C 
ATOM     13  O   UNL     1       6.212   4.666  19.385  0.00  0.00    +0.000 OA
ATOM     14  H   UNL     1       4.514   3.489  16.985  0.00  0.00    +0.000 HD
ENDBRANCH   5   8
TORSDOF 1
ENDMDL
MODEL 2
REMARK VINA RESULT:      -6.1      1.361      2.238
REMARK  Name = 
REMARK  1 active torsions:
REMARK  status: ('A' for Active; 'I' for Inactive)
REMARK    1  A    between atoms: N_5  and  N_6
REMARK                            x       y       z     vdW  Elec       q    Type
REMARK                         _______ _______ _______ _____ _____    ______ ____
ROOT
ATOM      1  C   UNL     1       0.716   2.991  19.265  0.00  0.00    +0.000 C 
ATOM      2  C   UNL     1       1.625   1.787  19.046  0.00  0.00    +0.000 C 
ATOM      3  C   UNL     1       3.048   2.135  18.633  0.00  0.00    +0.000 C 
ATOM      4  C   UNL     1       3.803   3.073  19.579  0.00  0.00    +0.000 C 
ATOM      5  N   UNL     1       3.397   4.476  19.408  0.00  0.00    +0.000 NA
ATOM      6  C   UNL     1       2.213   4.862  20.204  0.00  0.00    +0.000 C 
ATOM      7  C   UNL     1       1.136   3.806  20.483  0.00  0.00    +0.000 C 
ENDROOT
BRANCH   5   8
ATOM      8  N   UNL     1       4.496   5.320  19.798  0.00  0.00    +0.000 N 
ATOM      9  C   UNL     1       5.689   5.242  19.122  0.00  0.00    +0.000 C 
ATOM     10  N   UNL     1       6.843   5.443  19.676  0.00  0.00    +0.000 NA
ATOM     11  C   UNL     1       7.800   5.318  18.576  0.00  0.00    +0.000 C 
ATOM     12  C   UNL     1       6.995   4.842  17.390  0.00  0.00    +0.000 C 
ATOM     13  O   UNL     1       5.643   4.966  17.792  0.00  0.00    +0.000 OA
ATOM     14  H   UNL     1       4.708   5.346  20.794  0.00  0.00    +0.000 HD
ENDBRANCH   5   8
TORSDOF 1
ENDMDL
MODEL 3
REMARK VINA RESULT:      -6.1      1.319      1.852
REMARK  Name = 
REMARK  1 active torsions:
REMARK  status: ('A' for Active; 'I' for Inactive)
REMARK    1  A    between atoms: N_5  and  N_6
REMARK                            x       y       z     vdW  Elec       q    Type
REMARK                         _______ _______ _______ _____ _____    ______ ____
ROOT
ATOM      1  C   UNL     1       1.050   3.176  20.180  0.00  0.00    +0.000 C 
ATOM      2  C   UNL     1       0.881   2.503  18.823  0.00  0.00    +0.000 C 
ATOM      3  C   UNL     1       1.957   2.853  17.805  0.00  0.00    +0.000 C 
ATOM      4  C   UNL     1       3.398   2.576  18.241  0.00  0.00    +0.000 C 
ATOM      5  N   UNL     1       3.908   3.609  19.153  0.00  0.00    +0.000 NA
ATOM      6  C   UNL     1       3.585   3.370  20.576  0.00  0.00    +0.000 C 
ATOM      7  C   UNL     1       2.274   2.654  20.924  0.00  0.00    +0.000 C 
ENDROOT
BRANCH   5   8
ATOM      8  N   UNL     1       5.340   3.669  19.021  0.00  0.00    +0.000 N 
ATOM      9  C   UNL     1       5.915   4.664  18.270  0.00  0.00    +0.000 C 
ATOM     10  N   UNL     1       7.014   4.515  17.600  0.00  0.00    +0.000 NA
ATOM     11  C   UNL     1       7.268   5.833  17.020  0.00  0.00    +0.000 C 
ATOM     12  C   UNL     1       6.042   6.658  17.335  0.00  0.00    +0.000 C 
ATOM     13  O   UNL     1       5.305   5.877  18.259  0.00  0.00    +0.000 OA
ATOM     14  H   UNL     1       5.803   2.793  18.779  0.00  0.00    +0.000 HD
ENDBRANCH   5   8
TORSDOF 1
ENDMDL
MODEL 4
REMARK VINA RESULT:      -6.0      1.610      2.473
REMARK  Name = 
REMARK  1 active torsions:
REMARK  status: ('A' for Active; 'I' for Inactive)
REMARK    1  A    between atoms: N_5  and  N_6
REMARK                            x       y       z     vdW  Elec       q    Type
REMARK                         _______ _______ _______ _____ _____    ______ ____
ROOT
ATOM      1  C   UNL     1       1.070   4.022  20.104  0.00  0.00    +0.000 C 
ATOM      2  C   UNL     1       1.412   2.537  20.099  0.00  0.00    +0.000 C 
ATOM      3  C   UNL     1       2.598   2.164  19.220  0.00  0.00    +0.000 C 
ATOM      4  C   UNL     1       3.905   2.902  19.520  0.00  0.00    +0.000 C 
ATOM      5  N   UNL     1       3.909   4.266  18.969  0.00  0.00    +0.000 NA
ATOM      6  C   UNL     1       3.302   5.277  19.860  0.00  0.00    +0.000 C 
ATOM      7  C   UNL     1       2.152   4.853  20.782  0.00  0.00    +0.000 C 
ENDROOT
BRANCH   5   8
ATOM      8  N   UNL     1       5.273   4.651  18.715  0.00  0.00    +0.000 N 
ATOM      9  C   UNL     1       5.734   4.711  17.423  0.00  0.00    +0.000 C 
ATOM     10  N   UNL     1       6.957   4.451  17.084  0.00  0.00    +0.000 NA
ATOM     11  C   UNL     1       6.997   4.703  15.644  0.00  0.00    +0.000 C 
ATOM     12  C   UNL     1       5.565   4.962  15.238  0.00  0.00    +0.000 C 
ATOM     13  O   UNL     1       4.858   5.094  16.458  0.00  0.00    +0.000 OA
ATOM     14  H   UNL     1       5.982   4.179  19.274  0.00  0.00    +0.000 HD
ENDBRANCH   5   8
TORSDOF 1
ENDMDL
MODEL 5
REMARK VINA RESULT:      -6.0      1.633      1.907
REMARK  Name = 
REMARK  1 active torsions:
REMARK  status: ('A' for Active; 'I' for Inactive)
REMARK    1  A    between atoms: N_5  and  N_6
REMARK                            x       y       z     vdW  Elec       q    Type
REMARK                         _______ _______ _______ _____ _____    ______ ____
ROOT
ATOM      1  C   UNL     1       2.150   3.772  20.944  0.00  0.00    +0.000 C 
ATOM      2  C   UNL     1       0.986   3.685  19.964  0.00  0.00    +0.000 C 
ATOM      3  C   UNL     1       1.365   3.917  18.508  0.00  0.00    +0.000 C 
ATOM      4  C   UNL     1       2.459   3.002  17.953  0.00  0.00    +0.000 C 
ATOM      5  N   UNL     1       3.802   3.421  18.382  0.00  0.00    +0.000 NA
ATOM      6  C   UNL     1       4.213   2.876  19.693  0.00  0.00    +0.000 C 
ATOM      7  C   UNL     1       3.137   2.626  20.758  0.00  0.00    +0.000 C 
ENDROOT
BRANCH   5   8
ATOM      8  N   UNL     1       4.754   2.985  17.395  0.00  0.00    +0.000 N 
ATOM      9  C   UNL     1       5.538   3.908  16.749  0.00  0.00    +0.000 C 
ATOM     10  N   UNL     1       5.946   3.774  15.526  0.00  0.00    +0.000 NA
ATOM     11  C   UNL     1       6.787   4.948  15.293  0.00  0.00    +0.000 C 
ATOM     12  C   UNL     1       6.618   5.817  16.517  0.00  0.00    +0.000 C 
ATOM     13  O   UNL     1       5.926   5.005  17.449  0.00  0.00    +0.000 OA
ATOM     14  H   UNL     1       4.403   2.333  16.694  0.00  0.00    +0.000 HD
ENDBRANCH   5   8
TORSDOF 1
ENDMDL
MODEL 6
REMARK VINA RESULT:      -6.0      1.772      2.484
REMARK  Name = 
REMARK  1 active torsions:
REMARK  status: ('A' for Active; 'I' for Inactive)
REMARK    1  A    between atoms: N_5  and  N_6
REMARK                            x       y       z     vdW  Elec       q    Type
REMARK                         _______ _______ _______ _____ _____    ______ ____
ROOT
ATOM      1  C   UNL     1       1.230   4.263  20.271  0.00  0.00    +0.000 C 
ATOM      2  C   UNL     1       0.712   2.903  19.819  0.00  0.00    +0.000 C 
ATOM      3  C   UNL     1       1.351   2.376  18.542  0.00  0.00    +0.000 C 
ATOM      4  C   UNL     1       2.878   2.267  18.559  0.00  0.00    +0.000 C 
ATOM      5  N   UNL     1       3.527   3.571  18.361  0.00  0.00    +0.000 NA
ATOM      6  C   UNL     1       3.713   4.347  19.604  0.00  0.00    +0.000 C 
ATOM      7  C   UNL     1       2.681   4.196  20.729  0.00  0.00    +0.000 C 
ENDROOT
BRANCH   5   8
ATOM      8  N   UNL     1       4.822   3.351  17.770  0.00  0.00    +0.000 N 
ATOM      9  C   UNL     1       5.232   4.130  16.717  0.00  0.00    +0.000 C 
ATOM     10  N   UNL     1       6.004   3.705  15.767  0.00  0.00    +0.000 NA
ATOM     11  C   UNL     1       6.218   4.879  14.920  0.00  0.00    +0.000 C 
ATOM     12  C   UNL     1       5.297   5.945  15.465  0.00  0.00    +0.000 C 
ATOM     13  O   UNL     1       4.823   5.425  16.695  0.00  0.00    +0.000 OA
ATOM     14  H   UNL     1       5.052   2.383  17.546  0.00  0.00    +0.000 HD
ENDBRANCH   5   8
TORSDOF 1
ENDMDL
MODEL 7
REMARK VINA RESULT:      -5.9      1.860      5.315
REMARK  Name = 
REMARK  1 active torsions:
REMARK  status: ('A' for Active; 'I' for Inactive)
REMARK    1  A    between atoms: N_5  and  N_6
REMARK                            x       y       z     vdW  Elec       q    Type
REMARK                         _______ _______ _______ _____ _____    ______ ____
ROOT
ATOM      1  C   UNL     1       7.525   4.686  17.084  0.00  0.00    +0.000 C 
ATOM      2  C   UNL     1       6.595   5.082  15.943  0.00  0.00    +0.000 C 
ATOM      3  C   UNL     1       5.112   4.972  16.269  0.00  0.00    +0.000 C 
ATOM      4  C   UNL     1       4.642   5.758  17.495  0.00  0.00    +0.000 C 
ATOM      5  N   UNL     1       4.982   5.076  18.753  0.00  0.00    +0.000 NA
ATOM      6  C   UNL     1       6.337   5.381  19.257  0.00  0.00    +0.000 C 
ATOM      7  C   UNL     1       7.453   5.670  18.245  0.00  0.00    +0.000 C 
ENDROOT
BRANCH   5   8
ATOM      8  N   UNL     1       4.029   5.470  19.757  0.00  0.00    +0.000 N 
ATOM      9  C   UNL     1       2.950   4.664  20.027  0.00  0.00    +0.000 C 
ATOM     10  N   UNL     1       1.793   5.114  20.400  0.00  0.00    +0.000 NA
ATOM     11  C   UNL     1       0.992   3.911  20.628  0.00  0.00    +0.000 C 
ATOM     12  C   UNL     1       1.843   2.760  20.145  0.00  0.00    +0.000 C 
ATOM     13  O   UNL     1       3.124   3.322  19.921  0.00  0.00    +0.000 OA
ATOM     14  H   UNL     1       3.690   6.430  19.701  0.00  0.00    +0.000 HD
ENDBRANCH   5   8
TORSDOF 1
ENDMDL
MODEL 8
REMARK VINA RESULT:      -5.8      1.196      1.226
REMARK  Name = 
REMARK  1 active torsions:
REMARK  status: ('A' for Active; 'I' for Inactive)
REMARK    1  A    between atoms: N_5  and  N_6
REMARK                            x       y       z     vdW  Elec       q    Type
REMARK                         _______ _______ _______ _____ _____    ______ ____
ROOT
ATOM      1  C   UNL     1       2.042   3.665  21.515  0.00  0.00    +0.000 C 
ATOM      2  C   UNL     1       1.455   4.750  20.619  0.00  0.00    +0.000 C 
ATOM      3  C   UNL     1       2.467   5.437  19.713  0.00  0.00    +0.000 C 
ATOM      4  C   UNL     1       3.271   4.513  18.795  0.00  0.00    +0.000 C 
ATOM      5  N   UNL     1       4.358   3.830  19.511  0.00  0.00    +0.000 NA
ATOM      6  C   UNL     1       3.947   2.574  20.174  0.00  0.00    +0.000 C 
ATOM      7  C   UNL     1       2.516   2.459  20.714  0.00  0.00    +0.000 C 
ENDROOT
BRANCH   5   8
ATOM      8  N   UNL     1       5.402   3.520  18.569  0.00  0.00    +0.000 N 
ATOM      9  C   UNL     1       6.079   4.538  17.944  0.00  0.00    +0.000 C 
ATOM     10  N   UNL     1       6.553   4.452  16.741  0.00  0.00    +0.000 NA
ATOM     11  C   UNL     1       7.235   5.728  16.527  0.00  0.00    +0.000 C 
ATOM     12  C   UNL     1       6.898   6.575  17.732  0.00  0.00    +0.000 C 
ATOM     13  O   UNL     1       6.284   5.683  18.645  0.00  0.00    +0.000 OA
ATOM     14  H   UNL     1       5.174   2.822  17.863  0.00  0.00    +0.000 HD
ENDBRANCH   5   8
TORSDOF 1
ENDMDL
MODEL 9
REMARK VINA RESULT:      -5.7      1.775      5.238
REMARK  Name = 
REMARK  1 active torsions:
REMARK  status: ('A' for Active; 'I' for Inactive)
REMARK    1  A    between atoms: N_5  and  N_6
REMARK                            x       y       z     vdW  Elec       q    Type
REMARK                         _______ _______ _______ _____ _____    ______ ____
ROOT
ATOM      1  C   UNL     1       7.307   6.744  17.469  0.00  0.00    +0.000 C 
ATOM      2  C   UNL     1       7.519   5.983  18.772  0.00  0.00    +0.000 C 
ATOM      3  C   UNL     1       6.290   5.240  19.278  0.00  0.00    +0.000 C 
ATOM      4  C   UNL     1       5.666   4.244  18.297  0.00  0.00    +0.000 C 
ATOM      5  N   UNL     1       4.855   4.912  17.270  0.00  0.00    +0.000 NA
ATOM      6  C   UNL     1       5.626   5.365  16.093  0.00  0.00    +0.000 C 
ATOM      7  C   UNL     1       7.083   5.805  16.291  0.00  0.00    +0.000 C 
ENDROOT
BRANCH   5   8
ATOM      8  N   UNL     1       3.843   3.994  16.818  0.00  0.00    +0.000 N 
ATOM      9  C   UNL     1       2.788   3.683  17.640  0.00  0.00    +0.000 C 
ATOM     10  N   UNL     1       2.198   2.529  17.646  0.00  0.00    +0.000 NA
ATOM     11  C   UNL     1       1.114   2.681  18.617  0.00  0.00    +0.000 C 
ATOM     12  C   UNL     1       1.330   4.032  19.257  0.00  0.00    +0.000 C 
ATOM     13  O   UNL     1       2.326   4.656  18.467  0.00  0.00    +0.000 OA
ATOM     14  H   UNL     1       4.181   3.124  16.407  0.00  0.00    +0.000 HD
ENDBRANCH   5   8
TORSDOF 1
ENDMDL
