MODEL 1
REMARK VINA RESULT:      -7.6      0.000      0.000
REMARK  Name = 
REMARK  8 active torsions:
REMARK  status: ('A' for Active; 'I' for Inactive)
REMARK    1  A    between atoms: C_1  and  O_2
REMARK    2  A    between atoms: O_2  and  C_3
REMARK    3  A    between atoms: C_5  and  C_6
REMARK    4  A    between atoms: N_7  and  N_8
REMARK    5  A    between atoms: C_9  and  C_11
REMARK    6  A    between atoms: C_14  and  N_15
REMARK    7  A    between atoms: C_16  and  C_18
REMARK    8  A    between atoms: C_29  and  O_30
REMARK                            x       y       z     vdW  Elec       q    Type
REMARK                         _______ _______ _______ _____ _____    ______ ____
ROOT
ATOM      1  N   UNL     1       1.390   8.905  20.062  0.00  0.00    +0.000 N 
ATOM      2  C   UNL     1       0.562   8.777  21.175  0.00  0.00    +0.000 C 
ATOM      3  O   UNL     1       0.488   7.790  21.900  0.00  0.00    +0.000 OA
ATOM      4  H   UNL     1       1.475   9.787  19.574  0.00  0.00    +0.000 HD
ENDROOT
BRANCH   2   5
ATOM      5  C   UNL     1      -0.273   9.971  21.495  0.00  0.00    +0.000 A 
ATOM      6  C   UNL     1      -0.689  10.847  20.497  0.00  0.00    +0.000 A 
ATOM      7  C   UNL     1      -1.474  11.957  20.819  0.00  0.00    +0.000 A 
ATOM      8  C   UNL     1      -1.883  12.216  22.130  0.00  0.00    +0.000 A 
ATOM      9  C   UNL     1      -1.484  11.320  23.132  0.00  0.00    +0.000 A 
ATOM     10  C   UNL     1      -0.687  10.203  22.815  0.00  0.00    +0.000 A 
BRANCH   8  11
ATOM     11  N   UNL     1      -2.694  13.330  22.486  0.00  0.00    +0.000 N 
ATOM     12  C   UNL     1      -4.074  13.303  22.618  0.00  0.00    +0.000 C 
ATOM     13  O   UNL     1      -4.791  12.315  22.468  0.00  0.00    +0.000 OA
ATOM     14  H   UNL     1      -2.205  14.188  22.707  0.00  0.00    +0.000 HD
BRANCH  12  15
ATOM     15  C   UNL     1      -4.788  14.555  22.982  0.00  0.00    +0.000 A 
ATOM     16  C   UNL     1      -6.010  14.938  22.435  0.00  0.00    +0.000 A 
ATOM     17  C   UNL     1      -6.610  16.079  22.948  0.00  0.00    +0.000 A 
ATOM     18  N   UNL     1      -6.082  16.839  23.934  0.00  0.00    +0.000 NA
ATOM     19  C   UNL     1      -4.901  16.446  24.446  0.00  0.00    +0.000 A 
ATOM     20  C   UNL     1      -4.223  15.327  24.007  0.00  0.00    +0.000 A 
ENDBRANCH  12  15
ENDBRANCH   8  11
ENDBRANCH   2   5
BRANCH   1  22
ATOM     21  C   UNL     1       2.324   7.681  18.406  0.00  0.00    +0.000 C 
ATOM     22  N   UNL     1       2.178   7.858  19.679  0.00  0.00    +0.000 NA
BRANCH  21  25
ATOM     23  C   UNL     1       5.195   5.817  16.775  0.00  0.00    +0.000 A 
ATOM     24  C   UNL     1       4.406   6.851  17.298  0.00  0.00    +0.000 A 
ATOM     25  C   UNL     1       3.158   6.580  17.868  0.00  0.00    +0.000 A 
ATOM     26  C   UNL     1       2.689   5.268  17.940  0.00  0.00    +0.000 A 
ATOM     27  C   UNL     1       3.482   4.235  17.437  0.00  0.00    +0.000 A 
ATOM     28 BR   UNL     1       2.839   2.453  17.571  0.00  0.00    +0.000 Br
ATOM     29  C   UNL     1       4.732   4.498  16.857  0.00  0.00    +0.000 A 
BRANCH  23  31
ATOM     30  C   UNL     1       7.293   6.849  17.213  0.00  0.00    +0.000 C 
ATOM     31  O   UNL     1       6.403   6.239  16.286  0.00  0.00    +0.000 OA
ENDBRANCH  23  31
BRANCH  29  32
ATOM     32  O   UNL     1       5.506   3.463  16.406  0.00  0.00    +0.000 OA
ATOM     33  H   UNL     1       6.095   3.806  15.711  0.00  0.00    +0.000 HD
ENDBRANCH  29  32
ENDBRANCH  21  25
ENDBRANCH   1  22
TORSDOF 7
ENDMDL
MODEL 2
REMARK VINA RESULT:      -7.4      1.318      1.845
REMARK  Name = 
REMARK  8 active torsions:
REMARK  status: ('A' for Active; 'I' for Inactive)
REMARK    1  A    between atoms: C_1  and  O_2
REMARK    2  A    between atoms: O_2  and  C_3
REMARK    3  A    between atoms: C_5  and  C_6
REMARK    4  A    between atoms: N_7  and  N_8
REMARK    5  A    between atoms: C_9  and  C_11
REMARK    6  A    between atoms: C_14  and  N_15
REMARK    7  A    between atoms: C_16  and  C_18
REMARK    8  A    between atoms: C_29  and  O_30
REMARK                            x       y       z     vdW  Elec       q    Type
REMARK                         _______ _______ _______ _____ _____    ______ ____
ROOT
ATOM      1  N   UNL     1       1.324   9.374  19.133  0.00  0.00    +0.000 N 
ATOM      2  C   UNL     1       0.144   9.911  18.625  0.00  0.00    +0.000 C 
ATOM      3  O   UNL     1      -0.364   9.627  17.545  0.00  0.00    +0.000 OA
ATOM      4  H   UNL     1       1.625   9.578  20.077  0.00  0.00    +0.000 HD
ENDROOT
BRANCH   2   5
ATOM      5  C   UNL     1      -0.548  10.895  19.508  0.00  0.00    +0.000 A 
ATOM      6  C   UNL     1      -0.153  11.076  20.831  0.00  0.00    +0.000 A 
ATOM      7  C   UNL     1      -0.812  12.006  21.639  0.00  0.00    +0.000 A 
ATOM      8  C   UNL     1      -1.862  12.791  21.156  0.00  0.00    +0.000 A 
ATOM      9  C   UNL     1      -2.244  12.625  19.816  0.00  0.00    +0.000 A 
ATOM     10  C   UNL     1      -1.588  11.685  18.998  0.00  0.00    +0.000 A 
BRANCH   8  11
ATOM     11  N   UNL     1      -2.542  13.755  21.952  0.00  0.00    +0.000 N 
ATOM     12  C   UNL     1      -3.631  13.490  22.770  0.00  0.00    +0.000 C 
ATOM     13  O   UNL     1      -4.150  12.388  22.941  0.00  0.00    +0.000 OA
ATOM     14  H   UNL     1      -2.157  14.690  21.950  0.00  0.00    +0.000 HD
BRANCH  12  15
ATOM     15  C   UNL     1      -4.247  14.607  23.532  0.00  0.00    +0.000 A 
ATOM     16  C   UNL     1      -3.536  15.453  24.380  0.00  0.00    +0.000 A 
ATOM     17  C   UNL     1      -4.222  16.519  24.942  0.00  0.00    +0.000 A 
ATOM     18  N   UNL     1      -5.530  16.782  24.725  0.00  0.00    +0.000 NA
ATOM     19  C   UNL     1      -6.194  15.951  23.900  0.00  0.00    +0.000 A 
ATOM     20  C   UNL     1      -5.604  14.862  23.291  0.00  0.00    +0.000 A 
ENDBRANCH  12  15
ENDBRANCH   8  11
ENDBRANCH   2   5
BRANCH   1  22
ATOM     21  C   UNL     1       2.398   7.389  18.985  0.00  0.00    +0.000 C 
ATOM     22  N   UNL     1       2.037   8.480  18.388  0.00  0.00    +0.000 NA
BRANCH  21  25
ATOM     23  C   UNL     1       5.045   5.694  16.865  0.00  0.00    +0.000 A 
ATOM     24  C   UNL     1       4.314   6.678  17.545  0.00  0.00    +0.000 A 
ATOM     25  C   UNL     1       3.173   6.341  18.281  0.00  0.00    +0.000 A 
ATOM     26  C   UNL     1       2.758   5.012  18.362  0.00  0.00    +0.000 A 
ATOM     27  C   UNL     1       3.496   4.028  17.702  0.00  0.00    +0.000 A 
ATOM     28 BR   UNL     1       2.931   2.221  17.849  0.00  0.00    +0.000 Br
ATOM     29  C   UNL     1       4.638   4.358  16.955  0.00  0.00    +0.000 A 
BRANCH  23  31
ATOM     30  C   UNL     1       7.254   6.559  17.039  0.00  0.00    +0.000 C 
ATOM     31  O   UNL     1       6.154   6.178  16.222  0.00  0.00    +0.000 OA
ENDBRANCH  23  31
BRANCH  29  32
ATOM     32  O   UNL     1       5.365   3.369  16.349  0.00  0.00    +0.000 OA
ATOM     33  H   UNL     1       4.742   2.697  16.017  0.00  0.00    +0.000 HD
ENDBRANCH  29  32
ENDBRANCH  21  25
ENDBRANCH   1  22
TORSDOF 7
ENDMDL
MODEL 3
REMARK VINA RESULT:      -7.4      1.401      2.293
REMARK  Name = 
REMARK  8 active torsions:
REMARK  status: ('A' for Active; 'I' for Inactive)
REMARK    1  A    between atoms: C_1  and  O_2
REMARK    2  A    between atoms: O_2  and  C_3
REMARK    3  A    between atoms: C_5  and  C_6
REMARK    4  A    between atoms: N_7  and  N_8
REMARK    5  A    between atoms: C_9  and  C_11
REMARK    6  A    between atoms: C_14  and  N_15
REMARK    7  A    between atoms: C_16  and  C_18
REMARK    8  A    between atoms: C_29  and  O_30
REMARK                            x       y       z     vdW  Elec       q    Type
REMARK                         _______ _______ _______ _____ _____    ______ ____
ROOT
ATOM      1  N   UNL     1       1.021   8.851  20.091  0.00  0.00    +0.000 N 
ATOM      2  C   UNL     1       0.897   9.282  21.409  0.00  0.00    +0.000 C 
ATOM      3  O   UNL     1       1.551   8.869  22.361  0.00  0.00    +0.000 OA
ATOM      4  H   UNL     1       0.521   9.312  19.342  0.00  0.00    +0.000 HD
ENDROOT
BRANCH   2   5
ATOM      5  C   UNL     1      -0.112  10.356  21.642  0.00  0.00    +0.000 A 
ATOM      6  C   UNL     1      -0.636  10.590  22.910  0.00  0.00    +0.000 A 
ATOM      7  C   UNL     1      -1.577  11.603  23.106  0.00  0.00    +0.000 A 
ATOM      8  C   UNL     1      -2.008  12.422  22.059  0.00  0.00    +0.000 A 
ATOM      9  C   UNL     1      -1.462  12.203  20.785  0.00  0.00    +0.000 A 
ATOM     10  C   UNL     1      -0.518  11.178  20.581  0.00  0.00    +0.000 A 
BRANCH   8  11
ATOM     11  N   UNL     1      -2.954  13.471  22.231  0.00  0.00    +0.000 N 
ATOM     12  C   UNL     1      -4.332  13.311  22.232  0.00  0.00    +0.000 C 
ATOM     13  O   UNL     1      -4.932  12.245  22.105  0.00  0.00    +0.000 OA
ATOM     14  H   UNL     1      -2.575  14.390  22.418  0.00  0.00    +0.000 HD
BRANCH  12  15
ATOM     15  C   UNL     1      -5.196  14.508  22.409  0.00  0.00    +0.000 A 
ATOM     16  C   UNL     1      -6.164  14.908  21.492  0.00  0.00    +0.000 A 
ATOM     17  C   UNL     1      -6.968  15.984  21.839  0.00  0.00    +0.000 A 
ATOM     18  N   UNL     1      -6.867  16.666  23.002  0.00  0.00    +0.000 NA
ATOM     19  C   UNL     1      -5.924  16.257  23.873  0.00  0.00    +0.000 A 
ATOM     20  C   UNL     1      -5.074  15.199  23.623  0.00  0.00    +0.000 A 
ENDBRANCH  12  15
ENDBRANCH   8  11
ENDBRANCH   2   5
BRANCH   1  22
ATOM     21  C   UNL     1       2.095   7.622  18.526  0.00  0.00    +0.000 C 
ATOM     22  N   UNL     1       1.905   7.857  19.784  0.00  0.00    +0.000 NA
BRANCH  21  25
ATOM     23  C   UNL     1       3.465   4.260  17.430  0.00  0.00    +0.000 A 
ATOM     24  C   UNL     1       2.582   5.264  17.851  0.00  0.00    +0.000 A 
ATOM     25  C   UNL     1       3.033   6.570  18.067  0.00  0.00    +0.000 A 
ATOM     26  C   UNL     1       4.372   6.896  17.847  0.00  0.00    +0.000 A 
ATOM     27  C   UNL     1       5.250   5.902  17.410  0.00  0.00    +0.000 A 
ATOM     28 BR   UNL     1       7.061   6.372  17.088  0.00  0.00    +0.000 Br
ATOM     29  C   UNL     1       4.807   4.587  17.197  0.00  0.00    +0.000 A 
BRANCH  23  31
ATOM     30  C   UNL     1       2.895   2.128  18.314  0.00  0.00    +0.000 C 
ATOM     31  O   UNL     1       2.864   3.046  17.228  0.00  0.00    +0.000 OA
ENDBRANCH  23  31
BRANCH  29  32
ATOM     32  O   UNL     1       5.680   3.641  16.731  0.00  0.00    +0.000 OA
ATOM     33  H   UNL     1       6.003   3.127  17.493  0.00  0.00    +0.000 HD
ENDBRANCH  29  32
ENDBRANCH  21  25
ENDBRANCH   1  22
TORSDOF 7
ENDMDL
MODEL 4
REMARK VINA RESULT:      -7.3      1.324      2.098
REMARK  Name = 
REMARK  8 active torsions:
REMARK  status: ('A' for Active; 'I' for Inactive)
REMARK    1  A    between atoms: C_1  and  O_2
REMARK    2  A    between atoms: O_2  and  C_3
REMARK    3  A    between atoms: C_5  and  C_6
REMARK    4  A    between atoms: N_7  and  N_8
REMARK    5  A    between atoms: C_9  and  C_11
REMARK    6  A    between atoms: C_14  and  N_15
REMARK    7  A    between atoms: C_16  and  C_18
REMARK    8  A    between atoms: C_29  and  O_30
REMARK                            x       y       z     vdW  Elec       q    Type
REMARK                         _______ _______ _______ _____ _____    ______ ____
ROOT
ATOM      1  N   UNL     1       1.285   8.875  19.845  0.00  0.00    +0.000 N 
ATOM      2  C   UNL     1       0.855   9.066  21.155  0.00  0.00    +0.000 C 
ATOM      3  O   UNL     1       1.222   8.418  22.130  0.00  0.00    +0.000 OA
ATOM      4  H   UNL     1       1.018   9.516  19.109  0.00  0.00    +0.000 HD
ENDROOT
BRANCH   2   5
ATOM      5  C   UNL     1      -0.120  10.177  21.356  0.00  0.00    +0.000 A 
ATOM      6  C   UNL     1      -0.685  10.844  20.272  0.00  0.00    +0.000 A 
ATOM      7  C   UNL     1      -1.598  11.880  20.484  0.00  0.00    +0.000 A 
ATOM      8  C   UNL     1      -1.990  12.268  21.768  0.00  0.00    +0.000 A 
ATOM      9  C   UNL     1      -1.439  11.580  22.859  0.00  0.00    +0.000 A 
ATOM     10  C   UNL     1      -0.513  10.539  22.653  0.00  0.00    +0.000 A 
BRANCH   8  11
ATOM     11  N   UNL     1      -2.928  13.310  22.013  0.00  0.00    +0.000 N 
ATOM     12  C   UNL     1      -4.077  13.185  22.781  0.00  0.00    +0.000 C 
ATOM     13  O   UNL     1      -4.438  12.169  23.373  0.00  0.00    +0.000 OA
ATOM     14  H   UNL     1      -2.697  14.219  21.634  0.00  0.00    +0.000 HD
BRANCH  12  15
ATOM     15  C   UNL     1      -4.971  14.362  22.934  0.00  0.00    +0.000 A 
ATOM     16  C   UNL     1      -6.254  14.436  22.398  0.00  0.00    +0.000 A 
ATOM     17  C   UNL     1      -7.015  15.553  22.712  0.00  0.00    +0.000 A 
ATOM     18  N   UNL     1      -6.589  16.569  23.495  0.00  0.00    +0.000 NA
ATOM     19  C   UNL     1      -5.345  16.472  24.002  0.00  0.00    +0.000 A 
ATOM     20  C   UNL     1      -4.509  15.403  23.751  0.00  0.00    +0.000 A 
ENDBRANCH  12  15
ENDBRANCH   8  11
ENDBRANCH   2   5
BRANCH   1  22
ATOM     21  C   UNL     1       2.114   7.382  18.361  0.00  0.00    +0.000 C 
ATOM     22  N   UNL     1       2.163   7.869  19.560  0.00  0.00    +0.000 NA
BRANCH  21  25
ATOM     23  C   UNL     1       3.395   3.937  17.432  0.00  0.00    +0.000 A 
ATOM     24  C   UNL     1       2.544   4.978  17.826  0.00  0.00    +0.000 A 
ATOM     25  C   UNL     1       3.018   6.290  17.932  0.00  0.00    +0.000 A 
ATOM     26  C   UNL     1       4.347   6.582  17.627  0.00  0.00    +0.000 A 
ATOM     27  C   UNL     1       5.193   5.550  17.217  0.00  0.00    +0.000 A 
ATOM     28 BR   UNL     1       6.992   5.972  16.779  0.00  0.00    +0.000 Br
ATOM     29  C   UNL     1       4.727   4.229  17.115  0.00  0.00    +0.000 A 
BRANCH  23  31
ATOM     30  C   UNL     1       2.934   1.835  18.444  0.00  0.00    +0.000 C 
ATOM     31  O   UNL     1       2.773   2.720  17.342  0.00  0.00    +0.000 OA
ENDBRANCH  23  31
BRANCH  29  32
ATOM     32  O   UNL     1       5.568   3.243  16.674  0.00  0.00    +0.000 OA
ATOM     33  H   UNL     1       5.514   2.498  17.299  0.00  0.00    +0.000 HD
ENDBRANCH  29  32
ENDBRANCH  21  25
ENDBRANCH   1  22
TORSDOF 7
ENDMDL
MODEL 5
REMARK VINA RESULT:      -7.3      1.931      2.284
REMARK  Name = 
REMARK  8 active torsions:
REMARK  status: ('A' for Active; 'I' for Inactive)
REMARK    1  A    between atoms: C_1  and  O_2
REMARK    2  A    between atoms: O_2  and  C_3
REMARK    3  A    between atoms: C_5  and  C_6
REMARK    4  A    between atoms: N_7  and  N_8
REMARK    5  A    between atoms: C_9  and  C_11
REMARK    6  A    between atoms: C_14  and  N_15
REMARK    7  A    between atoms: C_16  and  C_18
REMARK    8  A    between atoms: C_29  and  O_30
REMARK                            x       y       z     vdW  Elec       q    Type
REMARK                         _______ _______ _______ _____ _____    ______ ____
ROOT
ATOM      1  N   UNL     1       1.274   9.684  17.821  0.00  0.00    +0.000 N 
ATOM      2  C   UNL     1       0.795   9.723  19.128  0.00  0.00    +0.000 C 
ATOM      3  O   UNL     1       1.237   9.075  20.071  0.00  0.00    +0.000 OA
ATOM      4  H   UNL     1       0.928  10.324  17.119  0.00  0.00    +0.000 HD
ENDROOT
BRANCH   2   5
ATOM      5  C   UNL     1      -0.340  10.661  19.368  0.00  0.00    +0.000 A 
ATOM      6  C   UNL     1      -0.482  11.322  20.585  0.00  0.00    +0.000 A 
ATOM      7  C   UNL     1      -1.550  12.200  20.787  0.00  0.00    +0.000 A 
ATOM      8  C   UNL     1      -2.492  12.460  19.787  0.00  0.00    +0.000 A 
ATOM      9  C   UNL     1      -2.335  11.812  18.553  0.00  0.00    +0.000 A 
ATOM     10  C   UNL     1      -1.263  10.922  18.345  0.00  0.00    +0.000 A 
BRANCH   8  11
ATOM     11  N   UNL     1      -3.581  13.358  19.960  0.00  0.00    +0.000 N 
ATOM     12  C   UNL     1      -4.633  13.177  20.845  0.00  0.00    +0.000 C 
ATOM     13  O   UNL     1      -4.767  12.229  21.618  0.00  0.00    +0.000 OA
ATOM     14  H   UNL     1      -3.543  14.217  19.426  0.00  0.00    +0.000 HD
BRANCH  12  15
ATOM     15  C   UNL     1      -5.711  14.199  20.902  0.00  0.00    +0.000 A 
ATOM     16  C   UNL     1      -5.687  15.392  20.184  0.00  0.00    +0.000 A 
ATOM     17  C   UNL     1      -6.811  16.202  20.252  0.00  0.00    +0.000 A 
ATOM     18  N   UNL     1      -7.917  15.911  20.973  0.00  0.00    +0.000 NA
ATOM     19  C   UNL     1      -7.915  14.751  21.657  0.00  0.00    +0.000 A 
ATOM     20  C   UNL     1      -6.848  13.875  21.655  0.00  0.00    +0.000 A 
ENDBRANCH  12  15
ENDBRANCH   8  11
ENDBRANCH   2   5
BRANCH   1  22
ATOM     21  C   UNL     1       2.224   7.636  17.969  0.00  0.00    +0.000 C 
ATOM     22  N   UNL     1       2.299   8.840  17.501  0.00  0.00    +0.000 NA
BRANCH  21  25
ATOM     23  C   UNL     1       5.526   6.081  16.943  0.00  0.00    +0.000 A 
ATOM     24  C   UNL     1       4.532   7.028  17.224  0.00  0.00    +0.000 A 
ATOM     25  C   UNL     1       3.273   6.629  17.687  0.00  0.00    +0.000 A 
ATOM     26  C   UNL     1       2.998   5.277  17.894  0.00  0.00    +0.000 A 
ATOM     27  C   UNL     1       3.993   4.333  17.633  0.00  0.00    +0.000 A 
ATOM     28 BR   UNL     1       3.608   2.501  17.948  0.00  0.00    +0.000 Br
ATOM     29  C   UNL     1       5.256   4.724  17.161  0.00  0.00    +0.000 A 
BRANCH  23  31
ATOM     30  C   UNL     1       7.387   7.467  17.465  0.00  0.00    +0.000 C 
ATOM     31  O   UNL     1       6.711   6.631  16.533  0.00  0.00    +0.000 OA
ENDBRANCH  23  31
BRANCH  29  32
ATOM     32  O   UNL     1       6.226   3.781  16.949  0.00  0.00    +0.000 OA
ATOM     33  H   UNL     1       6.298   3.237  17.753  0.00  0.00    +0.000 HD
ENDBRANCH  29  32
ENDBRANCH  21  25
ENDBRANCH   1  22
TORSDOF 7
ENDMDL
MODEL 6
REMARK VINA RESULT:      -7.3      1.355      1.549
REMARK  Name = 
REMARK  8 active torsions:
REMARK  status: ('A' for Active; 'I' for Inactive)
REMARK    1  A    between atoms: C_1  and  O_2
REMARK    2  A    between atoms: O_2  and  C_3
REMARK    3  A    between atoms: C_5  and  C_6
REMARK    4  A    between atoms: N_7  and  N_8
REMARK    5  A    between atoms: C_9  and  C_11
REMARK    6  A    between atoms: C_14  and  N_15
REMARK    7  A    between atoms: C_16  and  C_18
REMARK    8  A    between atoms: C_29  and  O_30
REMARK                            x       y       z     vdW  Elec       q    Type
REMARK                         _______ _______ _______ _____ _____    ______ ____
ROOT
ATOM      1  N   UNL     1       1.437   9.591  18.810  0.00  0.00    +0.000 N 
ATOM      2  C   UNL     1       0.161   9.892  18.342  0.00  0.00    +0.000 C 
ATOM      3  O   UNL     1      -0.381   9.383  17.366  0.00  0.00    +0.000 OA
ATOM      4  H   UNL     1       1.777   9.975  19.683  0.00  0.00    +0.000 HD
ENDROOT
BRANCH   2   5
ATOM      5  C   UNL     1      -0.591  10.910  19.133  0.00  0.00    +0.000 A 
ATOM      6  C   UNL     1      -1.580  11.692  18.544  0.00  0.00    +0.000 A 
ATOM      7  C   UNL     1      -2.274  12.636  19.305  0.00  0.00    +0.000 A 
ATOM      8  C   UNL     1      -2.022  12.816  20.667  0.00  0.00    +0.000 A 
ATOM      9  C   UNL     1      -1.042  12.010  21.266  0.00  0.00    +0.000 A 
ATOM     10  C   UNL     1      -0.335  11.061  20.503  0.00  0.00    +0.000 A 
BRANCH   8  11
ATOM     11  N   UNL     1      -2.722  13.759  21.470  0.00  0.00    +0.000 N 
ATOM     12  C   UNL     1      -3.873  13.491  22.196  0.00  0.00    +0.000 C 
ATOM     13  O   UNL     1      -4.441  12.402  22.267  0.00  0.00    +0.000 OA
ATOM     14  H   UNL     1      -2.306  14.678  21.548  0.00  0.00    +0.000 HD
BRANCH  12  15
ATOM     15  C   UNL     1      -4.503  14.587  22.979  0.00  0.00    +0.000 A 
ATOM     16  C   UNL     1      -5.876  14.814  23.030  0.00  0.00    +0.000 A 
ATOM     17  C   UNL     1      -6.328  15.807  23.887  0.00  0.00    +0.000 A 
ATOM     18  N   UNL     1      -5.524  16.566  24.664  0.00  0.00    +0.000 NA
ATOM     19  C   UNL     1      -4.201  16.325  24.597  0.00  0.00    +0.000 A 
ATOM     20  C   UNL     1      -3.650  15.361  23.778  0.00  0.00    +0.000 A 
ENDBRANCH  12  15
ENDBRANCH   8  11
ENDBRANCH   2   5
BRANCH   1  22
ATOM     21  C   UNL     1       2.342   7.522  18.691  0.00  0.00    +0.000 C 
ATOM     22  N   UNL     1       2.209   8.685  18.140  0.00  0.00    +0.000 NA
BRANCH  21  25
ATOM     23  C   UNL     1       5.105   5.768  16.776  0.00  0.00    +0.000 A 
ATOM     24  C   UNL     1       4.339   6.769  17.388  0.00  0.00    +0.000 A 
ATOM     25  C   UNL     1       3.152   6.454  18.058  0.00  0.00    +0.000 A 
ATOM     26  C   UNL     1       2.724   5.130  18.142  0.00  0.00    +0.000 A 
ATOM     27  C   UNL     1       3.495   4.128  17.549  0.00  0.00    +0.000 A 
ATOM     28 BR   UNL     1       2.910   2.327  17.699  0.00  0.00    +0.000 Br
ATOM     29  C   UNL     1       4.683   4.436  16.868  0.00  0.00    +0.000 A 
BRANCH  23  31
ATOM     30  C   UNL     1       7.325   6.570  17.066  0.00  0.00    +0.000 C 
ATOM     31  O   UNL     1       6.254   6.231  16.193  0.00  0.00    +0.000 OA
ENDBRANCH  23  31
BRANCH  29  32
ATOM     32  O   UNL     1       5.440   3.430  16.329  0.00  0.00    +0.000 OA
ATOM     33  H   UNL     1       6.059   3.118  17.013  0.00  0.00    +0.000 HD
ENDBRANCH  29  32
ENDBRANCH  21  25
ENDBRANCH   1  22
TORSDOF 7
ENDMDL
MODEL 7
REMARK VINA RESULT:      -7.2      1.784      2.661
REMARK  Name = 
REMARK  8 active torsions:
REMARK  status: ('A' for Active; 'I' for Inactive)
REMARK    1  A    between atoms: C_1  and  O_2
REMARK    2  A    between atoms: O_2  and  C_3
REMARK    3  A    between atoms: C_5  and  C_6
REMARK    4  A    between atoms: N_7  and  N_8
REMARK    5  A    between atoms: C_9  and  C_11
REMARK    6  A    between atoms: C_14  and  N_15
REMARK    7  A    between atoms: C_16  and  C_18
REMARK    8  A    between atoms: C_29  and  O_30
REMARK                            x       y       z     vdW  Elec       q    Type
REMARK                         _______ _______ _______ _____ _____    ______ ____
ROOT
ATOM      1  N   UNL     1       1.460   9.264  19.124  0.00  0.00    +0.000 N 
ATOM      2  C   UNL     1       0.285   9.769  18.573  0.00  0.00    +0.000 C 
ATOM      3  O   UNL     1      -0.189   9.451  17.487  0.00  0.00    +0.000 OA
ATOM      4  H   UNL     1       1.734   9.495  20.070  0.00  0.00    +0.000 HD
ENDROOT
BRANCH   2   5
ATOM      5  C   UNL     1      -0.445  10.762  19.414  0.00  0.00    +0.000 A 
ATOM      6  C   UNL     1      -0.192  10.873  20.778  0.00  0.00    +0.000 A 
ATOM      7  C   UNL     1      -0.885  11.813  21.546  0.00  0.00    +0.000 A 
ATOM      8  C   UNL     1      -1.827  12.677  20.982  0.00  0.00    +0.000 A 
ATOM      9  C   UNL     1      -2.064  12.581  19.602  0.00  0.00    +0.000 A 
ATOM     10  C   UNL     1      -1.373  11.631  18.824  0.00  0.00    +0.000 A 
BRANCH   8  11
ATOM     11  N   UNL     1      -2.537  13.652  21.736  0.00  0.00    +0.000 N 
ATOM     12  C   UNL     1      -3.795  13.471  22.293  0.00  0.00    +0.000 C 
ATOM     13  O   UNL     1      -4.466  12.442  22.233  0.00  0.00    +0.000 OA
ATOM     14  H   UNL     1      -2.051  14.521  21.916  0.00  0.00    +0.000 HD
BRANCH  12  15
ATOM     15  C   UNL     1      -4.417  14.592  23.045  0.00  0.00    +0.000 A 
ATOM     16  C   UNL     1      -5.792  14.801  23.128  0.00  0.00    +0.000 A 
ATOM     17  C   UNL     1      -6.234  15.826  23.953  0.00  0.00    +0.000 A 
ATOM     18  N   UNL     1      -5.418  16.631  24.670  0.00  0.00    +0.000 NA
ATOM     19  C   UNL     1      -4.095  16.406  24.574  0.00  0.00    +0.000 A 
ATOM     20  C   UNL     1      -3.553  15.414  23.782  0.00  0.00    +0.000 A 
ENDBRANCH  12  15
ENDBRANCH   8  11
ENDBRANCH   2   5
BRANCH   1  22
ATOM     21  C   UNL     1       2.357   7.195  18.955  0.00  0.00    +0.000 C 
ATOM     22  N   UNL     1       2.207   8.364  18.420  0.00  0.00    +0.000 NA
BRANCH  21  25
ATOM     23  C   UNL     1       3.333   3.848  17.464  0.00  0.00    +0.000 A 
ATOM     24  C   UNL     1       2.592   4.862  18.085  0.00  0.00    +0.000 A 
ATOM     25  C   UNL     1       3.144   6.132  18.285  0.00  0.00    +0.000 A 
ATOM     26  C   UNL     1       4.439   6.411  17.848  0.00  0.00    +0.000 A 
ATOM     27  C   UNL     1       5.172   5.408  17.212  0.00  0.00    +0.000 A 
ATOM     28 BR   UNL     1       6.923   5.816  16.599  0.00  0.00    +0.000 Br
ATOM     29  C   UNL     1       4.629   4.129  17.014  0.00  0.00    +0.000 A 
BRANCH  23  31
ATOM     30  C   UNL     1       2.187   2.040  18.499  0.00  0.00    +0.000 C 
ATOM     31  O   UNL     1       2.642   2.676  17.311  0.00  0.00    +0.000 OA
ENDBRANCH  23  31
BRANCH  29  32
ATOM     32  O   UNL     1       5.356   3.175  16.354  0.00  0.00    +0.000 OA
ATOM     33  H   UNL     1       6.017   3.628  15.800  0.00  0.00    +0.000 HD
ENDBRANCH  29  32
ENDBRANCH  21  25
ENDBRANCH   1  22
TORSDOF 7
ENDMDL
MODEL 8
REMARK VINA RESULT:      -7.2      1.529      2.351
REMARK  Name = 
REMARK  8 active torsions:
REMARK  status: ('A' for Active; 'I' for Inactive)
REMARK    1  A    between atoms: C_1  and  O_2
REMARK    2  A    between atoms: O_2  and  C_3
REMARK    3  A    between atoms: C_5  and  C_6
REMARK    4  A    between atoms: N_7  and  N_8
REMARK    5  A    between atoms: C_9  and  C_11
REMARK    6  A    between atoms: C_14  and  N_15
REMARK    7  A    between atoms: C_16  and  C_18
REMARK    8  A    between atoms: C_29  and  O_30
REMARK                            x       y       z     vdW  Elec       q    Type
REMARK                         _______ _______ _______ _____ _____    ______ ____
ROOT
ATOM      1  N   UNL     1       0.889   8.848  20.255  0.00  0.00    +0.000 N 
ATOM      2  C   UNL     1       0.939   9.507  21.481  0.00  0.00    +0.000 C 
ATOM      3  O   UNL     1       1.768   9.313  22.364  0.00  0.00    +0.000 OA
ATOM      4  H   UNL     1       0.239   9.135  19.534  0.00  0.00    +0.000 HD
ENDROOT
BRANCH   2   5
ATOM      5  C   UNL     1      -0.109  10.547  21.694  0.00  0.00    +0.000 A 
ATOM      6  C   UNL     1      -0.429  11.462  20.694  0.00  0.00    +0.000 A 
ATOM      7  C   UNL     1      -1.416  12.426  20.914  0.00  0.00    +0.000 A 
ATOM      8  C   UNL     1      -2.124  12.497  22.118  0.00  0.00    +0.000 A 
ATOM      9  C   UNL     1      -1.818  11.560  23.116  0.00  0.00    +0.000 A 
ATOM     10  C   UNL     1      -0.819  10.590  22.902  0.00  0.00    +0.000 A 
BRANCH   8  11
ATOM     11  N   UNL     1      -3.143  13.458  22.364  0.00  0.00    +0.000 N 
ATOM     12  C   UNL     1      -4.501  13.251  22.167  0.00  0.00    +0.000 C 
ATOM     13  O   UNL     1      -5.018  12.208  21.772  0.00  0.00    +0.000 OA
ATOM     14  H   UNL     1      -2.843  14.338  22.764  0.00  0.00    +0.000 HD
BRANCH  12  15
ATOM     15  C   UNL     1      -5.448  14.359  22.457  0.00  0.00    +0.000 A 
ATOM     16  C   UNL     1      -5.882  14.694  23.737  0.00  0.00    +0.000 A 
ATOM     17  C   UNL     1      -6.682  15.820  23.867  0.00  0.00    +0.000 A 
ATOM     18  N   UNL     1      -7.068  16.602  22.834  0.00  0.00    +0.000 NA
ATOM     19  C   UNL     1      -6.633  16.258  21.607  0.00  0.00    +0.000 A 
ATOM     20  C   UNL     1      -5.834  15.158  21.371  0.00  0.00    +0.000 A 
ENDBRANCH  12  15
ENDBRANCH   8  11
ENDBRANCH   2   5
BRANCH   1  22
ATOM     21  C   UNL     1       2.121   7.716  18.733  0.00  0.00    +0.000 C 
ATOM     22  N   UNL     1       1.796   7.866  19.977  0.00  0.00    +0.000 NA
BRANCH  21  25
ATOM     23  C   UNL     1       3.627   4.365  17.794  0.00  0.00    +0.000 A 
ATOM     24  C   UNL     1       2.707   5.348  18.185  0.00  0.00    +0.000 A 
ATOM     25  C   UNL     1       3.097   6.686  18.307  0.00  0.00    +0.000 A 
ATOM     26  C   UNL     1       4.409   7.063  18.021  0.00  0.00    +0.000 A 
ATOM     27  C   UNL     1       5.323   6.089  17.614  0.00  0.00    +0.000 A 
ATOM     28 BR   UNL     1       7.097   6.627  17.202  0.00  0.00    +0.000 Br
ATOM     29  C   UNL     1       4.942   4.743  17.496  0.00  0.00    +0.000 A 
BRANCH  23  31
ATOM     30  C   UNL     1       1.803   2.918  18.275  0.00  0.00    +0.000 C 
ATOM     31  O   UNL     1       3.084   3.113  17.688  0.00  0.00    +0.000 OA
ENDBRANCH  23  31
BRANCH  29  32
ATOM     32  O   UNL     1       5.848   3.815  17.058  0.00  0.00    +0.000 OA
ATOM     33  H   UNL     1       6.290   4.173  16.268  0.00  0.00    +0.000 HD
ENDBRANCH  29  32
ENDBRANCH  21  25
ENDBRANCH   1  22
TORSDOF 7
ENDMDL
MODEL 9
REMARK VINA RESULT:      -7.1      1.410      2.534
REMARK  Name = 
REMARK  8 active torsions:
REMARK  status: ('A' for Active; 'I' for Inactive)
REMARK    1  A    between atoms: C_1  and  O_2
REMARK    2  A    between atoms: O_2  and  C_3
REMARK    3  A    between atoms: C_5  and  C_6
REMARK    4  A    between atoms: N_7  and  N_8
REMARK    5  A    between atoms: C_9  and  C_11
REMARK    6  A    between atoms: C_14  and  N_15
REMARK    7  A    between atoms: C_16  and  C_18
REMARK    8  A    between atoms: C_29  and  O_30
REMARK                            x       y       z     vdW  Elec       q    Type
REMARK                         _______ _______ _______ _____ _____    ______ ____
ROOT
ATOM      1  N   UNL     1       1.388   9.182  19.374  0.00  0.00    +0.000 N 
ATOM      2  C   UNL     1       1.070   8.997  20.717  0.00  0.00    +0.000 C 
ATOM      3  O   UNL     1       1.515   8.113  21.442  0.00  0.00    +0.000 OA
ATOM      4  H   UNL     1       1.063   9.996  18.868  0.00  0.00    +0.000 HD
ENDROOT
BRANCH   2   5
ATOM      5  C   UNL     1       0.122   9.993  21.296  0.00  0.00    +0.000 A 
ATOM      6  C   UNL     1      -0.309   9.894  22.616  0.00  0.00    +0.000 A 
ATOM      7  C   UNL     1      -1.194  10.839  23.139  0.00  0.00    +0.000 A 
ATOM      8  C   UNL     1      -1.659  11.915  22.378  0.00  0.00    +0.000 A 
ATOM      9  C   UNL     1      -1.205  12.029  21.056  0.00  0.00    +0.000 A 
ATOM     10  C   UNL     1      -0.318  11.076  20.521  0.00  0.00    +0.000 A 
BRANCH   8  11
ATOM     11  N   UNL     1      -2.549  12.901  22.888  0.00  0.00    +0.000 N 
ATOM     12  C   UNL     1      -3.903  12.982  22.596  0.00  0.00    +0.000 C 
ATOM     13  O   UNL     1      -4.530  12.208  21.875  0.00  0.00    +0.000 OA
ATOM     14  H   UNL     1      -2.160  13.555  23.556  0.00  0.00    +0.000 HD
BRANCH  12  15
ATOM     15  C   UNL     1      -4.704  14.081  23.195  0.00  0.00    +0.000 A 
ATOM     16  C   UNL     1      -4.153  15.145  23.905  0.00  0.00    +0.000 A 
ATOM     17  C   UNL     1      -5.012  16.154  24.315  0.00  0.00    +0.000 A 
ATOM     18  N   UNL     1      -6.342  16.166  24.075  0.00  0.00    +0.000 NA
ATOM     19  C   UNL     1      -6.850  15.127  23.384  0.00  0.00    +0.000 A 
ATOM     20  C   UNL     1      -6.081  14.074  22.932  0.00  0.00    +0.000 A 
ENDBRANCH  12  15
ENDBRANCH   8  11
ENDBRANCH   2   5
BRANCH   1  22
ATOM     21  C   UNL     1       2.011   7.049  18.951  0.00  0.00    +0.000 C 
ATOM     22  N   UNL     1       2.233   8.309  18.751  0.00  0.00    +0.000 NA
BRANCH  21  25
ATOM     23  C   UNL     1       3.203   3.690  17.657  0.00  0.00    +0.000 A 
ATOM     24  C   UNL     1       2.403   4.686  18.234  0.00  0.00    +0.000 A 
ATOM     25  C   UNL     1       2.858   6.006  18.326  0.00  0.00    +0.000 A 
ATOM     26  C   UNL     1       4.112   6.352  17.825  0.00  0.00    +0.000 A 
ATOM     27  C   UNL     1       4.903   5.366  17.232  0.00  0.00    +0.000 A 
ATOM     28 BR   UNL     1       6.596   5.863  16.529  0.00  0.00    +0.000 Br
ATOM     29  C   UNL     1       4.457   4.038  17.142  0.00  0.00    +0.000 A 
BRANCH  23  31
ATOM     30  C   UNL     1       1.572   2.212  18.558  0.00  0.00    +0.000 C 
ATOM     31  O   UNL     1       2.603   2.460  17.609  0.00  0.00    +0.000 OA
ENDBRANCH  23  31
BRANCH  29  32
ATOM     32  O   UNL     1       5.237   3.098  16.522  0.00  0.00    +0.000 OA
ATOM     33  H   UNL     1       4.853   2.221  16.702  0.00  0.00    +0.000 HD
ENDBRANCH  29  32
ENDBRANCH  21  25
ENDBRANCH   1  22
TORSDOF 7
ENDMDL
