MODEL 1
REMARK VINA RESULT:      -7.8      0.000      0.000
REMARK  Name = 
REMARK  13 active torsions:
REMARK  status: ('A' for Active; 'I' for Inactive)
REMARK    1  A    between atoms: C_1  and  O_2
REMARK    2  A    between atoms: O_2  and  C_3
REMARK    3  A    between atoms: C_3  and  O_4
REMARK    4  A    between atoms: O_4  and  C_5
REMARK    5  A    between atoms: C_9  and  C_10
REMARK    6  A    between atoms: C_10  and  N_11
REMARK    7  A    between atoms: C_14  and  C_15
REMARK    8  A    between atoms: C_14  and  C_16
REMARK    9  A    between atoms: N_18  and  C_19
REMARK   10  A    between atoms: C_22  and  O_23
REMARK   11  A    between atoms: O_23  and  C_24
REMARK   12  A    between atoms: C_25  and  O_26
REMARK   13  A    between atoms: O_26  and  C_27
REMARK                            x       y       z     vdW  Elec       q    Type
REMARK                         _______ _______ _______ _____ _____    ______ ____
ROOT
ATOM      1  N   UNL     1       2.679   4.126  20.217  0.00  0.00    +0.000 NA
ATOM      2  C   UNL     1       2.911   2.920  21.025  0.00  0.00    +0.000 C 
ATOM      3  C   UNL     1       2.498   2.021  19.862  0.00  0.00    +0.000 C 
ATOM      4  C   UNL     1       2.149   3.308  19.069  0.00  0.00    +0.000 C 
ATOM      5  C   UNL     1       0.676   3.429  18.662  0.00  0.00    +0.000 C 
ENDROOT
BRANCH   4   6
ATOM      6  C   UNL     1       3.031   3.470  17.781  0.00  0.00    +0.000 C 
ATOM      7  O   UNL     1       2.589   3.178  16.667  0.00  0.00    +0.000 OA
ATOM      8  N   UNL     1       4.303   3.950  18.032  0.00  0.00    +0.000 N 
ATOM      9  H   UNL     1       4.573   3.967  19.007  0.00  0.00    +0.000 HD
BRANCH   8  10
ATOM     10  C   UNL     1       5.234   4.312  17.050  0.00  0.00    +0.000 A 
ATOM     11  C   UNL     1       5.373   3.577  15.871  0.00  0.00    +0.000 A 
ATOM     12  C   UNL     1       6.267   3.972  14.896  0.00  0.00    +0.000 A 
ATOM     13  C   UNL     1       7.041   5.118  15.068  0.00  0.00    +0.000 A 
ATOM     14  C   UNL     1       6.952   5.851  16.267  0.00  0.00    +0.000 A 
ATOM     15  C   UNL     1       6.023   5.452  17.243  0.00  0.00    +0.000 A 
BRANCH  13  16
ATOM     16  O   UNL     1       7.864   5.356  13.998  0.00  0.00    +0.000 OA
ATOM     17  C   UNL     1       7.461   4.798  12.756  0.00  0.00    +0.000 C 
ENDBRANCH  13  16
BRANCH  14  18
ATOM     18  O   UNL     1       7.814   6.904  16.433  0.00  0.00    +0.000 OA
ATOM     19  C   UNL     1       7.654   7.730  17.578  0.00  0.00    +0.000 C 
ENDBRANCH  14  18
ENDBRANCH   8  10
ENDBRANCH   4   6
BRANCH   1  20
ATOM     20  C   UNL     1       1.725   5.048  20.838  0.00  0.00    +0.000 C 
BRANCH  20  25
ATOM     21  C   UNL     1       1.075   8.826  20.704  0.00  0.00    +0.000 A 
ATOM     22  C   UNL     1       1.513   9.153  19.416  0.00  0.00    +0.000 A 
ATOM     23  C   UNL     1       2.090   8.174  18.600  0.00  0.00    +0.000 A 
ATOM     24  C   UNL     1       2.202   6.853  19.057  0.00  0.00    +0.000 A 
ATOM     25  C   UNL     1       1.766   6.489  20.327  0.00  0.00    +0.000 A 
ATOM     26  C   UNL     1       1.208   7.506  21.147  0.00  0.00    +0.000 A 
BRANCH  21  27
ATOM     27  O   UNL     1       0.467   9.831  21.405  0.00  0.00    +0.000 OA
BRANCH  27  28
ATOM     28  C   UNL     1      -0.246   9.431  22.571  0.00  0.00    +0.000 C 
BRANCH  28  30
ATOM     29  C   UNL     1      -1.292  11.513  22.962  0.00  0.00    +0.000 C 
ATOM     30  O   UNL     1      -0.428  10.516  23.485  0.00  0.00    +0.000 OA
ENDBRANCH  28  30
ENDBRANCH  27  28
ENDBRANCH  21  27
ENDBRANCH  20  25
ENDBRANCH   1  20
TORSDOF 9
ENDMDL
MODEL 2
REMARK VINA RESULT:      -7.3      1.470      1.669
REMARK  Name = 
REMARK  13 active torsions:
REMARK  status: ('A' for Active; 'I' for Inactive)
REMARK    1  A    between atoms: C_1  and  O_2
REMARK    2  A    between atoms: O_2  and  C_3
REMARK    3  A    between atoms: C_3  and  O_4
REMARK    4  A    between atoms: O_4  and  C_5
REMARK    5  A    between atoms: C_9  and  C_10
REMARK    6  A    between atoms: C_10  and  N_11
REMARK    7  A    between atoms: C_14  and  C_15
REMARK    8  A    between atoms: C_14  and  C_16
REMARK    9  A    between atoms: N_18  and  C_19
REMARK   10  A    between atoms: C_22  and  O_23
REMARK   11  A    between atoms: O_23  and  C_24
REMARK   12  A    between atoms: C_25  and  O_26
REMARK   13  A    between atoms: O_26  and  C_27
REMARK                            x       y       z     vdW  Elec       q    Type
REMARK                         _______ _______ _______ _____ _____    ______ ____
ROOT
ATOM      1  N   UNL     1       2.451   4.646  20.851  0.00  0.00    +0.000 NA
ATOM      2  C   UNL     1       2.316   3.626  21.900  0.00  0.00    +0.000 C 
ATOM      3  C   UNL     1       2.522   2.505  20.884  0.00  0.00    +0.000 C 
ATOM      4  C   UNL     1       2.545   3.594  19.778  0.00  0.00    +0.000 C 
ATOM      5  C   UNL     1       1.430   3.468  18.734  0.00  0.00    +0.000 C 
ENDROOT
BRANCH   4   6
ATOM      6  C   UNL     1       3.920   3.648  19.026  0.00  0.00    +0.000 C 
ATOM      7  O   UNL     1       4.832   2.866  19.309  0.00  0.00    +0.000 OA
ATOM      8  N   UNL     1       3.989   4.633  18.058  0.00  0.00    +0.000 N 
ATOM      9  H   UNL     1       3.232   5.305  18.072  0.00  0.00    +0.000 HD
BRANCH   8  10
ATOM     10  C   UNL     1       5.048   4.801  17.156  0.00  0.00    +0.000 A 
ATOM     11  C   UNL     1       5.253   3.911  16.099  0.00  0.00    +0.000 A 
ATOM     12  C   UNL     1       6.276   4.115  15.196  0.00  0.00    +0.000 A 
ATOM     13  C   UNL     1       7.118   5.220  15.318  0.00  0.00    +0.000 A 
ATOM     14  C   UNL     1       6.961   6.106  16.400  0.00  0.00    +0.000 A 
ATOM     15  C   UNL     1       5.901   5.901  17.301  0.00  0.00    +0.000 A 
BRANCH  13  16
ATOM     16  O   UNL     1       8.069   5.261  14.331  0.00  0.00    +0.000 OA
ATOM     17  C   UNL     1       7.602   5.103  12.999  0.00  0.00    +0.000 C 
ENDBRANCH  13  16
BRANCH  14  18
ATOM     18  O   UNL     1       7.883   7.111  16.537  0.00  0.00    +0.000 OA
ATOM     19  C   UNL     1       7.792   7.956  17.676  0.00  0.00    +0.000 C 
ENDBRANCH  14  18
ENDBRANCH   8  10
ENDBRANCH   4   6
BRANCH   1  20
ATOM     20  C   UNL     1       1.289   5.536  20.774  0.00  0.00    +0.000 C 
BRANCH  20  25
ATOM     21  C   UNL     1       1.044   9.318  20.187  0.00  0.00    +0.000 A 
ATOM     22  C   UNL     1       1.679   9.464  18.949  0.00  0.00    +0.000 A 
ATOM     23  C   UNL     1       2.258   8.356  18.321  0.00  0.00    +0.000 A 
ATOM     24  C   UNL     1       2.175   7.088  18.913  0.00  0.00    +0.000 A 
ATOM     25  C   UNL     1       1.541   6.904  20.138  0.00  0.00    +0.000 A 
ATOM     26  C   UNL     1       0.984   8.048  20.769  0.00  0.00    +0.000 A 
BRANCH  21  27
ATOM     27  O   UNL     1       0.452  10.442  20.695  0.00  0.00    +0.000 OA
BRANCH  27  28
ATOM     28  C   UNL     1      -0.267  11.241  19.760  0.00  0.00    +0.000 C 
BRANCH  28  30
ATOM     29  C   UNL     1      -0.272  13.234  18.492  0.00  0.00    +0.000 C 
ATOM     30  O   UNL     1       0.452  12.426  19.406  0.00  0.00    +0.000 OA
ENDBRANCH  28  30
ENDBRANCH  27  28
ENDBRANCH  21  27
ENDBRANCH  20  25
ENDBRANCH   1  20
TORSDOF 9
ENDMDL
MODEL 3
REMARK VINA RESULT:      -7.1      1.661      7.990
REMARK  Name = 
REMARK  13 active torsions:
REMARK  status: ('A' for Active; 'I' for Inactive)
REMARK    1  A    between atoms: C_1  and  O_2
REMARK    2  A    between atoms: O_2  and  C_3
REMARK    3  A    between atoms: C_3  and  O_4
REMARK    4  A    between atoms: O_4  and  C_5
REMARK    5  A    between atoms: C_9  and  C_10
REMARK    6  A    between atoms: C_10  and  N_11
REMARK    7  A    between atoms: C_14  and  C_15
REMARK    8  A    between atoms: C_14  and  C_16
REMARK    9  A    between atoms: N_18  and  C_19
REMARK   10  A    between atoms: C_22  and  O_23
REMARK   11  A    between atoms: O_23  and  C_24
REMARK   12  A    between atoms: C_25  and  O_26
REMARK   13  A    between atoms: O_26  and  C_27
REMARK                            x       y       z     vdW  Elec       q    Type
REMARK                         _______ _______ _______ _____ _____    ______ ____
ROOT
ATOM      1  N   UNL     1       3.189   3.659  18.613  0.00  0.00    +0.000 NA
ATOM      2  C   UNL     1       2.466   2.594  17.904  0.00  0.00    +0.000 C 
ATOM      3  C   UNL     1       1.463   2.466  19.047  0.00  0.00    +0.000 C 
ATOM      4  C   UNL     1       2.308   3.509  19.826  0.00  0.00    +0.000 C 
ATOM      5  C   UNL     1       2.904   2.995  21.141  0.00  0.00    +0.000 C 
ENDROOT
BRANCH   4   6
ATOM      6  C   UNL     1       1.503   4.820  20.129  0.00  0.00    +0.000 C 
ATOM      7  O   UNL     1       0.326   4.774  20.496  0.00  0.00    +0.000 OA
ATOM      8  N   UNL     1       2.232   5.980  19.939  0.00  0.00    +0.000 N 
ATOM      9  H   UNL     1       3.119   5.860  19.464  0.00  0.00    +0.000 HD
BRANCH   8  10
ATOM     10  C   UNL     1       1.794   7.269  20.270  0.00  0.00    +0.000 A 
ATOM     11  C   UNL     1       1.620   7.660  21.600  0.00  0.00    +0.000 A 
ATOM     12  C   UNL     1       1.227   8.946  21.909  0.00  0.00    +0.000 A 
ATOM     13  C   UNL     1       1.005   9.881  20.899  0.00  0.00    +0.000 A 
ATOM     14  C   UNL     1       1.130   9.498  19.550  0.00  0.00    +0.000 A 
ATOM     15  C   UNL     1       1.553   8.193  19.248  0.00  0.00    +0.000 A 
BRANCH  13  16
ATOM     16  O   UNL     1       0.628  11.102  21.394  0.00  0.00    +0.000 OA
ATOM     17  C   UNL     1      -0.546  11.124  22.193  0.00  0.00    +0.000 C 
ENDBRANCH  13  16
BRANCH  14  18
ATOM     18  O   UNL     1       0.793  10.422  18.595  0.00  0.00    +0.000 OA
ATOM     19  C   UNL     1      -0.569  10.516  18.201  0.00  0.00    +0.000 C 
ENDBRANCH  14  18
ENDBRANCH   8  10
ENDBRANCH   4   6
BRANCH   1  20
ATOM     20  C   UNL     1       4.607   3.347  18.810  0.00  0.00    +0.000 C 
BRANCH  20  25
ATOM     21  C   UNL     1       6.882   5.350  16.460  0.00  0.00    +0.000 A 
ATOM     22  C   UNL     1       7.595   6.152  17.357  0.00  0.00    +0.000 A 
ATOM     23  C   UNL     1       7.302   6.111  18.725  0.00  0.00    +0.000 A 
ATOM     24  C   UNL     1       6.315   5.240  19.207  0.00  0.00    +0.000 A 
ATOM     25  C   UNL     1       5.593   4.419  18.345  0.00  0.00    +0.000 A 
ATOM     26  C   UNL     1       5.891   4.498  16.959  0.00  0.00    +0.000 A 
BRANCH  21  27
ATOM     27  O   UNL     1       7.280   5.410  15.153  0.00  0.00    +0.000 OA
BRANCH  27  28
ATOM     28  C   UNL     1       6.370   4.867  14.202  0.00  0.00    +0.000 C 
BRANCH  28  30
ATOM     29  C   UNL     1       6.197   3.417  12.344  0.00  0.00    +0.000 C 
ATOM     30  O   UNL     1       7.049   4.267  13.095  0.00  0.00    +0.000 OA
ENDBRANCH  28  30
ENDBRANCH  27  28
ENDBRANCH  21  27
ENDBRANCH  20  25
ENDBRANCH   1  20
TORSDOF 9
ENDMDL
MODEL 4
REMARK VINA RESULT:      -7.0      1.148      2.047
REMARK  Name = 
REMARK  13 active torsions:
REMARK  status: ('A' for Active; 'I' for Inactive)
REMARK    1  A    between atoms: C_1  and  O_2
REMARK    2  A    between atoms: O_2  and  C_3
REMARK    3  A    between atoms: C_3  and  O_4
REMARK    4  A    between atoms: O_4  and  C_5
REMARK    5  A    between atoms: C_9  and  C_10
REMARK    6  A    between atoms: C_10  and  N_11
REMARK    7  A    between atoms: C_14  and  C_15
REMARK    8  A    between atoms: C_14  and  C_16
REMARK    9  A    between atoms: N_18  and  C_19
REMARK   10  A    between atoms: C_22  and  O_23
REMARK   11  A    between atoms: O_23  and  C_24
REMARK   12  A    between atoms: C_25  and  O_26
REMARK   13  A    between atoms: O_26  and  C_27
REMARK                            x       y       z     vdW  Elec       q    Type
REMARK                         _______ _______ _______ _____ _____    ______ ____
ROOT
ATOM      1  N   UNL     1       2.609   4.415  20.718  0.00  0.00    +0.000 NA
ATOM      2  C   UNL     1       2.548   3.237  21.595  0.00  0.00    +0.000 C 
ATOM      3  C   UNL     1       2.815   2.304  20.416  0.00  0.00    +0.000 C 
ATOM      4  C   UNL     1       2.759   3.551  19.494  0.00  0.00    +0.000 C 
ATOM      5  C   UNL     1       1.645   3.519  18.442  0.00  0.00    +0.000 C 
ENDROOT
BRANCH   4   6
ATOM      6  C   UNL     1       4.121   3.809  18.760  0.00  0.00    +0.000 C 
ATOM      7  O   UNL     1       5.192   3.462  19.265  0.00  0.00    +0.000 OA
ATOM      8  N   UNL     1       3.987   4.447  17.541  0.00  0.00    +0.000 N 
ATOM      9  H   UNL     1       3.068   4.827  17.352  0.00  0.00    +0.000 HD
BRANCH   8  10
ATOM     10  C   UNL     1       5.028   4.668  16.630  0.00  0.00    +0.000 A 
ATOM     11  C   UNL     1       6.006   5.637  16.862  0.00  0.00    +0.000 A 
ATOM     12  C   UNL     1       7.047   5.815  15.973  0.00  0.00    +0.000 A 
ATOM     13  C   UNL     1       7.145   5.021  14.831  0.00  0.00    +0.000 A 
ATOM     14  C   UNL     1       6.147   4.069  14.551  0.00  0.00    +0.000 A 
ATOM     15  C   UNL     1       5.104   3.882  15.475  0.00  0.00    +0.000 A 
BRANCH  13  16
ATOM     16  O   UNL     1       8.242   5.335  14.072  0.00  0.00    +0.000 OA
ATOM     17  C   UNL     1       7.993   5.689  12.719  0.00  0.00    +0.000 C 
ENDBRANCH  13  16
BRANCH  14  18
ATOM     18  O   UNL     1       6.230   3.394  13.361  0.00  0.00    +0.000 OA
ATOM     19  C   UNL     1       5.132   3.477  12.462  0.00  0.00    +0.000 C 
ENDBRANCH  14  18
ENDBRANCH   8  10
ENDBRANCH   4   6
BRANCH   1  20
ATOM     20  C   UNL     1       1.393   5.230  20.780  0.00  0.00    +0.000 C 
BRANCH  20  25
ATOM     21  C   UNL     1       0.876   9.029  20.670  0.00  0.00    +0.000 A 
ATOM     22  C   UNL     1       1.487   9.373  19.459  0.00  0.00    +0.000 A 
ATOM     23  C   UNL     1       2.138   8.396  18.698  0.00  0.00    +0.000 A 
ATOM     24  C   UNL     1       2.151   7.061  19.128  0.00  0.00    +0.000 A 
ATOM     25  C   UNL     1       1.543   6.681  20.320  0.00  0.00    +0.000 A 
ATOM     26  C   UNL     1       0.911   7.695  21.088  0.00  0.00    +0.000 A 
BRANCH  21  27
ATOM     27  O   UNL     1       0.210  10.036  21.313  0.00  0.00    +0.000 OA
BRANCH  27  28
ATOM     28  C   UNL     1      -0.241   9.738  22.631  0.00  0.00    +0.000 C 
BRANCH  28  30
ATOM     29  C   UNL     1      -0.930  11.998  22.570  0.00  0.00    +0.000 C 
ATOM     30  O   UNL     1      -0.493  10.925  23.390  0.00  0.00    +0.000 OA
ENDBRANCH  28  30
ENDBRANCH  27  28
ENDBRANCH  21  27
ENDBRANCH  20  25
ENDBRANCH   1  20
TORSDOF 9
ENDMDL
MODEL 5
REMARK VINA RESULT:      -7.0      1.665      7.913
REMARK  Name = 
REMARK  13 active torsions:
REMARK  status: ('A' for Active; 'I' for Inactive)
REMARK    1  A    between atoms: C_1  and  O_2
REMARK    2  A    between atoms: O_2  and  C_3
REMARK    3  A    between atoms: C_3  and  O_4
REMARK    4  A    between atoms: O_4  and  C_5
REMARK    5  A    between atoms: C_9  and  C_10
REMARK    6  A    between atoms: C_10  and  N_11
REMARK    7  A    between atoms: C_14  and  C_15
REMARK    8  A    between atoms: C_14  and  C_16
REMARK    9  A    between atoms: N_18  and  C_19
REMARK   10  A    between atoms: C_22  and  O_23
REMARK   11  A    between atoms: O_23  and  C_24
REMARK   12  A    between atoms: C_25  and  O_26
REMARK   13  A    between atoms: O_26  and  C_27
REMARK                            x       y       z     vdW  Elec       q    Type
REMARK                         _______ _______ _______ _____ _____    ______ ____
ROOT
ATOM      1  N   UNL     1       3.090   3.655  18.830  0.00  0.00    +0.000 NA
ATOM      2  C   UNL     1       2.320   2.455  18.471  0.00  0.00    +0.000 C 
ATOM      3  C   UNL     1       1.418   2.628  19.691  0.00  0.00    +0.000 C 
ATOM      4  C   UNL     1       2.316   3.822  20.111  0.00  0.00    +0.000 C 
ATOM      5  C   UNL     1       3.024   3.645  21.459  0.00  0.00    +0.000 C 
ENDROOT
BRANCH   4   6
ATOM      6  C   UNL     1       1.526   5.177  20.144  0.00  0.00    +0.000 C 
ATOM      7  O   UNL     1       0.333   5.211  20.456  0.00  0.00    +0.000 OA
ATOM      8  N   UNL     1       2.288   6.276  19.793  0.00  0.00    +0.000 N 
ATOM      9  H   UNL     1       3.192   6.063  19.389  0.00  0.00    +0.000 HD
BRANCH   8  10
ATOM     10  C   UNL     1       1.863   7.608  19.875  0.00  0.00    +0.000 A 
ATOM     11  C   UNL     1       1.773   8.415  18.739  0.00  0.00    +0.000 A 
ATOM     12  C   UNL     1       1.315   9.714  18.833  0.00  0.00    +0.000 A 
ATOM     13  C   UNL     1       0.925  10.240  20.064  0.00  0.00    +0.000 A 
ATOM     14  C   UNL     1       1.050   9.462  21.230  0.00  0.00    +0.000 A 
ATOM     15  C   UNL     1       1.496   8.134  21.119  0.00  0.00    +0.000 A 
BRANCH  13  16
ATOM     16  O   UNL     1       0.494  11.537  19.962  0.00  0.00    +0.000 OA
ATOM     17  C   UNL     1      -0.903  11.726  19.789  0.00  0.00    +0.000 C 
ENDBRANCH  13  16
BRANCH  14  18
ATOM     18  O   UNL     1       0.759  10.062  22.428  0.00  0.00    +0.000 OA
ATOM     19  C   UNL     1      -0.171   9.424  23.292  0.00  0.00    +0.000 C 
ENDBRANCH  14  18
ENDBRANCH   8  10
ENDBRANCH   4   6
BRANCH   1  20
ATOM     20  C   UNL     1       4.522   3.385  18.979  0.00  0.00    +0.000 C 
BRANCH  20  25
ATOM     21  C   UNL     1       6.414   5.355  16.286  0.00  0.00    +0.000 A 
ATOM     22  C   UNL     1       7.332   6.086  17.049  0.00  0.00    +0.000 A 
ATOM     23  C   UNL     1       7.304   6.010  18.445  0.00  0.00    +0.000 A 
ATOM     24  C   UNL     1       6.380   5.173  19.087  0.00  0.00    +0.000 A 
ATOM     25  C   UNL     1       5.461   4.422  18.360  0.00  0.00    +0.000 A 
ATOM     26  C   UNL     1       5.491   4.537  16.945  0.00  0.00    +0.000 A 
BRANCH  21  27
ATOM     27  O   UNL     1       6.557   5.442  14.929  0.00  0.00    +0.000 OA
BRANCH  27  28
ATOM     28  C   UNL     1       5.718   4.585  14.160  0.00  0.00    +0.000 C 
BRANCH  28  30
ATOM     29  C   UNL     1       7.148   4.280  12.304  0.00  0.00    +0.000 C 
ATOM     30  O   UNL     1       6.475   3.652  13.384  0.00  0.00    +0.000 OA
ENDBRANCH  28  30
ENDBRANCH  27  28
ENDBRANCH  21  27
ENDBRANCH  20  25
ENDBRANCH   1  20
TORSDOF 9
ENDMDL
MODEL 6
REMARK VINA RESULT:      -6.9      4.496      9.078
REMARK  Name = 
REMARK  13 active torsions:
REMARK  status: ('A' for Active; 'I' for Inactive)
REMARK    1  A    between atoms: C_1  and  O_2
REMARK    2  A    between atoms: O_2  and  C_3
REMARK    3  A    between atoms: C_3  and  O_4
REMARK    4  A    between atoms: O_4  and  C_5
REMARK    5  A    between atoms: C_9  and  C_10
REMARK    6  A    between atoms: C_10  and  N_11
REMARK    7  A    between atoms: C_14  and  C_15
REMARK    8  A    between atoms: C_14  and  C_16
REMARK    9  A    between atoms: N_18  and  C_19
REMARK   10  A    between atoms: C_22  and  O_23
REMARK   11  A    between atoms: O_23  and  C_24
REMARK   12  A    between atoms: C_25  and  O_26
REMARK   13  A    between atoms: O_26  and  C_27
REMARK                            x       y       z     vdW  Elec       q    Type
REMARK                         _______ _______ _______ _____ _____    ______ ____
ROOT
ATOM      1  N   UNL     1      -0.058   9.726  21.496  0.00  0.00    +0.000 NA
ATOM      2  C   UNL     1      -0.638   9.988  22.820  0.00  0.00    +0.000 C 
ATOM      3  C   UNL     1      -0.708  11.486  22.530  0.00  0.00    +0.000 C 
ATOM      4  C   UNL     1       0.011  11.198  21.186  0.00  0.00    +0.000 C 
ATOM      5  C   UNL     1       1.375  11.881  21.031  0.00  0.00    +0.000 C 
ENDROOT
BRANCH   4   6
ATOM      6  C   UNL     1      -0.872  11.576  19.946  0.00  0.00    +0.000 C 
ATOM      7  O   UNL     1      -0.990  12.749  19.582  0.00  0.00    +0.000 OA
ATOM      8  N   UNL     1      -1.480  10.491  19.342  0.00  0.00    +0.000 N 
ATOM      9  H   UNL     1      -1.434   9.624  19.863  0.00  0.00    +0.000 HD
BRANCH   8  10
ATOM     10  C   UNL     1      -2.204  10.539  18.143  0.00  0.00    +0.000 A 
ATOM     11  C   UNL     1      -1.722   9.942  16.977  0.00  0.00    +0.000 A 
ATOM     12  C   UNL     1      -2.467   9.964  15.815  0.00  0.00    +0.000 A 
ATOM     13  C   UNL     1      -3.719  10.575  15.789  0.00  0.00    +0.000 A 
ATOM     14  C   UNL     1      -4.208  11.224  16.939  0.00  0.00    +0.000 A 
ATOM     15  C   UNL     1      -3.450  11.175  18.122  0.00  0.00    +0.000 A 
BRANCH  13  16
ATOM     16  O   UNL     1      -4.313  10.494  14.556  0.00  0.00    +0.000 OA
ATOM     17  C   UNL     1      -3.542   9.895  13.523  0.00  0.00    +0.000 C 
ENDBRANCH  13  16
BRANCH  14  18
ATOM     18  O   UNL     1      -5.392  11.905  16.829  0.00  0.00    +0.000 OA
ATOM     19  C   UNL     1      -6.368  11.725  17.846  0.00  0.00    +0.000 C 
ENDBRANCH  14  18
ENDBRANCH   8  10
ENDBRANCH   4   6
BRANCH   1  20
ATOM     20  C   UNL     1       1.228   9.027  21.569  0.00  0.00    +0.000 C 
BRANCH  20  25
ATOM     21  C   UNL     1       2.816   6.317  19.367  0.00  0.00    +0.000 A 
ATOM     22  C   UNL     1       2.733   6.890  18.093  0.00  0.00    +0.000 A 
ATOM     23  C   UNL     1       2.099   8.125  17.917  0.00  0.00    +0.000 A 
ATOM     24  C   UNL     1       1.574   8.810  19.021  0.00  0.00    +0.000 A 
ATOM     25  C   UNL     1       1.649   8.277  20.304  0.00  0.00    +0.000 A 
ATOM     26  C   UNL     1       2.273   7.010  20.454  0.00  0.00    +0.000 A 
BRANCH  21  27
ATOM     27  O   UNL     1       3.508   5.141  19.453  0.00  0.00    +0.000 OA
BRANCH  27  28
ATOM     28  C   UNL     1       2.829   3.984  18.973  0.00  0.00    +0.000 C 
BRANCH  28  30
ATOM     29  C   UNL     1       0.777   2.814  18.918  0.00  0.00    +0.000 C 
ATOM     30  O   UNL     1       1.504   3.885  19.501  0.00  0.00    +0.000 OA
ENDBRANCH  28  30
ENDBRANCH  27  28
ENDBRANCH  21  27
ENDBRANCH  20  25
ENDBRANCH   1  20
TORSDOF 9
ENDMDL
MODEL 7
REMARK VINA RESULT:      -6.8      4.499      7.092
REMARK  Name = 
REMARK  13 active torsions:
REMARK  status: ('A' for Active; 'I' for Inactive)
REMARK    1  A    between atoms: C_1  and  O_2
REMARK    2  A    between atoms: O_2  and  C_3
REMARK    3  A    between atoms: C_3  and  O_4
REMARK    4  A    between atoms: O_4  and  C_5
REMARK    5  A    between atoms: C_9  and  C_10
REMARK    6  A    between atoms: C_10  and  N_11
REMARK    7  A    between atoms: C_14  and  C_15
REMARK    8  A    between atoms: C_14  and  C_16
REMARK    9  A    between atoms: N_18  and  C_19
REMARK   10  A    between atoms: C_22  and  O_23
REMARK   11  A    between atoms: O_23  and  C_24
REMARK   12  A    between atoms: C_25  and  O_26
REMARK   13  A    between atoms: O_26  and  C_27
REMARK                            x       y       z     vdW  Elec       q    Type
REMARK                         _______ _______ _______ _____ _____    ______ ____
ROOT
ATOM      1  N   UNL     1      -0.310  10.432  19.495  0.00  0.00    +0.000 NA
ATOM      2  C   UNL     1       0.359  11.698  19.164  0.00  0.00    +0.000 C 
ATOM      3  C   UNL     1       1.154  11.659  20.466  0.00  0.00    +0.000 C 
ATOM      4  C   UNL     1       0.352  10.387  20.847  0.00  0.00    +0.000 C 
ATOM      5  C   UNL     1      -0.497  10.523  22.117  0.00  0.00    +0.000 C 
ENDROOT
BRANCH   4   6
ATOM      6  C   UNL     1       1.273   9.127  21.004  0.00  0.00    +0.000 C 
ATOM      7  O   UNL     1       1.778   8.839  22.093  0.00  0.00    +0.000 OA
ATOM      8  N   UNL     1       1.450   8.414  19.833  0.00  0.00    +0.000 N 
ATOM      9  H   UNL     1       1.123   8.876  18.993  0.00  0.00    +0.000 HD
BRANCH   8  10
ATOM     10  C   UNL     1       2.109   7.182  19.732  0.00  0.00    +0.000 A 
ATOM     11  C   UNL     1       3.060   6.945  18.738  0.00  0.00    +0.000 A 
ATOM     12  C   UNL     1       3.729   5.738  18.677  0.00  0.00    +0.000 A 
ATOM     13  C   UNL     1       3.472   4.739  19.615  0.00  0.00    +0.000 A 
ATOM     14  C   UNL     1       2.485   4.938  20.599  0.00  0.00    +0.000 A 
ATOM     15  C   UNL     1       1.827   6.177  20.664  0.00  0.00    +0.000 A 
BRANCH  13  16
ATOM     16  O   UNL     1       4.232   3.618  19.402  0.00  0.00    +0.000 OA
ATOM     17  C   UNL     1       3.854   2.800  18.303  0.00  0.00    +0.000 C 
ENDBRANCH  13  16
BRANCH  14  18
ATOM     18  O   UNL     1       2.193   3.884  21.426  0.00  0.00    +0.000 OA
ATOM     19  C   UNL     1       1.185   2.969  21.018  0.00  0.00    +0.000 C 
ENDBRANCH  14  18
ENDBRANCH   8  10
ENDBRANCH   4   6
BRANCH   1  20
ATOM     20  C   UNL     1      -1.771  10.548  19.502  0.00  0.00    +0.000 C 
BRANCH  20  25
ATOM     21  C   UNL     1      -4.410  11.459  16.873  0.00  0.00    +0.000 A 
ATOM     22  C   UNL     1      -3.915  10.824  15.728  0.00  0.00    +0.000 A 
ATOM     23  C   UNL     1      -2.687  10.155  15.772  0.00  0.00    +0.000 A 
ATOM     24  C   UNL     1      -1.963  10.089  16.970  0.00  0.00    +0.000 A 
ATOM     25  C   UNL     1      -2.431  10.698  18.131  0.00  0.00    +0.000 A 
ATOM     26  C   UNL     1      -3.667  11.393  18.056  0.00  0.00    +0.000 A 
BRANCH  21  27
ATOM     27  O   UNL     1      -5.647  12.032  16.754  0.00  0.00    +0.000 OA
BRANCH  27  28
ATOM     28  C   UNL     1      -6.055  12.857  17.841  0.00  0.00    +0.000 C 
BRANCH  28  30
ATOM     29  C   UNL     1      -7.262  11.470  19.326  0.00  0.00    +0.000 C 
ATOM     30  O   UNL     1      -7.344  12.485  18.338  0.00  0.00    +0.000 OA
ENDBRANCH  28  30
ENDBRANCH  27  28
ENDBRANCH  21  27
ENDBRANCH  20  25
ENDBRANCH   1  20
TORSDOF 9
ENDMDL
MODEL 8
REMARK VINA RESULT:      -6.8      1.825      6.885
REMARK  Name = 
REMARK  13 active torsions:
REMARK  status: ('A' for Active; 'I' for Inactive)
REMARK    1  A    between atoms: C_1  and  O_2
REMARK    2  A    between atoms: O_2  and  C_3
REMARK    3  A    between atoms: C_3  and  O_4
REMARK    4  A    between atoms: O_4  and  C_5
REMARK    5  A    between atoms: C_9  and  C_10
REMARK    6  A    between atoms: C_10  and  N_11
REMARK    7  A    between atoms: C_14  and  C_15
REMARK    8  A    between atoms: C_14  and  C_16
REMARK    9  A    between atoms: N_18  and  C_19
REMARK   10  A    between atoms: C_22  and  O_23
REMARK   11  A    between atoms: O_23  and  C_24
REMARK   12  A    between atoms: C_25  and  O_26
REMARK   13  A    between atoms: O_26  and  C_27
REMARK                            x       y       z     vdW  Elec       q    Type
REMARK                         _______ _______ _______ _____ _____    ______ ____
ROOT
ATOM      1  N   UNL     1       2.518   3.238  18.160  0.00  0.00    +0.000 NA
ATOM      2  C   UNL     1       1.537   2.152  18.299  0.00  0.00    +0.000 C 
ATOM      3  C   UNL     1       1.335   2.480  19.777  0.00  0.00    +0.000 C 
ATOM      4  C   UNL     1       2.456   3.542  19.634  0.00  0.00    +0.000 C 
ATOM      5  C   UNL     1       3.686   3.296  20.515  0.00  0.00    +0.000 C 
ENDROOT
BRANCH   4   6
ATOM      6  C   UNL     1       1.936   4.996  19.908  0.00  0.00    +0.000 C 
ATOM      7  O   UNL     1       1.294   5.260  20.928  0.00  0.00    +0.000 OA
ATOM      8  N   UNL     1       2.261   5.903  18.917  0.00  0.00    +0.000 N 
ATOM      9  H   UNL     1       2.629   5.497  18.065  0.00  0.00    +0.000 HD
BRANCH   8  10
ATOM     10  C   UNL     1       2.038   7.284  18.985  0.00  0.00    +0.000 A 
ATOM     11  C   UNL     1       2.250   8.111  17.880  0.00  0.00    +0.000 A 
ATOM     12  C   UNL     1       1.986   9.465  17.952  0.00  0.00    +0.000 A 
ATOM     13  C   UNL     1       1.494  10.027  19.129  0.00  0.00    +0.000 A 
ATOM     14  C   UNL     1       1.315   9.223  20.270  0.00  0.00    +0.000 A 
ATOM     15  C   UNL     1       1.566   7.843  20.177  0.00  0.00    +0.000 A 
BRANCH  13  16
ATOM     16  O   UNL     1       1.287  11.378  19.013  0.00  0.00    +0.000 OA
ATOM     17  C   UNL     1      -0.046  11.791  18.748  0.00  0.00    +0.000 C 
ENDBRANCH  13  16
BRANCH  14  18
ATOM     18  O   UNL     1       0.936   9.844  21.431  0.00  0.00    +0.000 OA
ATOM     19  C   UNL     1      -0.168   9.311  22.150  0.00  0.00    +0.000 C 
ENDBRANCH  14  18
ENDBRANCH   8  10
ENDBRANCH   4   6
BRANCH   1  20
ATOM     20  C   UNL     1       3.813   2.771  17.657  0.00  0.00    +0.000 C 
BRANCH  20  25
ATOM     21  C   UNL     1       5.761   6.002  16.971  0.00  0.00    +0.000 A 
ATOM     22  C   UNL     1       5.950   5.942  15.586  0.00  0.00    +0.000 A 
ATOM     23  C   UNL     1       5.515   4.824  14.865  0.00  0.00    +0.000 A 
ATOM     24  C   UNL     1       4.858   3.774  15.523  0.00  0.00    +0.000 A 
ATOM     25  C   UNL     1       4.643   3.806  16.897  0.00  0.00    +0.000 A 
ATOM     26  C   UNL     1       5.116   4.939  17.611  0.00  0.00    +0.000 A 
BRANCH  21  27
ATOM     27  O   UNL     1       6.160   7.159  17.581  0.00  0.00    +0.000 OA
BRANCH  27  28
ATOM     28  C   UNL     1       7.567   7.336  17.720  0.00  0.00    +0.000 C 
BRANCH  28  30
ATOM     29  C   UNL     1       8.427   9.465  18.274  0.00  0.00    +0.000 C 
ATOM     30  O   UNL     1       7.996   8.609  17.228  0.00  0.00    +0.000 OA
ENDBRANCH  28  30
ENDBRANCH  27  28
ENDBRANCH  21  27
ENDBRANCH  20  25
ENDBRANCH   1  20
TORSDOF 9
ENDMDL
MODEL 9
REMARK VINA RESULT:      -6.7      4.553      6.543
REMARK  Name = 
REMARK  13 active torsions:
REMARK  status: ('A' for Active; 'I' for Inactive)
REMARK    1  A    between atoms: C_1  and  O_2
REMARK    2  A    between atoms: O_2  and  C_3
REMARK    3  A    between atoms: C_3  and  O_4
REMARK    4  A    between atoms: O_4  and  C_5
REMARK    5  A    between atoms: C_9  and  C_10
REMARK    6  A    between atoms: C_10  and  N_11
REMARK    7  A    between atoms: C_14  and  C_15
REMARK    8  A    between atoms: C_14  and  C_16
REMARK    9  A    between atoms: N_18  and  C_19
REMARK   10  A    between atoms: C_22  and  O_23
REMARK   11  A    between atoms: O_23  and  C_24
REMARK   12  A    between atoms: C_25  and  O_26
REMARK   13  A    between atoms: O_26  and  C_27
REMARK                            x       y       z     vdW  Elec       q    Type
REMARK                         _______ _______ _______ _____ _____    ______ ____
ROOT
ATOM      1  N   UNL     1      -0.195  10.133  19.104  0.00  0.00    +0.000 NA
ATOM      2  C   UNL     1       0.417  11.469  19.065  0.00  0.00    +0.000 C 
ATOM      3  C   UNL     1       1.265  11.154  20.295  0.00  0.00    +0.000 C 
ATOM      4  C   UNL     1       0.521   9.795  20.384  0.00  0.00    +0.000 C 
ATOM      5  C   UNL     1      -0.280   9.588  21.674  0.00  0.00    +0.000 C 
ENDROOT
BRANCH   4   6
ATOM      6  C   UNL     1       1.491   8.574  20.206  0.00  0.00    +0.000 C 
ATOM      7  O   UNL     1       1.843   7.895  21.173  0.00  0.00    +0.000 OA
ATOM      8  N   UNL     1       1.889   8.364  18.899  0.00  0.00    +0.000 N 
ATOM      9  H   UNL     1       1.663   9.110  18.253  0.00  0.00    +0.000 HD
BRANCH   8  10
ATOM     10  C   UNL     1       2.637   7.266  18.452  0.00  0.00    +0.000 A 
ATOM     11  C   UNL     1       3.699   7.423  17.559  0.00  0.00    +0.000 A 
ATOM     12  C   UNL     1       4.450   6.336  17.160  0.00  0.00    +0.000 A 
ATOM     13  C   UNL     1       4.166   5.062  17.651  0.00  0.00    +0.000 A 
ATOM     14  C   UNL     1       3.072   4.871  18.516  0.00  0.00    +0.000 A 
ATOM     15  C   UNL     1       2.329   5.988  18.932  0.00  0.00    +0.000 A 
BRANCH  13  16
ATOM     16  O   UNL     1       5.017   4.110  17.151  0.00  0.00    +0.000 OA
ATOM     17  C   UNL     1       6.346   4.533  16.880  0.00  0.00    +0.000 C 
ENDBRANCH  13  16
BRANCH  14  18
ATOM     18  O   UNL     1       2.768   3.585  18.880  0.00  0.00    +0.000 OA
ATOM     19  C   UNL     1       1.973   2.806  17.996  0.00  0.00    +0.000 C 
ENDBRANCH  14  18
ENDBRANCH   8  10
ENDBRANCH   4   6
BRANCH   1  20
ATOM     20  C   UNL     1      -1.657  10.182  19.183  0.00  0.00    +0.000 C 
BRANCH  20  25
ATOM     21  C   UNL     1      -4.379  11.455  16.798  0.00  0.00    +0.000 A 
ATOM     22  C   UNL     1      -3.992  10.884  15.581  0.00  0.00    +0.000 A 
ATOM     23  C   UNL     1      -2.809  10.142  15.497  0.00  0.00    +0.000 A 
ATOM     24  C   UNL     1      -2.023   9.937  16.641  0.00  0.00    +0.000 A 
ATOM     25  C   UNL     1      -2.384  10.479  17.871  0.00  0.00    +0.000 A 
ATOM     26  C   UNL     1      -3.575  11.251  17.925  0.00  0.00    +0.000 A 
BRANCH  21  27
ATOM     27  O   UNL     1      -5.580  12.109  16.800  0.00  0.00    +0.000 OA
BRANCH  27  28
ATOM     28  C   UNL     1      -6.470  11.769  17.859  0.00  0.00    +0.000 C 
BRANCH  28  30
ATOM     29  C   UNL     1      -7.335  13.853  17.159  0.00  0.00    +0.000 C 
ATOM     30  O   UNL     1      -7.527  12.723  17.995  0.00  0.00    +0.000 OA
ENDBRANCH  28  30
ENDBRANCH  27  28
ENDBRANCH  21  27
ENDBRANCH  20  25
ENDBRANCH   1  20
TORSDOF 9
ENDMDL
