MODEL 1
REMARK VINA RESULT:      -9.2      0.000      0.000
REMARK  Name = 
REMARK  7 active torsions:
REMARK  status: ('A' for Active; 'I' for Inactive)
REMARK    1  A    between atoms: C_1  and  C_2
REMARK    2  A    between atoms: C_5  and  C_6
REMARK    3  A    between atoms: N_8  and  C_9
REMARK    4  A    between atoms: C_14  and  O_15
REMARK    5  A    between atoms: O_15  and  C_16
REMARK    6  A    between atoms: C_20  and  C_21
REMARK    7  A    between atoms: C_30  and  N_31
REMARK                            x       y       z     vdW  Elec       q    Type
REMARK                         _______ _______ _______ _____ _____    ______ ____
ROOT
ATOM      1  C   UNL     1       3.029   6.006  18.370  0.00  0.00    +0.000 A 
ATOM      2  C   UNL     1       2.269   4.898  17.976  0.00  0.00    +0.000 A 
ATOM      3  C   UNL     1       2.860   3.803  17.381  0.00  0.00    +0.000 A 
ATOM      4  C   UNL     1       4.208   3.852  17.070  0.00  0.00    +0.000 A 
ATOM      5  C   UNL     1       4.962   5.042  17.181  0.00  0.00    +0.000 A 
ATOM      6  C   UNL     1       6.259   5.193  16.604  0.00  0.00    +0.000 A 
ATOM      7  C   UNL     1       7.025   6.330  16.878  0.00  0.00    +0.000 A 
ATOM      8  C   UNL     1       6.509   7.350  17.662  0.00  0.00    +0.000 A 
ATOM      9  C   UNL     1       5.204   7.257  18.153  0.00  0.00    +0.000 A 
ATOM     10  C   UNL     1       4.382   6.125  17.913  0.00  0.00    +0.000 A 
ENDROOT
BRANCH   1  13
ATOM     11  C   UNL     1       1.891   8.171  18.809  0.00  0.00    +0.000 C 
ATOM     12  O   UNL     1       1.859   8.585  17.652  0.00  0.00    +0.000 OA
ATOM     13  N   UNL     1       2.446   6.974  19.246  0.00  0.00    +0.000 N 
ATOM     14  H   UNL     1       2.205   6.669  20.177  0.00  0.00    +0.000 HD
BRANCH  11  19
ATOM     15  C   UNL     1      -1.037  11.053  22.908  0.00  0.00    +0.000 C 
ATOM     16  C   UNL     1      -0.274  10.365  21.812  0.00  0.00    +0.000 A 
ATOM     17  C   UNL     1       0.462   9.217  22.121  0.00  0.00    +0.000 A 
ATOM     18  C   UNL     1       1.180   8.548  21.132  0.00  0.00    +0.000 A 
ATOM     19  C   UNL     1       1.186   9.012  19.806  0.00  0.00    +0.000 A 
ATOM     20  C   UNL     1       0.474  10.154  19.466  0.00  0.00    +0.000 A 
ATOM     21  C   UNL     1      -0.255  10.816  20.475  0.00  0.00    +0.000 A 
BRANCH  21  22
ATOM     22  N   UNL     1      -1.002  12.000  20.081  0.00  0.00    +0.000 N 
ATOM     23  O   UNL     1      -2.162  11.841  19.683  0.00  0.00    +0.000 OA
ATOM     24  O   UNL     1      -0.400  13.082  20.141  0.00  0.00    +0.000 OA
ENDBRANCH  21  22
ENDBRANCH  11  19
ENDBRANCH   1  13
BRANCH   6  25
ATOM     25  O   UNL     1       6.924   4.292  15.784  0.00  0.00    +0.000 OA
BRANCH  25  26
ATOM     26  C   UNL     1       6.773   4.309  14.419  0.00  0.00    +0.000 A 
ATOM     27  C   UNL     1       7.678   5.089  13.705  0.00  0.00    +0.000 A 
ATOM     28  N   UNL     1       7.793   5.072  12.356  0.00  0.00    +0.000 NA
ATOM     29  C   UNL     1       6.982   4.212  11.692  0.00  0.00    +0.000 A 
ATOM     30  C   UNL     1       6.021   3.424  12.316  0.00  0.00    +0.000 A 
ATOM     31  C   UNL     1       5.852   3.553  13.697  0.00  0.00    +0.000 A 
BRANCH  30  32
ATOM     32  C   UNL     1       5.309   2.403  11.518  0.00  0.00    +0.000 C 
ATOM     33  N   UNL     1       5.961   1.222  11.281  0.00  0.00    +0.000 N 
ATOM     34  O   UNL     1       4.211   2.629  11.026  0.00  0.00    +0.000 OA
ATOM     35  H   UNL     1       6.946   1.083  11.464  0.00  0.00    +0.000 HD
ATOM     36  H   UNL     1       5.526   0.587  10.623  0.00  0.00    +0.000 HD
ENDBRANCH  30  32
ENDBRANCH  25  26
ENDBRANCH   6  25
TORSDOF 6
ENDMDL
MODEL 2
REMARK VINA RESULT:      -9.0      1.446      1.678
REMARK  Name = 
REMARK  7 active torsions:
REMARK  status: ('A' for Active; 'I' for Inactive)
REMARK    1  A    between atoms: C_1  and  C_2
REMARK    2  A    between atoms: C_5  and  C_6
REMARK    3  A    between atoms: N_8  and  C_9
REMARK    4  A    between atoms: C_14  and  O_15
REMARK    5  A    between atoms: O_15  and  C_16
REMARK    6  A    between atoms: C_20  and  C_21
REMARK    7  A    between atoms: C_30  and  N_31
REMARK                            x       y       z     vdW  Elec       q    Type
REMARK                         _______ _______ _______ _____ _____    ______ ____
ROOT
ATOM      1  C   UNL     1       2.823   6.375  18.265  0.00  0.00    +0.000 A 
ATOM      2  C   UNL     1       2.007   5.279  17.960  0.00  0.00    +0.000 A 
ATOM      3  C   UNL     1       2.540   4.110  17.460  0.00  0.00    +0.000 A 
ATOM      4  C   UNL     1       3.888   4.062  17.153  0.00  0.00    +0.000 A 
ATOM      5  C   UNL     1       4.704   5.216  17.171  0.00  0.00    +0.000 A 
ATOM      6  C   UNL     1       6.008   5.251  16.591  0.00  0.00    +0.000 A 
ATOM      7  C   UNL     1       6.833   6.364  16.774  0.00  0.00    +0.000 A 
ATOM      8  C   UNL     1       6.370   7.471  17.469  0.00  0.00    +0.000 A 
ATOM      9  C   UNL     1       5.062   7.488  17.958  0.00  0.00    +0.000 A 
ATOM     10  C   UNL     1       4.182   6.385  17.807  0.00  0.00    +0.000 A 
ENDROOT
BRANCH   1  13
ATOM     11  C   UNL     1       1.876   8.658  18.525  0.00  0.00    +0.000 C 
ATOM     12  O   UNL     1       1.944   9.006  17.348  0.00  0.00    +0.000 OA
ATOM     13  N   UNL     1       2.291   7.441  19.055  0.00  0.00    +0.000 N 
ATOM     14  H   UNL     1       1.974   7.213  19.985  0.00  0.00    +0.000 HD
BRANCH  11  19
ATOM     15  C   UNL     1      -0.437  12.741  21.941  0.00  0.00    +0.000 C 
ATOM     16  C   UNL     1       0.130  11.637  21.093  0.00  0.00    +0.000 A 
ATOM     17  C   UNL     1       0.494  11.920  19.773  0.00  0.00    +0.000 A 
ATOM     18  C   UNL     1       1.026  10.924  18.956  0.00  0.00    +0.000 A 
ATOM     19  C   UNL     1       1.205   9.616  19.435  0.00  0.00    +0.000 A 
ATOM     20  C   UNL     1       0.845   9.298  20.739  0.00  0.00    +0.000 A 
ATOM     21  C   UNL     1       0.316  10.317  21.557  0.00  0.00    +0.000 A 
BRANCH  21  22
ATOM     22  N   UNL     1      -0.035   9.954  22.920  0.00  0.00    +0.000 N 
ATOM     23  O   UNL     1      -1.226  10.030  23.246  0.00  0.00    +0.000 OA
ATOM     24  O   UNL     1       0.898   9.629  23.667  0.00  0.00    +0.000 OA
ENDBRANCH  21  22
ENDBRANCH  11  19
ENDBRANCH   1  13
BRANCH   6  25
ATOM     25  O   UNL     1       6.626   4.251  15.852  0.00  0.00    +0.000 OA
BRANCH  25  26
ATOM     26  C   UNL     1       6.600   4.246  14.479  0.00  0.00    +0.000 A 
ATOM     27  C   UNL     1       7.589   4.985  13.837  0.00  0.00    +0.000 A 
ATOM     28  N   UNL     1       7.824   4.939  12.504  0.00  0.00    +0.000 NA
ATOM     29  C   UNL     1       7.051   4.090  11.783  0.00  0.00    +0.000 A 
ATOM     30  C   UNL     1       6.014   3.343  12.331  0.00  0.00    +0.000 A 
ATOM     31  C   UNL     1       5.725   3.503  13.689  0.00  0.00    +0.000 A 
BRANCH  30  32
ATOM     32  C   UNL     1       5.346   2.328  11.489  0.00  0.00    +0.000 C 
ATOM     33  N   UNL     1       6.038   1.176  11.221  0.00  0.00    +0.000 N 
ATOM     34  O   UNL     1       4.248   2.535  10.988  0.00  0.00    +0.000 OA
ATOM     35  H   UNL     1       7.025   1.063  11.414  0.00  0.00    +0.000 HD
ATOM     36  H   UNL     1       5.633   0.552  10.536  0.00  0.00    +0.000 HD
ENDBRANCH  30  32
ENDBRANCH  25  26
ENDBRANCH   6  25
TORSDOF 6
ENDMDL
MODEL 3
REMARK VINA RESULT:      -8.7      3.751      6.592
REMARK  Name = 
REMARK  7 active torsions:
REMARK  status: ('A' for Active; 'I' for Inactive)
REMARK    1  A    between atoms: C_1  and  C_2
REMARK    2  A    between atoms: C_5  and  C_6
REMARK    3  A    between atoms: N_8  and  C_9
REMARK    4  A    between atoms: C_14  and  O_15
REMARK    5  A    between atoms: O_15  and  C_16
REMARK    6  A    between atoms: C_20  and  C_21
REMARK    7  A    between atoms: C_30  and  N_31
REMARK                            x       y       z     vdW  Elec       q    Type
REMARK                         _______ _______ _______ _____ _____    ______ ____
ROOT
ATOM      1  C   UNL     1       0.389  10.750  20.543  0.00  0.00    +0.000 A 
ATOM      2  C   UNL     1      -0.133  10.376  21.786  0.00  0.00    +0.000 A 
ATOM      3  C   UNL     1       0.216   9.179  22.375  0.00  0.00    +0.000 A 
ATOM      4  C   UNL     1       1.008   8.289  21.672  0.00  0.00    +0.000 A 
ATOM      5  C   UNL     1       1.330   8.484  20.310  0.00  0.00    +0.000 A 
ATOM      6  C   UNL     1       1.893   7.457  19.493  0.00  0.00    +0.000 A 
ATOM      7  C   UNL     1       2.339   7.748  18.200  0.00  0.00    +0.000 A 
ATOM      8  C   UNL     1       2.182   9.022  17.676  0.00  0.00    +0.000 A 
ATOM      9  C   UNL     1       1.544  10.010  18.430  0.00  0.00    +0.000 A 
ATOM     10  C   UNL     1       1.077   9.775  19.749  0.00  0.00    +0.000 A 
ENDROOT
BRANCH   1  13
ATOM     11  C   UNL     1       1.163  13.109  20.424  0.00  0.00    +0.000 C 
ATOM     12  O   UNL     1       2.162  12.997  21.132  0.00  0.00    +0.000 OA
ATOM     13  N   UNL     1       0.252  12.107  20.110  0.00  0.00    +0.000 N 
ATOM     14  H   UNL     1      -0.385  12.287  19.349  0.00  0.00    +0.000 HD
BRANCH  11  19
ATOM     15  C   UNL     1       0.068  18.111  17.691  0.00  0.00    +0.000 C 
ATOM     16  C   UNL     1       0.413  16.839  18.413  0.00  0.00    +0.000 A 
ATOM     17  C   UNL     1      -0.619  16.080  18.972  0.00  0.00    +0.000 A 
ATOM     18  C   UNL     1      -0.340  14.893  19.646  0.00  0.00    +0.000 A 
ATOM     19  C   UNL     1       0.981  14.434  19.785  0.00  0.00    +0.000 A 
ATOM     20  C   UNL     1       2.031  15.168  19.250  0.00  0.00    +0.000 A 
ATOM     21  C   UNL     1       1.734  16.362  18.563  0.00  0.00    +0.000 A 
BRANCH  21  22
ATOM     22  N   UNL     1       2.855  17.099  18.002  0.00  0.00    +0.000 N 
ATOM     23  O   UNL     1       2.892  17.243  16.774  0.00  0.00    +0.000 OA
ATOM     24  O   UNL     1       3.715  17.496  18.802  0.00  0.00    +0.000 OA
ENDBRANCH  21  22
ENDBRANCH  11  19
ENDBRANCH   1  13
BRANCH   6  25
ATOM     25  O   UNL     1       2.109   6.130  19.840  0.00  0.00    +0.000 OA
BRANCH  25  26
ATOM     26  C   UNL     1       3.075   5.371  19.227  0.00  0.00    +0.000 A 
ATOM     27  C   UNL     1       2.689   4.684  18.081  0.00  0.00    +0.000 A 
ATOM     28  N   UNL     1       3.551   4.046  17.253  0.00  0.00    +0.000 NA
ATOM     29  C   UNL     1       4.866   4.125  17.575  0.00  0.00    +0.000 A 
ATOM     30  C   UNL     1       5.341   4.754  18.720  0.00  0.00    +0.000 A 
ATOM     31  C   UNL     1       4.413   5.302  19.610  0.00  0.00    +0.000 A 
BRANCH  30  32
ATOM     32  C   UNL     1       6.800   4.925  18.886  0.00  0.00    +0.000 C 
ATOM     33  N   UNL     1       7.611   4.389  17.920  0.00  0.00    +0.000 N 
ATOM     34  O   UNL     1       7.272   5.458  19.882  0.00  0.00    +0.000 OA
ATOM     35  H   UNL     1       7.283   3.745  17.213  0.00  0.00    +0.000 HD
ATOM     36  H   UNL     1       8.605   4.389  18.111  0.00  0.00    +0.000 HD
ENDBRANCH  30  32
ENDBRANCH  25  26
ENDBRANCH   6  25
TORSDOF 6
ENDMDL
MODEL 4
REMARK VINA RESULT:      -8.6      2.932      4.699
REMARK  Name = 
REMARK  7 active torsions:
REMARK  status: ('A' for Active; 'I' for Inactive)
REMARK    1  A    between atoms: C_1  and  C_2
REMARK    2  A    between atoms: C_5  and  C_6
REMARK    3  A    between atoms: N_8  and  C_9
REMARK    4  A    between atoms: C_14  and  O_15
REMARK    5  A    between atoms: O_15  and  C_16
REMARK    6  A    between atoms: C_20  and  C_21
REMARK    7  A    between atoms: C_30  and  N_31
REMARK                            x       y       z     vdW  Elec       q    Type
REMARK                         _______ _______ _______ _____ _____    ______ ____
ROOT
ATOM      1  C   UNL     1       1.772   8.204  19.489  0.00  0.00    +0.000 A 
ATOM      2  C   UNL     1       2.441   8.821  18.425  0.00  0.00    +0.000 A 
ATOM      3  C   UNL     1       3.009   8.077  17.412  0.00  0.00    +0.000 A 
ATOM      4  C   UNL     1       3.011   6.697  17.510  0.00  0.00    +0.000 A 
ATOM      5  C   UNL     1       2.608   6.027  18.687  0.00  0.00    +0.000 A 
ATOM      6  C   UNL     1       2.867   4.642  18.918  0.00  0.00    +0.000 A 
ATOM      7  C   UNL     1       2.310   3.993  20.024  0.00  0.00    +0.000 A 
ATOM      8  C   UNL     1       1.551   4.702  20.941  0.00  0.00    +0.000 A 
ATOM      9  C   UNL     1       1.371   6.078  20.780  0.00  0.00    +0.000 A 
ATOM     10  C   UNL     1       1.907   6.789  19.674  0.00  0.00    +0.000 A 
ENDROOT
BRANCH   1  13
ATOM     11  C   UNL     1       0.626  10.325  20.090  0.00  0.00    +0.000 C 
ATOM     12  O   UNL     1       1.029  11.009  19.152  0.00  0.00    +0.000 OA
ATOM     13  N   UNL     1       0.944   8.996  20.344  0.00  0.00    +0.000 N 
ATOM     14  H   UNL     1       0.372   8.507  21.016  0.00  0.00    +0.000 HD
BRANCH  11  19
ATOM     15  C   UNL     1      -3.335  12.459  23.757  0.00  0.00    +0.000 C 
ATOM     16  C   UNL     1      -2.315  11.963  22.772  0.00  0.00    +0.000 A 
ATOM     17  C   UNL     1      -1.366  11.028  23.196  0.00  0.00    +0.000 A 
ATOM     18  C   UNL     1      -0.405  10.542  22.312  0.00  0.00    +0.000 A 
ATOM     19  C   UNL     1      -0.363  10.981  20.978  0.00  0.00    +0.000 A 
ATOM     20  C   UNL     1      -1.285  11.916  20.525  0.00  0.00    +0.000 A 
ATOM     21  C   UNL     1      -2.257  12.393  21.428  0.00  0.00    +0.000 A 
BRANCH  21  22
ATOM     22  N   UNL     1      -3.215  13.359  20.917  0.00  0.00    +0.000 N 
ATOM     23  O   UNL     1      -2.963  14.560  21.080  0.00  0.00    +0.000 OA
ATOM     24  O   UNL     1      -4.238  12.902  20.387  0.00  0.00    +0.000 OA
ENDBRANCH  21  22
ENDBRANCH  11  19
ENDBRANCH   1  13
BRANCH   6  25
ATOM     25  O   UNL     1       3.615   3.784  18.123  0.00  0.00    +0.000 OA
BRANCH  25  26
ATOM     26  C   UNL     1       4.936   4.029  17.838  0.00  0.00    +0.000 A 
ATOM     27  C   UNL     1       5.338   3.812  16.524  0.00  0.00    +0.000 A 
ATOM     28  N   UNL     1       6.544   4.179  16.029  0.00  0.00    +0.000 NA
ATOM     29  C   UNL     1       7.377   4.821  16.885  0.00  0.00    +0.000 A 
ATOM     30  C   UNL     1       7.078   5.047  18.224  0.00  0.00    +0.000 A 
ATOM     31  C   UNL     1       5.872   4.552  18.728  0.00  0.00    +0.000 A 
BRANCH  30  32
ATOM     32  C   UNL     1       7.984   5.900  19.022  0.00  0.00    +0.000 C 
ATOM     33  N   UNL     1       8.432   5.399  20.216  0.00  0.00    +0.000 N 
ATOM     34  O   UNL     1       8.266   7.038  18.669  0.00  0.00    +0.000 OA
ATOM     35  H   UNL     1       8.044   4.574  20.653  0.00  0.00    +0.000 HD
ATOM     36  H   UNL     1       8.936   6.040  20.817  0.00  0.00    +0.000 HD
ENDBRANCH  30  32
ENDBRANCH  25  26
ENDBRANCH   6  25
TORSDOF 6
ENDMDL
MODEL 5
REMARK VINA RESULT:      -8.6      3.432     11.721
REMARK  Name = 
REMARK  7 active torsions:
REMARK  status: ('A' for Active; 'I' for Inactive)
REMARK    1  A    between atoms: C_1  and  C_2
REMARK    2  A    between atoms: C_5  and  C_6
REMARK    3  A    between atoms: N_8  and  C_9
REMARK    4  A    between atoms: C_14  and  O_15
REMARK    5  A    between atoms: O_15  and  C_16
REMARK    6  A    between atoms: C_20  and  C_21
REMARK    7  A    between atoms: C_30  and  N_31
REMARK                            x       y       z     vdW  Elec       q    Type
REMARK                         _______ _______ _______ _____ _____    ______ ____
ROOT
ATOM      1  C   UNL     1       0.459  10.743  18.524  0.00  0.00    +0.000 A 
ATOM      2  C   UNL     1       1.028  11.849  19.166  0.00  0.00    +0.000 A 
ATOM      3  C   UNL     1       0.244  12.773  19.825  0.00  0.00    +0.000 A 
ATOM      4  C   UNL     1      -1.133  12.659  19.755  0.00  0.00    +0.000 A 
ATOM      5  C   UNL     1      -1.767  11.736  18.893  0.00  0.00    +0.000 A 
ATOM      6  C   UNL     1      -3.161  11.792  18.588  0.00  0.00    +0.000 A 
ATOM      7  C   UNL     1      -3.767  10.765  17.859  0.00  0.00    +0.000 A 
ATOM      8  C   UNL     1      -3.008   9.712  17.371  0.00  0.00    +0.000 A 
ATOM      9  C   UNL     1      -1.627   9.695  17.579  0.00  0.00    +0.000 A 
ATOM     10  C   UNL     1      -0.958  10.707  18.316  0.00  0.00    +0.000 A 
ENDROOT
BRANCH   1  13
ATOM     11  C   UNL     1       1.714   8.646  18.979  0.00  0.00    +0.000 C 
ATOM     12  O   UNL     1       1.460   8.552  20.178  0.00  0.00    +0.000 OA
ATOM     13  N   UNL     1       1.304   9.661  18.122  0.00  0.00    +0.000 N 
ATOM     14  H   UNL     1       1.399   9.493  17.132  0.00  0.00    +0.000 HD
BRANCH  11  19
ATOM     15  C   UNL     1       4.625   3.980  17.127  0.00  0.00    +0.000 C 
ATOM     16  C   UNL     1       3.893   5.221  17.552  0.00  0.00    +0.000 A 
ATOM     17  C   UNL     1       2.772   5.093  18.378  0.00  0.00    +0.000 A 
ATOM     18  C   UNL     1       2.068   6.220  18.796  0.00  0.00    +0.000 A 
ATOM     19  C   UNL     1       2.461   7.508  18.395  0.00  0.00    +0.000 A 
ATOM     20  C   UNL     1       3.564   7.671  17.567  0.00  0.00    +0.000 A 
ATOM     21  C   UNL     1       4.272   6.522  17.159  0.00  0.00    +0.000 A 
BRANCH  21  22
ATOM     22  N   UNL     1       5.430   6.730  16.304  0.00  0.00    +0.000 N 
ATOM     23  O   UNL     1       6.521   6.930  16.853  0.00  0.00    +0.000 OA
ATOM     24  O   UNL     1       5.227   6.727  15.082  0.00  0.00    +0.000 OA
ENDBRANCH  21  22
ENDBRANCH  11  19
ENDBRANCH   1  13
BRANCH   6  25
ATOM     25  O   UNL     1      -4.066  12.772  18.973  0.00  0.00    +0.000 OA
BRANCH  25  26
ATOM     26  C   UNL     1      -4.722  12.717  20.178  0.00  0.00    +0.000 A 
ATOM     27  C   UNL     1      -6.002  12.173  20.163  0.00  0.00    +0.000 A 
ATOM     28  N   UNL     1      -6.711  11.871  21.276  0.00  0.00    +0.000 NA
ATOM     29  C   UNL     1      -6.096  12.099  22.463  0.00  0.00    +0.000 A 
ATOM     30  C   UNL     1      -4.836  12.676  22.578  0.00  0.00    +0.000 A 
ATOM     31  C   UNL     1      -4.183  13.081  21.410  0.00  0.00    +0.000 A 
BRANCH  30  32
ATOM     32  C   UNL     1      -4.193  12.725  23.908  0.00  0.00    +0.000 C 
ATOM     33  N   UNL     1      -4.877  12.174  24.959  0.00  0.00    +0.000 N 
ATOM     34  O   UNL     1      -3.126  13.299  24.081  0.00  0.00    +0.000 OA
ATOM     35  H   UNL     1      -5.851  11.904  24.909  0.00  0.00    +0.000 HD
ATOM     36  H   UNL     1      -4.496  12.334  25.883  0.00  0.00    +0.000 HD
ENDBRANCH  30  32
ENDBRANCH  25  26
ENDBRANCH   6  25
TORSDOF 6
ENDMDL
MODEL 6
REMARK VINA RESULT:      -8.6      3.579     11.973
REMARK  Name = 
REMARK  7 active torsions:
REMARK  status: ('A' for Active; 'I' for Inactive)
REMARK    1  A    between atoms: C_1  and  C_2
REMARK    2  A    between atoms: C_5  and  C_6
REMARK    3  A    between atoms: N_8  and  C_9
REMARK    4  A    between atoms: C_14  and  O_15
REMARK    5  A    between atoms: O_15  and  C_16
REMARK    6  A    between atoms: C_20  and  C_21
REMARK    7  A    between atoms: C_30  and  N_31
REMARK                            x       y       z     vdW  Elec       q    Type
REMARK                         _______ _______ _______ _____ _____    ______ ____
ROOT
ATOM      1  C   UNL     1       0.226  10.278  19.868  0.00  0.00    +0.000 A 
ATOM      2  C   UNL     1       0.729  11.138  20.851  0.00  0.00    +0.000 A 
ATOM      3  C   UNL     1      -0.071  12.097  21.436  0.00  0.00    +0.000 A 
ATOM      4  C   UNL     1      -1.358  12.280  20.964  0.00  0.00    +0.000 A 
ATOM      5  C   UNL     1      -1.827  11.642  19.793  0.00  0.00    +0.000 A 
ATOM      6  C   UNL     1      -3.031  12.027  19.131  0.00  0.00    +0.000 A 
ATOM      7  C   UNL     1      -3.530  11.263  18.071  0.00  0.00    +0.000 A 
ATOM      8  C   UNL     1      -2.827  10.159  17.614  0.00  0.00    +0.000 A 
ATOM      9  C   UNL     1      -1.598   9.829  18.190  0.00  0.00    +0.000 A 
ATOM     10  C   UNL     1      -1.046  10.563  19.271  0.00  0.00    +0.000 A 
ENDROOT
BRANCH   1  13
ATOM     11  C   UNL     1       1.828   9.059  18.410  0.00  0.00    +0.000 C 
ATOM     12  O   UNL     1       2.021   9.951  17.586  0.00  0.00    +0.000 OA
ATOM     13  N   UNL     1       0.978   9.115  19.509  0.00  0.00    +0.000 N 
ATOM     14  H   UNL     1       1.088   8.401  20.212  0.00  0.00    +0.000 HD
BRANCH  11  19
ATOM     15  C   UNL     1       5.112   4.277  18.232  0.00  0.00    +0.000 C 
ATOM     16  C   UNL     1       4.277   5.526  18.213  0.00  0.00    +0.000 A 
ATOM     17  C   UNL     1       3.212   5.639  19.112  0.00  0.00    +0.000 A 
ATOM     18  C   UNL     1       2.416   6.783  19.128  0.00  0.00    +0.000 A 
ATOM     19  C   UNL     1       2.661   7.845  18.242  0.00  0.00    +0.000 A 
ATOM     20  C   UNL     1       3.704   7.762  17.329  0.00  0.00    +0.000 A 
ATOM     21  C   UNL     1       4.507   6.603  17.330  0.00  0.00    +0.000 A 
BRANCH  21  22
ATOM     22  N   UNL     1       5.599   6.556  16.373  0.00  0.00    +0.000 N 
ATOM     23  O   UNL     1       6.712   6.945  16.750  0.00  0.00    +0.000 OA
ATOM     24  O   UNL     1       5.322   6.162  15.231  0.00  0.00    +0.000 OA
ENDBRANCH  21  22
ENDBRANCH  11  19
ENDBRANCH   1  13
BRANCH   6  25
ATOM     25  O   UNL     1      -3.850  13.105  19.436  0.00  0.00    +0.000 OA
BRANCH  25  26
ATOM     26  C   UNL     1      -4.926  12.979  20.280  0.00  0.00    +0.000 A 
ATOM     27  C   UNL     1      -6.086  12.442  19.731  0.00  0.00    +0.000 A 
ATOM     28  N   UNL     1      -7.169  12.076  20.456  0.00  0.00    +0.000 NA
ATOM     29  C   UNL     1      -7.075  12.228  21.800  0.00  0.00    +0.000 A 
ATOM     30  C   UNL     1      -5.974  12.792  22.435  0.00  0.00    +0.000 A 
ATOM     31  C   UNL     1      -4.922  13.264  21.644  0.00  0.00    +0.000 A 
BRANCH  30  32
ATOM     32  C   UNL     1      -5.906  12.757  23.911  0.00  0.00    +0.000 C 
ATOM     33  N   UNL     1      -6.835  13.490  24.601  0.00  0.00    +0.000 N 
ATOM     34  O   UNL     1      -5.014  12.158  24.496  0.00  0.00    +0.000 OA
ATOM     35  H   UNL     1      -7.435  14.179  24.166  0.00  0.00    +0.000 HD
ATOM     36  H   UNL     1      -6.698  13.572  25.601  0.00  0.00    +0.000 HD
ENDBRANCH  30  32
ENDBRANCH  25  26
ENDBRANCH   6  25
TORSDOF 6
ENDMDL
MODEL 7
REMARK VINA RESULT:      -8.5      3.578     11.849
REMARK  Name = 
REMARK  7 active torsions:
REMARK  status: ('A' for Active; 'I' for Inactive)
REMARK    1  A    between atoms: C_1  and  C_2
REMARK    2  A    between atoms: C_5  and  C_6
REMARK    3  A    between atoms: N_8  and  C_9
REMARK    4  A    between atoms: C_14  and  O_15
REMARK    5  A    between atoms: O_15  and  C_16
REMARK    6  A    between atoms: C_20  and  C_21
REMARK    7  A    between atoms: C_30  and  N_31
REMARK                            x       y       z     vdW  Elec       q    Type
REMARK                         _______ _______ _______ _____ _____    ______ ____
ROOT
ATOM      1  C   UNL     1       0.386  10.039  19.662  0.00  0.00    +0.000 A 
ATOM      2  C   UNL     1       0.976  10.850  20.638  0.00  0.00    +0.000 A 
ATOM      3  C   UNL     1       0.255  11.841  21.272  0.00  0.00    +0.000 A 
ATOM      4  C   UNL     1      -1.037  12.105  20.855  0.00  0.00    +0.000 A 
ATOM      5  C   UNL     1      -1.586  11.517  19.693  0.00  0.00    +0.000 A 
ATOM      6  C   UNL     1      -2.792  11.982  19.087  0.00  0.00    +0.000 A 
ATOM      7  C   UNL     1      -3.375  11.269  18.035  0.00  0.00    +0.000 A 
ATOM      8  C   UNL     1      -2.755  10.136  17.530  0.00  0.00    +0.000 A 
ATOM      9  C   UNL     1      -1.525   9.726  18.050  0.00  0.00    +0.000 A 
ATOM     10  C   UNL     1      -0.889  10.407  19.121  0.00  0.00    +0.000 A 
ENDROOT
BRANCH   1  13
ATOM     11  C   UNL     1       1.944   8.787  18.183  0.00  0.00    +0.000 C 
ATOM     12  O   UNL     1       2.241   9.710  17.428  0.00  0.00    +0.000 OA
ATOM     13  N   UNL     1       1.056   8.843  19.252  0.00  0.00    +0.000 N 
ATOM     14  H   UNL     1       1.079   8.079  19.909  0.00  0.00    +0.000 HD
BRANCH  11  19
ATOM     15  C   UNL     1       4.940   3.991  16.879  0.00  0.00    +0.000 C 
ATOM     16  C   UNL     1       4.136   5.199  17.269  0.00  0.00    +0.000 A 
ATOM     17  C   UNL     1       4.619   6.467  16.932  0.00  0.00    +0.000 A 
ATOM     18  C   UNL     1       3.901   7.612  17.272  0.00  0.00    +0.000 A 
ATOM     19  C   UNL     1       2.682   7.521  17.963  0.00  0.00    +0.000 A 
ATOM     20  C   UNL     1       2.177   6.278  18.322  0.00  0.00    +0.000 A 
ATOM     21  C   UNL     1       2.910   5.128  17.964  0.00  0.00    +0.000 A 
BRANCH  21  22
ATOM     22  N   UNL     1       2.346   3.842  18.341  0.00  0.00    +0.000 N 
ATOM     23  O   UNL     1       2.673   3.370  19.438  0.00  0.00    +0.000 OA
ATOM     24  O   UNL     1       1.604   3.295  17.513  0.00  0.00    +0.000 OA
ENDBRANCH  21  22
ENDBRANCH  11  19
ENDBRANCH   1  13
BRANCH   6  25
ATOM     25  O   UNL     1      -3.536  13.099  19.443  0.00  0.00    +0.000 OA
BRANCH  25  26
ATOM     26  C   UNL     1      -4.422  13.072  20.492  0.00  0.00    +0.000 A 
ATOM     27  C   UNL     1      -5.709  12.630  20.205  0.00  0.00    +0.000 A 
ATOM     28  N   UNL     1      -6.647  12.364  21.146  0.00  0.00    +0.000 NA
ATOM     29  C   UNL     1      -6.266  12.520  22.438  0.00  0.00    +0.000 A 
ATOM     30  C   UNL     1      -5.016  12.993  22.819  0.00  0.00    +0.000 A 
ATOM     31  C   UNL     1      -4.115  13.368  21.819  0.00  0.00    +0.000 A 
BRANCH  30  32
ATOM     32  C   UNL     1      -4.650  12.966  24.251  0.00  0.00    +0.000 C 
ATOM     33  N   UNL     1      -4.239  14.144  24.818  0.00  0.00    +0.000 N 
ATOM     34  O   UNL     1      -4.642  11.922  24.889  0.00  0.00    +0.000 OA
ATOM     35  H   UNL     1      -4.007  14.969  24.281  0.00  0.00    +0.000 HD
ATOM     36  H   UNL     1      -3.860  14.089  25.756  0.00  0.00    +0.000 HD
ENDBRANCH  30  32
ENDBRANCH  25  26
ENDBRANCH   6  25
TORSDOF 6
ENDMDL
MODEL 8
REMARK VINA RESULT:      -8.5      3.512     11.729
REMARK  Name = 
REMARK  7 active torsions:
REMARK  status: ('A' for Active; 'I' for Inactive)
REMARK    1  A    between atoms: C_1  and  C_2
REMARK    2  A    between atoms: C_5  and  C_6
REMARK    3  A    between atoms: N_8  and  C_9
REMARK    4  A    between atoms: C_14  and  O_15
REMARK    5  A    between atoms: O_15  and  C_16
REMARK    6  A    between atoms: C_20  and  C_21
REMARK    7  A    between atoms: C_30  and  N_31
REMARK                            x       y       z     vdW  Elec       q    Type
REMARK                         _______ _______ _______ _____ _____    ______ ____
ROOT
ATOM      1  C   UNL     1       1.149   9.554  19.546  0.00  0.00    +0.000 A 
ATOM      2  C   UNL     1       1.388  10.579  18.623  0.00  0.00    +0.000 A 
ATOM      3  C   UNL     1       1.250  11.905  18.978  0.00  0.00    +0.000 A 
ATOM      4  C   UNL     1       0.762  12.218  20.234  0.00  0.00    +0.000 A 
ATOM      5  C   UNL     1       0.237  11.235  21.103  0.00  0.00    +0.000 A 
ATOM      6  C   UNL     1      -0.526  11.557  22.265  0.00  0.00    +0.000 A 
ATOM      7  C   UNL     1      -0.885  10.556  23.174  0.00  0.00    +0.000 A 
ATOM      8  C   UNL     1      -0.558   9.233  22.923  0.00  0.00    +0.000 A 
ATOM      9  C   UNL     1       0.103   8.892  21.740  0.00  0.00    +0.000 A 
ATOM     10  C   UNL     1       0.498   9.865  20.785  0.00  0.00    +0.000 A 
ENDROOT
BRANCH   1  13
ATOM     11  C   UNL     1       2.307   7.899  18.099  0.00  0.00    +0.000 C 
ATOM     12  O   UNL     1       2.621   8.660  17.186  0.00  0.00    +0.000 OA
ATOM     13  N   UNL     1       1.590   8.228  19.244  0.00  0.00    +0.000 N 
ATOM     14  H   UNL     1       1.599   7.560  20.000  0.00  0.00    +0.000 HD
BRANCH  11  19
ATOM     15  C   UNL     1       4.006   2.351  17.952  0.00  0.00    +0.000 C 
ATOM     16  C   UNL     1       3.627   3.805  17.965  0.00  0.00    +0.000 A 
ATOM     17  C   UNL     1       2.275   4.149  17.878  0.00  0.00    +0.000 A 
ATOM     18  C   UNL     1       1.882   5.486  17.891  0.00  0.00    +0.000 A 
ATOM     19  C   UNL     1       2.832   6.517  17.985  0.00  0.00    +0.000 A 
ATOM     20  C   UNL     1       4.184   6.211  18.064  0.00  0.00    +0.000 A 
ATOM     21  C   UNL     1       4.566   4.854  18.059  0.00  0.00    +0.000 A 
BRANCH  21  22
ATOM     22  N   UNL     1       5.988   4.569  18.158  0.00  0.00    +0.000 N 
ATOM     23  O   UNL     1       6.606   4.356  17.107  0.00  0.00    +0.000 OA
ATOM     24  O   UNL     1       6.469   4.523  19.299  0.00  0.00    +0.000 OA
ENDBRANCH  21  22
ENDBRANCH  11  19
ENDBRANCH   1  13
BRANCH   6  25
ATOM     25  O   UNL     1      -0.958  12.814  22.666  0.00  0.00    +0.000 OA
BRANCH  25  26
ATOM     26  C   UNL     1      -2.258  13.221  22.492  0.00  0.00    +0.000 A 
ATOM     27  C   UNL     1      -2.620  13.602  21.204  0.00  0.00    +0.000 A 
ATOM     28  N   UNL     1      -3.894  13.848  20.817  0.00  0.00    +0.000 NA
ATOM     29  C   UNL     1      -4.855  13.676  21.759  0.00  0.00    +0.000 A 
ATOM     30  C   UNL     1      -4.584  13.337  23.079  0.00  0.00    +0.000 A 
ATOM     31  C   UNL     1      -3.249  13.204  23.470  0.00  0.00    +0.000 A 
BRANCH  30  32
ATOM     32  C   UNL     1      -5.713  13.013  23.978  0.00  0.00    +0.000 C 
ATOM     33  N   UNL     1      -6.556  14.037  24.324  0.00  0.00    +0.000 N 
ATOM     34  O   UNL     1      -5.850  11.894  24.454  0.00  0.00    +0.000 OA
ATOM     35  H   UNL     1      -6.349  15.011  24.148  0.00  0.00    +0.000 HD
ATOM     36  H   UNL     1      -7.239  13.838  25.044  0.00  0.00    +0.000 HD
ENDBRANCH  30  32
ENDBRANCH  25  26
ENDBRANCH   6  25
TORSDOF 6
ENDMDL
MODEL 9
REMARK VINA RESULT:      -8.5      3.475     11.960
REMARK  Name = 
REMARK  7 active torsions:
REMARK  status: ('A' for Active; 'I' for Inactive)
REMARK    1  A    between atoms: C_1  and  C_2
REMARK    2  A    between atoms: C_5  and  C_6
REMARK    3  A    between atoms: N_8  and  C_9
REMARK    4  A    between atoms: C_14  and  O_15
REMARK    5  A    between atoms: O_15  and  C_16
REMARK    6  A    between atoms: C_20  and  C_21
REMARK    7  A    between atoms: C_30  and  N_31
REMARK                            x       y       z     vdW  Elec       q    Type
REMARK                         _______ _______ _______ _____ _____    ______ ____
ROOT
ATOM      1  C   UNL     1       0.904  10.549  19.751  0.00  0.00    +0.000 A 
ATOM      2  C   UNL     1       0.878  11.536  18.758  0.00  0.00    +0.000 A 
ATOM      3  C   UNL     1       0.348  12.784  19.006  0.00  0.00    +0.000 A 
ATOM      4  C   UNL     1      -0.266  13.025  20.223  0.00  0.00    +0.000 A 
ATOM      5  C   UNL     1      -0.523  11.992  21.152  0.00  0.00    +0.000 A 
ATOM      6  C   UNL     1      -1.398  12.154  22.268  0.00  0.00    +0.000 A 
ATOM      7  C   UNL     1      -1.494  11.155  23.242  0.00  0.00    +0.000 A 
ATOM      8  C   UNL     1      -0.787   9.971  23.101  0.00  0.00    +0.000 A 
ATOM      9  C   UNL     1      -0.003   9.760  21.964  0.00  0.00    +0.000 A 
ATOM     10  C   UNL     1       0.136  10.739  20.947  0.00  0.00    +0.000 A 
ENDROOT
BRANCH   1  13
ATOM     11  C   UNL     1       1.743   8.648  18.387  0.00  0.00    +0.000 C 
ATOM     12  O   UNL     1       1.053   8.838  17.387  0.00  0.00    +0.000 OA
ATOM     13  N   UNL     1       1.722   9.392  19.562  0.00  0.00    +0.000 N 
ATOM     14  H   UNL     1       2.489   9.258  20.204  0.00  0.00    +0.000 HD
BRANCH  11  19
ATOM     15  C   UNL     1       5.691   4.395  18.419  0.00  0.00    +0.000 C 
ATOM     16  C   UNL     1       4.684   5.508  18.346  0.00  0.00    +0.000 A 
ATOM     17  C   UNL     1       3.592   5.487  19.219  0.00  0.00    +0.000 A 
ATOM     18  C   UNL     1       2.639   6.502  19.185  0.00  0.00    +0.000 A 
ATOM     19  C   UNL     1       2.747   7.565  18.272  0.00  0.00    +0.000 A 
ATOM     20  C   UNL     1       3.813   7.611  17.384  0.00  0.00    +0.000 A 
ATOM     21  C   UNL     1       4.776   6.582  17.436  0.00  0.00    +0.000 A 
BRANCH  21  22
ATOM     22  N   UNL     1       5.887   6.670  16.502  0.00  0.00    +0.000 N 
ATOM     23  O   UNL     1       5.792   6.049  15.436  0.00  0.00    +0.000 OA
ATOM     24  O   UNL     1       6.868   7.335  16.865  0.00  0.00    +0.000 OA
ENDBRANCH  21  22
ENDBRANCH  11  19
ENDBRANCH   1  13
BRANCH   6  25
ATOM     25  O   UNL     1      -2.192  13.255  22.560  0.00  0.00    +0.000 OA
BRANCH  25  26
ATOM     26  C   UNL     1      -3.540  13.265  22.297  0.00  0.00    +0.000 A 
ATOM     27  C   UNL     1      -3.910  13.158  20.960  0.00  0.00    +0.000 A 
ATOM     28  N   UNL     1      -5.183  12.964  20.540  0.00  0.00    +0.000 NA
ATOM     29  C   UNL     1      -6.126  12.841  21.507  0.00  0.00    +0.000 A 
ATOM     30  C   UNL     1      -5.856  12.972  22.864  0.00  0.00    +0.000 A 
ATOM     31  C   UNL     1      -4.551  13.288  23.254  0.00  0.00    +0.000 A 
BRANCH  30  32
ATOM     32  C   UNL     1      -6.923  12.655  23.837  0.00  0.00    +0.000 C 
ATOM     33  N   UNL     1      -7.415  13.688  24.591  0.00  0.00    +0.000 N 
ATOM     34  O   UNL     1      -7.304  11.506  24.016  0.00  0.00    +0.000 OA
ATOM     35  H   UNL     1      -6.973  14.596  24.645  0.00  0.00    +0.000 HD
ATOM     36  H   UNL     1      -8.042  13.440  25.346  0.00  0.00    +0.000 HD
ENDBRANCH  30  32
ENDBRANCH  25  26
ENDBRANCH   6  25
TORSDOF 6
ENDMDL
