MODEL 1
REMARK VINA RESULT:      -7.1      0.000      0.000
REMARK  Name = 
REMARK  6 active torsions:
REMARK  status: ('A' for Active; 'I' for Inactive)
REMARK    1  A    between atoms: C_1  and  C_2
REMARK    2  A    between atoms: C_2  and  O_3
REMARK    3  A    between atoms: O_3  and  C_4
REMARK    4  A    between atoms: C_6  and  N_7
REMARK    5  A    between atoms: C_8  and  C_10
REMARK    6  A    between atoms: C_10  and  C_11
REMARK                            x       y       z     vdW  Elec       q    Type
REMARK                         _______ _______ _______ _____ _____    ______ ____
ROOT
ATOM      1  C   UNL     1       2.754   3.208  18.042  0.00  0.00    +0.000 C 
ATOM      2  C   UNL     1       1.654   4.274  17.801  0.00  0.00    +0.000 C 
ATOM      3  C   UNL     1       2.571   5.289  18.513  0.00  0.00    +0.000 C 
ATOM      4  C   UNL     1       3.789   4.400  18.086  0.00  0.00    +0.000 C 
ATOM      5  C   UNL     1       4.882   4.257  19.155  0.00  0.00    +0.000 C 
ATOM      6  C   UNL     1       5.839   5.439  19.077  0.00  0.00    +0.000 C 
ATOM      7  O   UNL     1       6.433   5.506  17.777  0.00  0.00    +0.000 OA
ATOM      8  C   UNL     1       5.456   5.769  16.773  0.00  0.00    +0.000 C 
ATOM      9  C   UNL     1       4.436   4.638  16.705  0.00  0.00    +0.000 C 
ENDROOT
BRANCH   3  10
ATOM     10  N   UNL     1       2.528   6.647  17.945  0.00  0.00    +0.000 N 
ATOM     11  C   UNL     1       2.269   7.762  18.719  0.00  0.00    +0.000 C 
ATOM     12  O   UNL     1       2.058   7.709  19.930  0.00  0.00    +0.000 OA
ATOM     13  H   UNL     1       2.598   6.782  16.941  0.00  0.00    +0.000 HD
BRANCH  11  14
ATOM     14  C   UNL     1       2.287   9.069  17.960  0.00  0.00    +0.000 C 
BRANCH  14  15
ATOM     15  C   UNL     1       1.041   9.849  18.235  0.00  0.00    +0.000 A 
ATOM     16  C   UNL     1      -0.246   9.590  17.796  0.00  0.00    +0.000 A 
ATOM     17  C   UNL     1      -1.191  10.536  18.298  0.00  0.00    +0.000 A 
ATOM     18  C   UNL     1      -0.578  11.474  19.086  0.00  0.00    +0.000 A 
ATOM     19 CL   UNL     1      -1.336  12.786  19.895  0.00  0.00    +0.000 Cl
ATOM     20  S   UNL     1       1.091  11.247  19.232  0.00  0.00    +0.000 S 
ENDBRANCH  14  15
ENDBRANCH  11  14
ENDBRANCH   3  10
BRANCH   1  21
ATOM     21  O   UNL     1       2.626   2.428  19.256  0.00  0.00    +0.000 OA
BRANCH  21  23
ATOM     22  C   UNL     1       1.445   2.891  21.290  0.00  0.00    +0.000 C 
ATOM     23  C   UNL     1       1.335   2.411  19.858  0.00  0.00    +0.000 C 
ENDBRANCH  21  23
ENDBRANCH   1  21
TORSDOF 5
ENDMDL
MODEL 2
REMARK VINA RESULT:      -6.8      0.802      1.002
REMARK  Name = 
REMARK  6 active torsions:
REMARK  status: ('A' for Active; 'I' for Inactive)
REMARK    1  A    between atoms: C_1  and  C_2
REMARK    2  A    between atoms: C_2  and  O_3
REMARK    3  A    between atoms: O_3  and  C_4
REMARK    4  A    between atoms: C_6  and  N_7
REMARK    5  A    between atoms: C_8  and  C_10
REMARK    6  A    between atoms: C_10  and  C_11
REMARK                            x       y       z     vdW  Elec       q    Type
REMARK                         _______ _______ _______ _____ _____    ______ ____
ROOT
ATOM      1  C   UNL     1       2.812   3.202  18.123  0.00  0.00    +0.000 C 
ATOM      2  C   UNL     1       1.690   4.241  17.865  0.00  0.00    +0.000 C 
ATOM      3  C   UNL     1       2.595   5.290  18.543  0.00  0.00    +0.000 C 
ATOM      4  C   UNL     1       3.825   4.412  18.129  0.00  0.00    +0.000 C 
ATOM      5  C   UNL     1       4.929   4.317  19.191  0.00  0.00    +0.000 C 
ATOM      6  C   UNL     1       5.864   5.514  19.075  0.00  0.00    +0.000 C 
ATOM      7  O   UNL     1       6.445   5.559  17.769  0.00  0.00    +0.000 OA
ATOM      8  C   UNL     1       5.455   5.778  16.767  0.00  0.00    +0.000 C 
ATOM      9  C   UNL     1       4.457   4.627  16.737  0.00  0.00    +0.000 C 
ENDROOT
BRANCH   3  10
ATOM     10  N   UNL     1       2.522   6.632  17.941  0.00  0.00    +0.000 N 
ATOM     11  C   UNL     1       2.215   7.757  18.684  0.00  0.00    +0.000 C 
ATOM     12  O   UNL     1       1.982   7.727  19.891  0.00  0.00    +0.000 OA
ATOM     13  H   UNL     1       2.607   6.746  16.936  0.00  0.00    +0.000 HD
BRANCH  11  14
ATOM     14  C   UNL     1       2.208   9.046  17.894  0.00  0.00    +0.000 C 
BRANCH  14  15
ATOM     15  C   UNL     1       1.154   9.970  18.413  0.00  0.00    +0.000 A 
ATOM     16  C   UNL     1       1.302  11.037  19.282  0.00  0.00    +0.000 A 
ATOM     17  C   UNL     1       0.070  11.718  19.521  0.00  0.00    +0.000 A 
ATOM     18  C   UNL     1      -0.958  11.133  18.830  0.00  0.00    +0.000 A 
ATOM     19 CL   UNL     1      -2.602  11.631  18.822  0.00  0.00    +0.000 Cl
ATOM     20  S   UNL     1      -0.480   9.795  17.913  0.00  0.00    +0.000 S 
ENDBRANCH  14  15
ENDBRANCH  11  14
ENDBRANCH   3  10
BRANCH   1  21
ATOM     21  O   UNL     1       2.708   2.450  19.357  0.00  0.00    +0.000 OA
BRANCH  21  23
ATOM     22  C   UNL     1       1.512   2.868  21.392  0.00  0.00    +0.000 C 
ATOM     23  C   UNL     1       1.416   2.400  19.955  0.00  0.00    +0.000 C 
ENDBRANCH  21  23
ENDBRANCH   1  21
TORSDOF 5
ENDMDL
MODEL 3
REMARK VINA RESULT:      -6.6      1.618      3.620
REMARK  Name = 
REMARK  6 active torsions:
REMARK  status: ('A' for Active; 'I' for Inactive)
REMARK    1  A    between atoms: C_1  and  C_2
REMARK    2  A    between atoms: C_2  and  O_3
REMARK    3  A    between atoms: O_3  and  C_4
REMARK    4  A    between atoms: C_6  and  N_7
REMARK    5  A    between atoms: C_8  and  C_10
REMARK    6  A    between atoms: C_10  and  C_11
REMARK                            x       y       z     vdW  Elec       q    Type
REMARK                         _______ _______ _______ _____ _____    ______ ____
ROOT
ATOM      1  C   UNL     1       5.016   5.187  17.291  0.00  0.00    +0.000 C 
ATOM      2  C   UNL     1       4.845   6.696  17.604  0.00  0.00    +0.000 C 
ATOM      3  C   UNL     1       3.325   6.444  17.670  0.00  0.00    +0.000 C 
ATOM      4  C   UNL     1       3.646   4.956  18.039  0.00  0.00    +0.000 C 
ATOM      5  C   UNL     1       2.724   3.920  17.379  0.00  0.00    +0.000 C 
ATOM      6  C   UNL     1       1.457   3.753  18.207  0.00  0.00    +0.000 C 
ATOM      7  O   UNL     1       1.788   3.337  19.535  0.00  0.00    +0.000 OA
ATOM      8  C   UNL     1       2.536   4.337  20.222  0.00  0.00    +0.000 C 
ATOM      9  C   UNL     1       3.867   4.588  19.522  0.00  0.00    +0.000 C 
ENDROOT
BRANCH   3  10
ATOM     10  N   UNL     1       2.624   7.232  18.697  0.00  0.00    +0.000 N 
ATOM     11  C   UNL     1       2.029   8.448  18.415  0.00  0.00    +0.000 C 
ATOM     12  O   UNL     1       2.037   8.960  17.297  0.00  0.00    +0.000 OA
ATOM     13  H   UNL     1       2.644   6.937  19.668  0.00  0.00    +0.000 HD
BRANCH  11  14
ATOM     14  C   UNL     1       1.340   9.096  19.595  0.00  0.00    +0.000 C 
BRANCH  14  15
ATOM     15  C   UNL     1       0.559  10.291  19.150  0.00  0.00    +0.000 A 
ATOM     16  C   UNL     1      -0.708  10.328  18.596  0.00  0.00    +0.000 A 
ATOM     17  C   UNL     1      -1.147  11.661  18.334  0.00  0.00    +0.000 A 
ATOM     18  C   UNL     1      -0.191  12.575  18.691  0.00  0.00    +0.000 A 
ATOM     19 CL   UNL     1      -0.302  14.283  18.555  0.00  0.00    +0.000 Cl
ATOM     20  S   UNL     1       1.210  11.871  19.325  0.00  0.00    +0.000 S 
ENDBRANCH  14  15
ENDBRANCH  11  14
ENDBRANCH   3  10
BRANCH   1  21
ATOM     21  O   UNL     1       5.045   4.831  15.886  0.00  0.00    +0.000 OA
BRANCH  21  23
ATOM     22  C   UNL     1       6.104   3.874  13.960  0.00  0.00    +0.000 C 
ATOM     23  C   UNL     1       6.141   4.023  15.467  0.00  0.00    +0.000 C 
ENDBRANCH  21  23
ENDBRANCH   1  21
TORSDOF 5
ENDMDL
MODEL 4
REMARK VINA RESULT:      -6.5      1.282      1.470
REMARK  Name = 
REMARK  6 active torsions:
REMARK  status: ('A' for Active; 'I' for Inactive)
REMARK    1  A    between atoms: C_1  and  C_2
REMARK    2  A    between atoms: C_2  and  O_3
REMARK    3  A    between atoms: O_3  and  C_4
REMARK    4  A    between atoms: C_6  and  N_7
REMARK    5  A    between atoms: C_8  and  C_10
REMARK    6  A    between atoms: C_10  and  C_11
REMARK                            x       y       z     vdW  Elec       q    Type
REMARK                         _______ _______ _______ _____ _____    ______ ____
ROOT
ATOM      1  C   UNL     1       3.769   3.963  18.432  0.00  0.00    +0.000 C 
ATOM      2  C   UNL     1       2.523   4.882  18.520  0.00  0.00    +0.000 C 
ATOM      3  C   UNL     1       3.492   6.071  18.684  0.00  0.00    +0.000 C 
ATOM      4  C   UNL     1       4.568   5.225  17.921  0.00  0.00    +0.000 C 
ATOM      5  C   UNL     1       5.992   5.349  18.481  0.00  0.00    +0.000 C 
ATOM      6  C   UNL     1       6.676   6.576  17.890  0.00  0.00    +0.000 C 
ATOM      7  O   UNL     1       6.717   6.476  16.464  0.00  0.00    +0.000 OA
ATOM      8  C   UNL     1       5.407   6.491  15.903  0.00  0.00    +0.000 C 
ATOM      9  C   UNL     1       4.605   5.285  16.380  0.00  0.00    +0.000 C 
ENDROOT
BRANCH   3  10
ATOM     10  N   UNL     1       3.049   7.309  18.021  0.00  0.00    +0.000 N 
ATOM     11  C   UNL     1       2.244   8.237  18.655  0.00  0.00    +0.000 C 
ATOM     12  O   UNL     1       1.840   8.104  19.809  0.00  0.00    +0.000 OA
ATOM     13  H   UNL     1       3.254   7.464  17.039  0.00  0.00    +0.000 HD
BRANCH  11  14
ATOM     14  C   UNL     1       1.912   9.453  17.820  0.00  0.00    +0.000 C 
BRANCH  14  15
ATOM     15  C   UNL     1       0.618  10.054  18.266  0.00  0.00    +0.000 A 
ATOM     16  C   UNL     1      -0.662   9.743  17.840  0.00  0.00    +0.000 A 
ATOM     17  C   UNL     1      -1.660  10.501  18.524  0.00  0.00    +0.000 A 
ATOM     18  C   UNL     1      -1.093  11.358  19.430  0.00  0.00    +0.000 A 
ATOM     19 CL   UNL     1      -1.922  12.446  20.470  0.00  0.00    +0.000 Cl
ATOM     20  S   UNL     1       0.595  11.275  19.473  0.00  0.00    +0.000 S 
ENDBRANCH  14  15
ENDBRANCH  11  14
ENDBRANCH   3  10
BRANCH   1  21
ATOM     21  O   UNL     1       4.220   3.385  19.682  0.00  0.00    +0.000 OA
BRANCH  21  23
ATOM     22  C   UNL     1       3.667   1.398  18.460  0.00  0.00    +0.000 C 
ATOM     23  C   UNL     1       4.131   1.966  19.785  0.00  0.00    +0.000 C 
ENDBRANCH  21  23
ENDBRANCH   1  21
TORSDOF 5
ENDMDL
MODEL 5
REMARK VINA RESULT:      -6.4      2.031      3.842
REMARK  Name = 
REMARK  6 active torsions:
REMARK  status: ('A' for Active; 'I' for Inactive)
REMARK    1  A    between atoms: C_1  and  C_2
REMARK    2  A    between atoms: C_2  and  O_3
REMARK    3  A    between atoms: O_3  and  C_4
REMARK    4  A    between atoms: C_6  and  N_7
REMARK    5  A    between atoms: C_8  and  C_10
REMARK    6  A    between atoms: C_10  and  C_11
REMARK                            x       y       z     vdW  Elec       q    Type
REMARK                         _______ _______ _______ _____ _____    ______ ____
ROOT
ATOM      1  C   UNL     1       5.885   5.061  15.621  0.00  0.00    +0.000 C 
ATOM      2  C   UNL     1       5.331   6.496  15.817  0.00  0.00    +0.000 C 
ATOM      3  C   UNL     1       4.229   5.881  16.704  0.00  0.00    +0.000 C 
ATOM      4  C   UNL     1       5.212   4.696  17.001  0.00  0.00    +0.000 C 
ATOM      5  C   UNL     1       4.549   3.312  17.043  0.00  0.00    +0.000 C 
ATOM      6  C   UNL     1       3.972   3.056  18.429  0.00  0.00    +0.000 C 
ATOM      7  O   UNL     1       5.006   3.133  19.414  0.00  0.00    +0.000 OA
ATOM      8  C   UNL     1       5.554   4.447  19.491  0.00  0.00    +0.000 C 
ATOM      9  C   UNL     1       6.210   4.833  18.170  0.00  0.00    +0.000 C 
ENDROOT
BRANCH   3  10
ATOM     10  N   UNL     1       3.846   6.712  17.857  0.00  0.00    +0.000 N 
ATOM     11  C   UNL     1       2.643   6.546  18.518  0.00  0.00    +0.000 C 
ATOM     12  O   UNL     1       1.808   5.701  18.198  0.00  0.00    +0.000 OA
ATOM     13  H   UNL     1       4.428   7.496  18.137  0.00  0.00    +0.000 HD
BRANCH  11  14
ATOM     14  C   UNL     1       2.439   7.479  19.689  0.00  0.00    +0.000 C 
BRANCH  14  15
ATOM     15  C   UNL     1       1.515   8.594  19.313  0.00  0.00    +0.000 A 
ATOM     16  C   UNL     1       1.291   9.134  18.059  0.00  0.00    +0.000 A 
ATOM     17  C   UNL     1       0.302  10.164  18.081  0.00  0.00    +0.000 A 
ATOM     18  C   UNL     1      -0.171  10.366  19.350  0.00  0.00    +0.000 A 
ATOM     19 CL   UNL     1      -1.369  11.499  19.830  0.00  0.00    +0.000 Cl
ATOM     20  S   UNL     1       0.541   9.356  20.505  0.00  0.00    +0.000 S 
ENDBRANCH  14  15
ENDBRANCH  11  14
ENDBRANCH   3  10
BRANCH   1  21
ATOM     21  O   UNL     1       5.393   4.344  14.461  0.00  0.00    +0.000 OA
BRANCH  21  23
ATOM     22  C   UNL     1       5.683   3.308  12.319  0.00  0.00    +0.000 C 
ATOM     23  C   UNL     1       6.372   3.954  13.503  0.00  0.00    +0.000 C 
ENDBRANCH  21  23
ENDBRANCH   1  21
TORSDOF 5
ENDMDL
MODEL 6
REMARK VINA RESULT:      -6.4      1.473      1.773
REMARK  Name = 
REMARK  6 active torsions:
REMARK  status: ('A' for Active; 'I' for Inactive)
REMARK    1  A    between atoms: C_1  and  C_2
REMARK    2  A    between atoms: C_2  and  O_3
REMARK    3  A    between atoms: O_3  and  C_4
REMARK    4  A    between atoms: C_6  and  N_7
REMARK    5  A    between atoms: C_8  and  C_10
REMARK    6  A    between atoms: C_10  and  C_11
REMARK                            x       y       z     vdW  Elec       q    Type
REMARK                         _______ _______ _______ _____ _____    ______ ____
ROOT
ATOM      1  C   UNL     1       3.792   3.973  18.435  0.00  0.00    +0.000 C 
ATOM      2  C   UNL     1       2.528   4.868  18.523  0.00  0.00    +0.000 C 
ATOM      3  C   UNL     1       3.473   6.078  18.663  0.00  0.00    +0.000 C 
ATOM      4  C   UNL     1       4.559   5.245  17.900  0.00  0.00    +0.000 C 
ATOM      5  C   UNL     1       5.986   5.405  18.444  0.00  0.00    +0.000 C 
ATOM      6  C   UNL     1       6.638   6.638  17.831  0.00  0.00    +0.000 C 
ATOM      7  O   UNL     1       6.668   6.520  16.406  0.00  0.00    +0.000 OA
ATOM      8  C   UNL     1       5.353   6.501  15.858  0.00  0.00    +0.000 C 
ATOM      9  C   UNL     1       4.581   5.285  16.358  0.00  0.00    +0.000 C 
ENDROOT
BRANCH   3  10
ATOM     10  N   UNL     1       2.998   7.298  17.988  0.00  0.00    +0.000 N 
ATOM     11  C   UNL     1       2.194   8.226  18.623  0.00  0.00    +0.000 C 
ATOM     12  O   UNL     1       1.818   8.108  19.788  0.00  0.00    +0.000 OA
ATOM     13  H   UNL     1       3.180   7.438  16.999  0.00  0.00    +0.000 HD
BRANCH  11  14
ATOM     14  C   UNL     1       1.828   9.422  17.774  0.00  0.00    +0.000 C 
BRANCH  14  15
ATOM     15  C   UNL     1       0.931  10.346  18.535  0.00  0.00    +0.000 A 
ATOM     16  C   UNL     1       1.287  11.335  19.435  0.00  0.00    +0.000 A 
ATOM     17  C   UNL     1       0.154  12.046  19.935  0.00  0.00    +0.000 A 
ATOM     18  C   UNL     1      -1.009  11.559  19.400  0.00  0.00    +0.000 A 
ATOM     19 CL   UNL     1      -2.600  12.124  19.718  0.00  0.00    +0.000 Cl
ATOM     20  S   UNL     1      -0.772  10.277  18.323  0.00  0.00    +0.000 S 
ENDBRANCH  14  15
ENDBRANCH  11  14
ENDBRANCH   3  10
BRANCH   1  21
ATOM     21  O   UNL     1       4.266   3.421  19.688  0.00  0.00    +0.000 OA
BRANCH  21  23
ATOM     22  C   UNL     1       3.672   1.412  18.523  0.00  0.00    +0.000 C 
ATOM     23  C   UNL     1       4.198   2.003  19.814  0.00  0.00    +0.000 C 
ENDBRANCH  21  23
ENDBRANCH   1  21
TORSDOF 5
ENDMDL
MODEL 7
REMARK VINA RESULT:      -6.3      4.115      6.914
REMARK  Name = 
REMARK  6 active torsions:
REMARK  status: ('A' for Active; 'I' for Inactive)
REMARK    1  A    between atoms: C_1  and  C_2
REMARK    2  A    between atoms: C_2  and  O_3
REMARK    3  A    between atoms: O_3  and  C_4
REMARK    4  A    between atoms: C_6  and  N_7
REMARK    5  A    between atoms: C_8  and  C_10
REMARK    6  A    between atoms: C_10  and  C_11
REMARK                            x       y       z     vdW  Elec       q    Type
REMARK                         _______ _______ _______ _____ _____    ______ ____
ROOT
ATOM      1  C   UNL     1       2.200   7.292  18.439  0.00  0.00    +0.000 C 
ATOM      2  C   UNL     1       3.556   7.378  17.691  0.00  0.00    +0.000 C 
ATOM      3  C   UNL     1       4.079   6.286  18.646  0.00  0.00    +0.000 C 
ATOM      4  C   UNL     1       2.596   5.813  18.824  0.00  0.00    +0.000 C 
ATOM      5  C   UNL     1       2.223   5.404  20.256  0.00  0.00    +0.000 C 
ATOM      6  C   UNL     1       2.616   3.952  20.499  0.00  0.00    +0.000 C 
ATOM      7  O   UNL     1       1.954   3.100  19.560  0.00  0.00    +0.000 OA
ATOM      8  C   UNL     1       2.379   3.369  18.226  0.00  0.00    +0.000 C 
ATOM      9  C   UNL     1       2.015   4.793  17.822  0.00  0.00    +0.000 C 
ENDROOT
BRANCH   3  10
ATOM     10  N   UNL     1       4.997   5.322  18.017  0.00  0.00    +0.000 N 
ATOM     11  C   UNL     1       6.342   5.591  17.841  0.00  0.00    +0.000 C 
ATOM     12  O   UNL     1       6.871   6.645  18.191  0.00  0.00    +0.000 OA
ATOM     13  H   UNL     1       4.638   4.463  17.612  0.00  0.00    +0.000 HD
BRANCH  11  14
ATOM     14  C   UNL     1       7.126   4.471  17.196  0.00  0.00    +0.000 C 
BRANCH  14  15
ATOM     15  C   UNL     1       6.888   4.451  15.720  0.00  0.00    +0.000 A 
ATOM     16  C   UNL     1       7.576   5.134  14.732  0.00  0.00    +0.000 A 
ATOM     17  C   UNL     1       7.089   4.833  13.424  0.00  0.00    +0.000 A 
ATOM     18  C   UNL     1       6.049   3.942  13.479  0.00  0.00    +0.000 A 
ATOM     19 CL   UNL     1       5.175   3.304  12.145  0.00  0.00    +0.000 Cl
ATOM     20  S   UNL     1       5.648   3.468  15.052  0.00  0.00    +0.000 S 
ENDBRANCH  14  15
ENDBRANCH  11  14
ENDBRANCH   3  10
BRANCH   1  21
ATOM     21  O   UNL     1       2.025   8.214  19.542  0.00  0.00    +0.000 OA
BRANCH  21  23
ATOM     22  C   UNL     1       0.288   9.451  20.637  0.00  0.00    +0.000 C 
ATOM     23  C   UNL     1       1.060   9.245  19.351  0.00  0.00    +0.000 C 
ENDBRANCH  21  23
ENDBRANCH   1  21
TORSDOF 5
ENDMDL
MODEL 8
REMARK VINA RESULT:      -6.3      1.822      3.687
REMARK  Name = 
REMARK  6 active torsions:
REMARK  status: ('A' for Active; 'I' for Inactive)
REMARK    1  A    between atoms: C_1  and  C_2
REMARK    2  A    between atoms: C_2  and  O_3
REMARK    3  A    between atoms: O_3  and  C_4
REMARK    4  A    between atoms: C_6  and  N_7
REMARK    5  A    between atoms: C_8  and  C_10
REMARK    6  A    between atoms: C_10  and  C_11
REMARK                            x       y       z     vdW  Elec       q    Type
REMARK                         _______ _______ _______ _____ _____    ______ ____
ROOT
ATOM      1  C   UNL     1       4.909   5.620  17.395  0.00  0.00    +0.000 C 
ATOM      2  C   UNL     1       4.644   7.134  17.600  0.00  0.00    +0.000 C 
ATOM      3  C   UNL     1       3.143   6.791  17.704  0.00  0.00    +0.000 C 
ATOM      4  C   UNL     1       3.563   5.357  18.177  0.00  0.00    +0.000 C 
ATOM      5  C   UNL     1       2.704   4.220  17.607  0.00  0.00    +0.000 C 
ATOM      6  C   UNL     1       1.458   4.033  18.462  0.00  0.00    +0.000 C 
ATOM      7  O   UNL     1       1.827   3.738  19.812  0.00  0.00    +0.000 OA
ATOM      8  C   UNL     1       2.515   4.831  20.413  0.00  0.00    +0.000 C 
ATOM      9  C   UNL     1       3.821   5.115  19.679  0.00  0.00    +0.000 C 
ENDROOT
BRANCH   3  10
ATOM     10  N   UNL     1       2.403   7.606  18.681  0.00  0.00    +0.000 N 
ATOM     11  C   UNL     1       1.846   8.828  18.351  0.00  0.00    +0.000 C 
ATOM     12  O   UNL     1       1.924   9.324  17.228  0.00  0.00    +0.000 OA
ATOM     13  H   UNL     1       2.365   7.325  19.656  0.00  0.00    +0.000 HD
BRANCH  11  14
ATOM     14  C   UNL     1       1.107   9.506  19.482  0.00  0.00    +0.000 C 
BRANCH  14  15
ATOM     15  C   UNL     1       0.070  10.438  18.942  0.00  0.00    +0.000 A 
ATOM     16  C   UNL     1       0.116  11.819  18.864  0.00  0.00    +0.000 A 
ATOM     17  C   UNL     1      -1.049  12.367  18.247  0.00  0.00    +0.000 A 
ATOM     18  C   UNL     1      -1.930  11.379  17.893  0.00  0.00    +0.000 A 
ATOM     19 CL   UNL     1      -3.450  11.589  17.120  0.00  0.00    +0.000 Cl
ATOM     20  S   UNL     1      -1.394   9.824  18.285  0.00  0.00    +0.000 S 
ENDBRANCH  14  15
ENDBRANCH  11  14
ENDBRANCH   3  10
BRANCH   1  21
ATOM     21  O   UNL     1       4.948   5.163  16.020  0.00  0.00    +0.000 OA
BRANCH  21  23
ATOM     22  C   UNL     1       7.176   4.512  16.617  0.00  0.00    +0.000 C 
ATOM     23  C   UNL     1       6.007   4.271  15.685  0.00  0.00    +0.000 C 
ENDBRANCH  21  23
ENDBRANCH   1  21
TORSDOF 5
ENDMDL
MODEL 9
REMARK VINA RESULT:      -6.2      4.106      6.320
REMARK  Name = 
REMARK  6 active torsions:
REMARK  status: ('A' for Active; 'I' for Inactive)
REMARK    1  A    between atoms: C_1  and  C_2
REMARK    2  A    between atoms: C_2  and  O_3
REMARK    3  A    between atoms: O_3  and  C_4
REMARK    4  A    between atoms: C_6  and  N_7
REMARK    5  A    between atoms: C_8  and  C_10
REMARK    6  A    between atoms: C_10  and  C_11
REMARK                            x       y       z     vdW  Elec       q    Type
REMARK                         _______ _______ _______ _____ _____    ______ ____
ROOT
ATOM      1  C   UNL     1       1.780   6.248  19.487  0.00  0.00    +0.000 C 
ATOM      2  C   UNL     1       2.961   6.952  18.769  0.00  0.00    +0.000 C 
ATOM      3  C   UNL     1       3.877   5.843  19.326  0.00  0.00    +0.000 C 
ATOM      4  C   UNL     1       2.617   4.913  19.386  0.00  0.00    +0.000 C 
ATOM      5  C   UNL     1       2.543   4.017  20.631  0.00  0.00    +0.000 C 
ATOM      6  C   UNL     1       3.352   2.747  20.403  0.00  0.00    +0.000 C 
ATOM      7  O   UNL     1       2.851   2.043  19.263  0.00  0.00    +0.000 OA
ATOM      8  C   UNL     1       3.026   2.799  18.068  0.00  0.00    +0.000 C 
ATOM      9  C   UNL     1       2.233   4.099  18.133  0.00  0.00    +0.000 C 
ENDROOT
BRANCH   3  10
ATOM     10  N   UNL     1       4.949   5.426  18.408  0.00  0.00    +0.000 N 
ATOM     11  C   UNL     1       6.222   5.119  18.851  0.00  0.00    +0.000 C 
ATOM     12  O   UNL     1       6.555   5.170  20.034  0.00  0.00    +0.000 OA
ATOM     13  H   UNL     1       4.797   5.443  17.404  0.00  0.00    +0.000 HD
BRANCH  11  14
ATOM     14  C   UNL     1       7.179   4.691  17.762  0.00  0.00    +0.000 C 
BRANCH  14  15
ATOM     15  C   UNL     1       6.536   4.832  16.419  0.00  0.00    +0.000 A 
ATOM     16  C   UNL     1       6.201   5.995  15.748  0.00  0.00    +0.000 A 
ATOM     17  C   UNL     1       5.638   5.737  14.461  0.00  0.00    +0.000 A 
ATOM     18  C   UNL     1       5.562   4.390  14.218  0.00  0.00    +0.000 A 
ATOM     19 CL   UNL     1       4.959   3.638  12.798  0.00  0.00    +0.000 Cl
ATOM     20  S   UNL     1       6.145   3.441  15.491  0.00  0.00    +0.000 S 
ENDBRANCH  14  15
ENDBRANCH  11  14
ENDBRANCH   3  10
BRANCH   1  21
ATOM     21  O   UNL     1       1.482   6.716  20.826  0.00  0.00    +0.000 OA
BRANCH  21  23
ATOM     22  C   UNL     1      -0.015   8.503  21.380  0.00  0.00    +0.000 C 
ATOM     23  C   UNL     1       1.400   8.129  20.993  0.00  0.00    +0.000 C 
ENDBRANCH  21  23
ENDBRANCH   1  21
TORSDOF 5
ENDMDL
