MODEL 1
REMARK VINA RESULT:      -8.2      0.000      0.000
REMARK  Name = 
REMARK  7 active torsions:
REMARK  status: ('A' for Active; 'I' for Inactive)
REMARK    1  A    between atoms: C_1  and  C_2
REMARK    2  A    between atoms: C_2  and  C_4
REMARK    3  A    between atoms: C_8  and  N_9
REMARK    4  A    between atoms: C_10  and  C_12
REMARK    5  A    between atoms: C_12  and  N_13
REMARK    6  A    between atoms: N_18  and  C_19
REMARK    7  A    between atoms: C_19  and  C_20
REMARK                            x       y       z     vdW  Elec       q    Type
REMARK                         _______ _______ _______ _____ _____    ______ ____
ROOT
ATOM      1  C   UNL     1       3.122   3.964  19.944  0.00  0.00    +0.000 C 
ENDROOT
BRANCH   1   2
ATOM      2  N   UNL     1       4.064   4.046  18.853  0.00  0.00    +0.000 N 
ATOM      3  C   UNL     1       3.823   3.652  17.577  0.00  0.00    +0.000 C 
ATOM      4  O   UNL     1       2.823   3.181  17.083  0.00  0.00    +0.000 OA
ATOM      5  C   UNL     1       5.131   3.947  16.822  0.00  0.00    +0.000 C 
ATOM      6  O   UNL     1       5.295   3.826  15.626  0.00  0.00    +0.000 OA
ATOM      7  N   UNL     1       5.989   4.396  17.770  0.00  0.00    +0.000 N 
ATOM      8  C   UNL     1       5.361   4.472  18.979  0.00  0.00    +0.000 C 
ATOM      9  O   UNL     1       5.847   4.865  20.030  0.00  0.00    +0.000 OA
BRANCH   7  10
ATOM     10  C   UNL     1       7.377   4.712  17.519  0.00  0.00    +0.000 C 
BRANCH  10  11
ATOM     11  C   UNL     1       7.563   6.179  17.676  0.00  0.00    +0.000 A 
ATOM     12  C   UNL     1       7.191   7.270  16.919  0.00  0.00    +0.000 A 
ATOM     13  C   UNL     1       7.734   8.408  17.565  0.00  0.00    +0.000 A 
ATOM     14  C   UNL     1       8.376   7.941  18.687  0.00  0.00    +0.000 A 
ATOM     15  O   UNL     1       8.276   6.589  18.764  0.00  0.00    +0.000 OA
ENDBRANCH  10  11
ENDBRANCH   7  10
ENDBRANCH   1   2
BRANCH   1  17
ATOM     16  N   UNL     1       2.765   6.322  19.392  0.00  0.00    +0.000 N 
ATOM     17  C   UNL     1       2.168   5.146  19.823  0.00  0.00    +0.000 C 
ATOM     18  O   UNL     1       0.993   5.016  20.162  0.00  0.00    +0.000 OA
ATOM     19  H   UNL     1       3.734   6.283  19.086  0.00  0.00    +0.000 HD
BRANCH  16  24
ATOM     20  C   UNL     1       0.959   9.404  20.431  0.00  0.00    +0.000 A 
ATOM     21  C   UNL     1       0.854  10.087  19.216  0.00  0.00    +0.000 A 
ATOM     22  C   UNL     1       1.375   9.524  18.056  0.00  0.00    +0.000 A 
ATOM     23  C   UNL     1       2.007   8.284  18.105  0.00  0.00    +0.000 A 
ATOM     24  C   UNL     1       2.132   7.583  19.308  0.00  0.00    +0.000 A 
ATOM     25  C   UNL     1       1.590   8.144  20.471  0.00  0.00    +0.000 A 
BRANCH  20  27
ATOM     26  C   UNL     1      -0.371   9.101  22.624  0.00  0.00    +0.000 C 
ATOM     27  C   UNL     1       0.418   9.990  21.692  0.00  0.00    +0.000 C 
ATOM     28  O   UNL     1       0.624  11.172  21.956  0.00  0.00    +0.000 OA
ENDBRANCH  20  27
ENDBRANCH  16  24
ENDBRANCH   1  17
TORSDOF 6
ENDMDL
MODEL 2
REMARK VINA RESULT:      -7.9      3.351      8.016
REMARK  Name = 
REMARK  7 active torsions:
REMARK  status: ('A' for Active; 'I' for Inactive)
REMARK    1  A    between atoms: C_1  and  C_2
REMARK    2  A    between atoms: C_2  and  C_4
REMARK    3  A    between atoms: C_8  and  N_9
REMARK    4  A    between atoms: C_10  and  C_12
REMARK    5  A    between atoms: C_12  and  N_13
REMARK    6  A    between atoms: N_18  and  C_19
REMARK    7  A    between atoms: C_19  and  C_20
REMARK                            x       y       z     vdW  Elec       q    Type
REMARK                         _______ _______ _______ _____ _____    ______ ____
ROOT
ATOM      1  C   UNL     1       6.331   5.924  18.034  0.00  0.00    +0.000 C 
ENDROOT
BRANCH   1   2
ATOM      2  N   UNL     1       4.967   5.449  18.001  0.00  0.00    +0.000 N 
ATOM      3  C   UNL     1       3.868   6.229  17.846  0.00  0.00    +0.000 C 
ATOM      4  O   UNL     1       3.779   7.427  17.697  0.00  0.00    +0.000 OA
ATOM      5  C   UNL     1       2.683   5.249  17.880  0.00  0.00    +0.000 C 
ATOM      6  O   UNL     1       1.523   5.540  17.677  0.00  0.00    +0.000 OA
ATOM      7  N   UNL     1       3.238   4.038  18.132  0.00  0.00    +0.000 N 
ATOM      8  C   UNL     1       4.596   4.143  18.193  0.00  0.00    +0.000 C 
ATOM      9  O   UNL     1       5.392   3.232  18.376  0.00  0.00    +0.000 OA
BRANCH   7  10
ATOM     10  C   UNL     1       2.475   2.827  18.337  0.00  0.00    +0.000 C 
BRANCH  10  11
ATOM     11  C   UNL     1       2.093   2.748  19.772  0.00  0.00    +0.000 A 
ATOM     12  C   UNL     1       0.913   2.962  20.453  0.00  0.00    +0.000 A 
ATOM     13  C   UNL     1       1.211   2.802  21.828  0.00  0.00    +0.000 A 
ATOM     14  C   UNL     1       2.544   2.475  21.895  0.00  0.00    +0.000 A 
ATOM     15  O   UNL     1       3.089   2.438  20.652  0.00  0.00    +0.000 OA
ENDBRANCH  10  11
ENDBRANCH   7  10
ENDBRANCH   1   2
BRANCH   1  17
ATOM     16  N   UNL     1       6.233   5.050  15.749  0.00  0.00    +0.000 N 
ATOM     17  C   UNL     1       6.845   5.959  16.601  0.00  0.00    +0.000 C 
ATOM     18  O   UNL     1       7.776   6.707  16.307  0.00  0.00    +0.000 OA
ATOM     19  H   UNL     1       5.433   4.529  16.101  0.00  0.00    +0.000 HD
BRANCH  16  24
ATOM     20  C   UNL     1       6.225   3.560  12.341  0.00  0.00    +0.000 A 
ATOM     21  C   UNL     1       7.282   4.246  11.736  0.00  0.00    +0.000 A 
ATOM     22  C   UNL     1       7.998   5.195  12.458  0.00  0.00    +0.000 A 
ATOM     23  C   UNL     1       7.658   5.467  13.781  0.00  0.00    +0.000 A 
ATOM     24  C   UNL     1       6.602   4.801  14.408  0.00  0.00    +0.000 A 
ATOM     25  C   UNL     1       5.894   3.832  13.684  0.00  0.00    +0.000 A 
BRANCH  20  27
ATOM     26  C   UNL     1       6.097   1.242  11.210  0.00  0.00    +0.000 C 
ATOM     27  C   UNL     1       5.433   2.546  11.586  0.00  0.00    +0.000 C 
ATOM     28  O   UNL     1       4.265   2.779  11.287  0.00  0.00    +0.000 OA
ENDBRANCH  20  27
ENDBRANCH  16  24
ENDBRANCH   1  17
TORSDOF 6
ENDMDL
MODEL 3
REMARK VINA RESULT:      -7.9      3.848      8.466
REMARK  Name = 
REMARK  7 active torsions:
REMARK  status: ('A' for Active; 'I' for Inactive)
REMARK    1  A    between atoms: C_1  and  C_2
REMARK    2  A    between atoms: C_2  and  C_4
REMARK    3  A    between atoms: C_8  and  N_9
REMARK    4  A    between atoms: C_10  and  C_12
REMARK    5  A    between atoms: C_12  and  N_13
REMARK    6  A    between atoms: N_18  and  C_19
REMARK    7  A    between atoms: C_19  and  C_20
REMARK                            x       y       z     vdW  Elec       q    Type
REMARK                         _______ _______ _______ _____ _____    ______ ____
ROOT
ATOM      1  C   UNL     1       1.191   9.485  22.149  0.00  0.00    +0.000 C 
ENDROOT
BRANCH   1   2
ATOM      2  N   UNL     1       0.304  10.462  21.561  0.00  0.00    +0.000 N 
ATOM      3  C   UNL     1      -0.698  11.104  22.212  0.00  0.00    +0.000 C 
ATOM      4  O   UNL     1      -1.053  11.024  23.366  0.00  0.00    +0.000 OA
ATOM      5  C   UNL     1      -1.329  12.023  21.152  0.00  0.00    +0.000 C 
ATOM      6  O   UNL     1      -2.200  12.841  21.358  0.00  0.00    +0.000 OA
ATOM      7  N   UNL     1      -0.668  11.737  20.003  0.00  0.00    +0.000 N 
ATOM      8  C   UNL     1       0.314  10.820  20.238  0.00  0.00    +0.000 C 
ATOM      9  O   UNL     1       1.106  10.373  19.420  0.00  0.00    +0.000 OA
BRANCH   7  10
ATOM     10  C   UNL     1      -0.997  12.311  18.718  0.00  0.00    +0.000 C 
BRANCH  10  11
ATOM     11  C   UNL     1      -1.967  11.414  18.036  0.00  0.00    +0.000 A 
ATOM     12  C   UNL     1      -1.830  10.283  17.259  0.00  0.00    +0.000 A 
ATOM     13  C   UNL     1      -3.135   9.929  16.836  0.00  0.00    +0.000 A 
ATOM     14  C   UNL     1      -3.984  10.848  17.403  0.00  0.00    +0.000 A 
ATOM     15  O   UNL     1      -3.285  11.754  18.135  0.00  0.00    +0.000 OA
ENDBRANCH  10  11
ENDBRANCH   7  10
ENDBRANCH   1   2
BRANCH   1  17
ATOM     16  N   UNL     1       2.134   7.688  20.779  0.00  0.00    +0.000 N 
ATOM     17  C   UNL     1       0.993   8.171  21.405  0.00  0.00    +0.000 C 
ATOM     18  O   UNL     1      -0.128   7.668  21.346  0.00  0.00    +0.000 OA
ATOM     19  H   UNL     1       3.014   8.167  20.954  0.00  0.00    +0.000 HD
BRANCH  16  24
ATOM     20  C   UNL     1       1.964   4.144  19.664  0.00  0.00    +0.000 A 
ATOM     21  C   UNL     1       2.298   4.262  18.312  0.00  0.00    +0.000 A 
ATOM     22  C   UNL     1       2.583   5.513  17.774  0.00  0.00    +0.000 A 
ATOM     23  C   UNL     1       2.531   6.647  18.580  0.00  0.00    +0.000 A 
ATOM     24  C   UNL     1       2.194   6.558  19.933  0.00  0.00    +0.000 A 
ATOM     25  C   UNL     1       1.924   5.295  20.476  0.00  0.00    +0.000 A 
BRANCH  20  27
ATOM     26  C   UNL     1       1.536   2.707  21.767  0.00  0.00    +0.000 C 
ATOM     27  C   UNL     1       1.642   2.816  20.264  0.00  0.00    +0.000 C 
ATOM     28  O   UNL     1       1.465   1.842  19.537  0.00  0.00    +0.000 OA
ENDBRANCH  20  27
ENDBRANCH  16  24
ENDBRANCH   1  17
TORSDOF 6
ENDMDL
MODEL 4
REMARK VINA RESULT:      -7.8      1.263      1.581
REMARK  Name = 
REMARK  7 active torsions:
REMARK  status: ('A' for Active; 'I' for Inactive)
REMARK    1  A    between atoms: C_1  and  C_2
REMARK    2  A    between atoms: C_2  and  C_4
REMARK    3  A    between atoms: C_8  and  N_9
REMARK    4  A    between atoms: C_10  and  C_12
REMARK    5  A    between atoms: C_12  and  N_13
REMARK    6  A    between atoms: N_18  and  C_19
REMARK    7  A    between atoms: C_19  and  C_20
REMARK                            x       y       z     vdW  Elec       q    Type
REMARK                         _______ _______ _______ _____ _____    ______ ____
ROOT
ATOM      1  C   UNL     1       3.533   3.765  17.737  0.00  0.00    +0.000 C 
ENDROOT
BRANCH   1   2
ATOM      2  N   UNL     1       4.861   4.277  17.491  0.00  0.00    +0.000 N 
ATOM      3  C   UNL     1       5.515   4.223  16.303  0.00  0.00    +0.000 C 
ATOM      4  O   UNL     1       5.158   3.774  15.237  0.00  0.00    +0.000 OA
ATOM      5  C   UNL     1       6.873   4.895  16.573  0.00  0.00    +0.000 C 
ATOM      6  O   UNL     1       7.717   5.134  15.736  0.00  0.00    +0.000 OA
ATOM      7  N   UNL     1       6.867   5.178  17.898  0.00  0.00    +0.000 N 
ATOM      8  C   UNL     1       5.670   4.827  18.452  0.00  0.00    +0.000 C 
ATOM      9  O   UNL     1       5.333   4.976  19.618  0.00  0.00    +0.000 OA
BRANCH   7  10
ATOM     10  C   UNL     1       7.992   5.740  18.609  0.00  0.00    +0.000 C 
BRANCH  10  11
ATOM     11  C   UNL     1       8.015   7.207  18.371  0.00  0.00    +0.000 A 
ATOM     12  C   UNL     1       7.371   8.034  17.475  0.00  0.00    +0.000 A 
ATOM     13  C   UNL     1       7.875   9.338  17.701  0.00  0.00    +0.000 A 
ATOM     14  C   UNL     1       8.772   9.228  18.737  0.00  0.00    +0.000 A 
ATOM     15  O   UNL     1       8.863   7.938  19.152  0.00  0.00    +0.000 OA
ENDBRANCH  10  11
ENDBRANCH   7  10
ENDBRANCH   1   2
BRANCH   1  17
ATOM     16  N   UNL     1       3.202   6.135  18.256  0.00  0.00    +0.000 N 
ATOM     17  C   UNL     1       2.591   4.957  17.850  0.00  0.00    +0.000 C 
ATOM     18  O   UNL     1       1.387   4.801  17.651  0.00  0.00    +0.000 OA
ATOM     19  H   UNL     1       4.216   6.147  18.331  0.00  0.00    +0.000 HD
BRANCH  16  24
ATOM     20  C   UNL     1       1.394   8.754  20.181  0.00  0.00    +0.000 A 
ATOM     21  C   UNL     1       1.204   9.735  19.204  0.00  0.00    +0.000 A 
ATOM     22  C   UNL     1       1.669   9.526  17.910  0.00  0.00    +0.000 A 
ATOM     23  C   UNL     1       2.329   8.343  17.589  0.00  0.00    +0.000 A 
ATOM     24  C   UNL     1       2.538   7.348  18.548  0.00  0.00    +0.000 A 
ATOM     25  C   UNL     1       2.052   7.554  19.846  0.00  0.00    +0.000 A 
BRANCH  20  27
ATOM     26  C   UNL     1      -0.480   8.503  21.940  0.00  0.00    +0.000 C 
ATOM     27  C   UNL     1       0.914   8.958  21.579  0.00  0.00    +0.000 C 
ATOM     28  O   UNL     1       1.652   9.482  22.409  0.00  0.00    +0.000 OA
ENDBRANCH  20  27
ENDBRANCH  16  24
ENDBRANCH   1  17
TORSDOF 6
ENDMDL
MODEL 5
REMARK VINA RESULT:      -7.7      3.002      7.640
REMARK  Name = 
REMARK  7 active torsions:
REMARK  status: ('A' for Active; 'I' for Inactive)
REMARK    1  A    between atoms: C_1  and  C_2
REMARK    2  A    between atoms: C_2  and  C_4
REMARK    3  A    between atoms: C_8  and  N_9
REMARK    4  A    between atoms: C_10  and  C_12
REMARK    5  A    between atoms: C_12  and  N_13
REMARK    6  A    between atoms: N_18  and  C_19
REMARK    7  A    between atoms: C_19  and  C_20
REMARK                            x       y       z     vdW  Elec       q    Type
REMARK                         _______ _______ _______ _____ _____    ______ ____
ROOT
ATOM      1  C   UNL     1       6.378   4.712  18.389  0.00  0.00    +0.000 C 
ENDROOT
BRANCH   1   2
ATOM      2  N   UNL     1       5.006   5.109  18.173  0.00  0.00    +0.000 N 
ATOM      3  C   UNL     1       3.944   4.266  18.129  0.00  0.00    +0.000 C 
ATOM      4  O   UNL     1       3.897   3.064  18.262  0.00  0.00    +0.000 OA
ATOM      5  C   UNL     1       2.730   5.178  17.878  0.00  0.00    +0.000 C 
ATOM      6  O   UNL     1       1.572   4.821  17.868  0.00  0.00    +0.000 OA
ATOM      7  N   UNL     1       3.251   6.421  17.728  0.00  0.00    +0.000 N 
ATOM      8  C   UNL     1       4.602   6.393  17.914  0.00  0.00    +0.000 C 
ATOM      9  O   UNL     1       5.365   7.349  17.875  0.00  0.00    +0.000 OA
BRANCH   7  10
ATOM     10  C   UNL     1       2.471   7.588  17.384  0.00  0.00    +0.000 C 
BRANCH  10  11
ATOM     11  C   UNL     1       1.913   8.167  18.634  0.00  0.00    +0.000 A 
ATOM     12  C   UNL     1       1.275   9.354  18.929  0.00  0.00    +0.000 A 
ATOM     13  C   UNL     1       1.054   9.352  20.328  0.00  0.00    +0.000 A 
ATOM     14  C   UNL     1       1.544   8.155  20.791  0.00  0.00    +0.000 A 
ATOM     15  O   UNL     1       2.066   7.427  19.770  0.00  0.00    +0.000 OA
ENDBRANCH  10  11
ENDBRANCH   7  10
ENDBRANCH   1   2
BRANCH   1  17
ATOM     16  N   UNL     1       6.208   4.857  15.950  0.00  0.00    +0.000 N 
ATOM     17  C   UNL     1       7.040   4.572  17.024  0.00  0.00    +0.000 C 
ATOM     18  O   UNL     1       8.200   4.168  16.949  0.00  0.00    +0.000 OA
ATOM     19  H   UNL     1       5.286   5.238  16.148  0.00  0.00    +0.000 HD
BRANCH  16  24
ATOM     20  C   UNL     1       6.087   3.604  12.450  0.00  0.00    +0.000 A 
ATOM     21  C   UNL     1       7.142   4.311  11.866  0.00  0.00    +0.000 A 
ATOM     22  C   UNL     1       7.893   5.196  12.632  0.00  0.00    +0.000 A 
ATOM     23  C   UNL     1       7.592   5.383  13.979  0.00  0.00    +0.000 A 
ATOM     24  C   UNL     1       6.539   4.693  14.586  0.00  0.00    +0.000 A 
ATOM     25  C   UNL     1       5.796   3.789  13.817  0.00  0.00    +0.000 A 
BRANCH  20  27
ATOM     26  C   UNL     1       3.920   3.126  11.130  0.00  0.00    +0.000 C 
ATOM     27  C   UNL     1       5.258   2.657  11.649  0.00  0.00    +0.000 C 
ATOM     28  O   UNL     1       5.672   1.523  11.420  0.00  0.00    +0.000 OA
ENDBRANCH  20  27
ENDBRANCH  16  24
ENDBRANCH   1  17
TORSDOF 6
ENDMDL
MODEL 6
REMARK VINA RESULT:      -7.6      1.257      2.001
REMARK  Name = 
REMARK  7 active torsions:
REMARK  status: ('A' for Active; 'I' for Inactive)
REMARK    1  A    between atoms: C_1  and  C_2
REMARK    2  A    between atoms: C_2  and  C_4
REMARK    3  A    between atoms: C_8  and  N_9
REMARK    4  A    between atoms: C_10  and  C_12
REMARK    5  A    between atoms: C_12  and  N_13
REMARK    6  A    between atoms: N_18  and  C_19
REMARK    7  A    between atoms: C_19  and  C_20
REMARK                            x       y       z     vdW  Elec       q    Type
REMARK                         _______ _______ _______ _____ _____    ______ ____
ROOT
ATOM      1  C   UNL     1       3.251   3.769  19.739  0.00  0.00    +0.000 C 
ENDROOT
BRANCH   1   2
ATOM      2  N   UNL     1       4.164   3.949  18.636  0.00  0.00    +0.000 N 
ATOM      3  C   UNL     1       3.873   3.719  17.331  0.00  0.00    +0.000 C 
ATOM      4  O   UNL     1       2.843   3.344  16.817  0.00  0.00    +0.000 OA
ATOM      5  C   UNL     1       5.169   4.058  16.574  0.00  0.00    +0.000 C 
ATOM      6  O   UNL     1       5.296   4.075  15.368  0.00  0.00    +0.000 OA
ATOM      7  N   UNL     1       6.069   4.363  17.540  0.00  0.00    +0.000 N 
ATOM      8  C   UNL     1       5.479   4.314  18.769  0.00  0.00    +0.000 C 
ATOM      9  O   UNL     1       6.008   4.563  19.844  0.00  0.00    +0.000 OA
BRANCH   7  10
ATOM     10  C   UNL     1       7.460   4.660  17.284  0.00  0.00    +0.000 C 
BRANCH  10  11
ATOM     11  C   UNL     1       7.718   6.074  17.663  0.00  0.00    +0.000 A 
ATOM     12  C   UNL     1       8.238   6.675  18.790  0.00  0.00    +0.000 A 
ATOM     13  C   UNL     1       8.154   8.073  18.572  0.00  0.00    +0.000 A 
ATOM     14  C   UNL     1       7.616   8.232  17.318  0.00  0.00    +0.000 A 
ATOM     15  O   UNL     1       7.349   7.025  16.757  0.00  0.00    +0.000 OA
ENDBRANCH  10  11
ENDBRANCH   7  10
ENDBRANCH   1   2
BRANCH   1  17
ATOM     16  N   UNL     1       2.662   6.103  20.186  0.00  0.00    +0.000 N 
ATOM     17  C   UNL     1       2.221   4.890  19.677  0.00  0.00    +0.000 C 
ATOM     18  O   UNL     1       1.088   4.652  19.261  0.00  0.00    +0.000 OA
ATOM     19  H   UNL     1       3.642   6.186  20.446  0.00  0.00    +0.000 HD
BRANCH  16  24
ATOM     20  C   UNL     1       1.167   9.440  19.504  0.00  0.00    +0.000 A 
ATOM     21  C   UNL     1       0.331   9.602  20.613  0.00  0.00    +0.000 A 
ATOM     22  C   UNL     1       0.269   8.609  21.585  0.00  0.00    +0.000 A 
ATOM     23  C   UNL     1       1.033   7.453  21.452  0.00  0.00    +0.000 A 
ATOM     24  C   UNL     1       1.871   7.263  20.351  0.00  0.00    +0.000 A 
ATOM     25  C   UNL     1       1.946   8.273  19.382  0.00  0.00    +0.000 A 
BRANCH  20  27
ATOM     26  C   UNL     1       0.494  11.779  18.641  0.00  0.00    +0.000 C 
ATOM     27  C   UNL     1       1.245  10.484  18.441  0.00  0.00    +0.000 C 
ATOM     28  O   UNL     1       1.914  10.281  17.431  0.00  0.00    +0.000 OA
ENDBRANCH  20  27
ENDBRANCH  16  24
ENDBRANCH   1  17
TORSDOF 6
ENDMDL
MODEL 7
REMARK VINA RESULT:      -7.6      4.032      8.550
REMARK  Name = 
REMARK  7 active torsions:
REMARK  status: ('A' for Active; 'I' for Inactive)
REMARK    1  A    between atoms: C_1  and  C_2
REMARK    2  A    between atoms: C_2  and  C_4
REMARK    3  A    between atoms: C_8  and  N_9
REMARK    4  A    between atoms: C_10  and  C_12
REMARK    5  A    between atoms: C_12  and  N_13
REMARK    6  A    between atoms: N_18  and  C_19
REMARK    7  A    between atoms: C_19  and  C_20
REMARK                            x       y       z     vdW  Elec       q    Type
REMARK                         _______ _______ _______ _____ _____    ______ ____
ROOT
ATOM      1  C   UNL     1       0.642   9.708  22.429  0.00  0.00    +0.000 C 
ENDROOT
BRANCH   1   2
ATOM      2  N   UNL     1      -0.198  10.678  21.766  0.00  0.00    +0.000 N 
ATOM      3  C   UNL     1      -1.282  11.283  22.314  0.00  0.00    +0.000 C 
ATOM      4  O   UNL     1      -1.761  11.169  23.420  0.00  0.00    +0.000 OA
ATOM      5  C   UNL     1      -1.814  12.211  21.208  0.00  0.00    +0.000 C 
ATOM      6  O   UNL     1      -2.723  13.005  21.333  0.00  0.00    +0.000 OA
ATOM      7  N   UNL     1      -1.023  11.967  20.135  0.00  0.00    +0.000 N 
ATOM      8  C   UNL     1      -0.051  11.066  20.459  0.00  0.00    +0.000 C 
ATOM      9  O   UNL     1       0.838  10.655  19.725  0.00  0.00    +0.000 OA
BRANCH   7  10
ATOM     10  C   UNL     1      -1.222  12.561  18.833  0.00  0.00    +0.000 C 
BRANCH  10  11
ATOM     11  C   UNL     1      -2.103  11.667  18.036  0.00  0.00    +0.000 A 
ATOM     12  C   UNL     1      -3.472  11.553  17.906  0.00  0.00    +0.000 A 
ATOM     13  C   UNL     1      -3.700  10.450  17.047  0.00  0.00    +0.000 A 
ATOM     14  C   UNL     1      -2.460   9.982  16.687  0.00  0.00    +0.000 A 
ATOM     15  O   UNL     1      -1.483  10.715  17.281  0.00  0.00    +0.000 OA
ENDBRANCH  10  11
ENDBRANCH   7  10
ENDBRANCH   1   2
BRANCH   1  17
ATOM     16  N   UNL     1       1.781   8.036  21.051  0.00  0.00    +0.000 N 
ATOM     17  C   UNL     1       0.577   8.414  21.629  0.00  0.00    +0.000 C 
ATOM     18  O   UNL     1      -0.501   7.838  21.490  0.00  0.00    +0.000 OA
ATOM     19  H   UNL     1       2.614   8.567  21.291  0.00  0.00    +0.000 HD
BRANCH  16  24
ATOM     20  C   UNL     1       1.769   4.550  19.752  0.00  0.00    +0.000 A 
ATOM     21  C   UNL     1       2.307   4.728  18.475  0.00  0.00    +0.000 A 
ATOM     22  C   UNL     1       2.677   6.000  18.048  0.00  0.00    +0.000 A 
ATOM     23  C   UNL     1       2.506   7.095  18.890  0.00  0.00    +0.000 A 
ATOM     24  C   UNL     1       1.965   6.946  20.170  0.00  0.00    +0.000 A 
ATOM     25  C   UNL     1       1.610   5.662  20.604  0.00  0.00    +0.000 A 
BRANCH  20  27
ATOM     26  C   UNL     1       1.044   2.132  19.208  0.00  0.00    +0.000 C 
ATOM     27  C   UNL     1       1.354   3.200  20.231  0.00  0.00    +0.000 C 
ATOM     28  O   UNL     1       1.275   2.974  21.436  0.00  0.00    +0.000 OA
ENDBRANCH  20  27
ENDBRANCH  16  24
ENDBRANCH   1  17
TORSDOF 6
ENDMDL
MODEL 8
REMARK VINA RESULT:      -7.6      3.286      8.055
REMARK  Name = 
REMARK  7 active torsions:
REMARK  status: ('A' for Active; 'I' for Inactive)
REMARK    1  A    between atoms: C_1  and  C_2
REMARK    2  A    between atoms: C_2  and  C_4
REMARK    3  A    between atoms: C_8  and  N_9
REMARK    4  A    between atoms: C_10  and  C_12
REMARK    5  A    between atoms: C_12  and  N_13
REMARK    6  A    between atoms: N_18  and  C_19
REMARK    7  A    between atoms: C_19  and  C_20
REMARK                            x       y       z     vdW  Elec       q    Type
REMARK                         _______ _______ _______ _____ _____    ______ ____
ROOT
ATOM      1  C   UNL     1       6.350   5.663  18.045  0.00  0.00    +0.000 C 
ENDROOT
BRANCH   1   2
ATOM      2  N   UNL     1       4.908   5.754  18.042  0.00  0.00    +0.000 N 
ATOM      3  C   UNL     1       4.195   6.904  17.941  0.00  0.00    +0.000 C 
ATOM      4  O   UNL     1       4.574   8.048  17.826  0.00  0.00    +0.000 OA
ATOM      5  C   UNL     1       2.724   6.458  17.987  0.00  0.00    +0.000 C 
ATOM      6  O   UNL     1       1.764   7.181  17.829  0.00  0.00    +0.000 OA
ATOM      7  N   UNL     1       2.770   5.118  18.191  0.00  0.00    +0.000 N 
ATOM      8  C   UNL     1       4.064   4.687  18.212  0.00  0.00    +0.000 C 
ATOM      9  O   UNL     1       4.448   3.534  18.347  0.00  0.00    +0.000 OA
BRANCH   7  10
ATOM     10  C   UNL     1       1.602   4.290  18.389  0.00  0.00    +0.000 C 
BRANCH  10  11
ATOM     11  C   UNL     1       1.703   3.645  19.724  0.00  0.00    +0.000 A 
ATOM     12  C   UNL     1       1.397   2.385  20.195  0.00  0.00    +0.000 A 
ATOM     13  C   UNL     1       1.646   2.408  21.589  0.00  0.00    +0.000 A 
ATOM     14  C   UNL     1       2.114   3.669  21.873  0.00  0.00    +0.000 A 
ATOM     15  O   UNL     1       2.153   4.427  20.747  0.00  0.00    +0.000 OA
ENDBRANCH  10  11
ENDBRANCH   7  10
ENDBRANCH   1   2
BRANCH   1  17
ATOM     16  N   UNL     1       6.213   4.846  15.741  0.00  0.00    +0.000 N 
ATOM     17  C   UNL     1       6.823   5.750  16.600  0.00  0.00    +0.000 C 
ATOM     18  O   UNL     1       7.724   6.532  16.300  0.00  0.00    +0.000 OA
ATOM     19  H   UNL     1       5.439   4.293  16.100  0.00  0.00    +0.000 HD
BRANCH  16  24
ATOM     20  C   UNL     1       6.095   3.509  12.272  0.00  0.00    +0.000 A 
ATOM     21  C   UNL     1       7.169   4.180  11.679  0.00  0.00    +0.000 A 
ATOM     22  C   UNL     1       7.932   5.068  12.430  0.00  0.00    +0.000 A 
ATOM     23  C   UNL     1       7.624   5.294  13.769  0.00  0.00    +0.000 A 
ATOM     24  C   UNL     1       6.552   4.642  14.384  0.00  0.00    +0.000 A 
ATOM     25  C   UNL     1       5.796   3.734  13.630  0.00  0.00    +0.000 A 
BRANCH  20  27
ATOM     26  C   UNL     1       3.905   3.027  10.991  0.00  0.00    +0.000 C 
ATOM     27  C   UNL     1       5.253   2.560  11.487  0.00  0.00    +0.000 C 
ATOM     28  O   UNL     1       5.665   1.427  11.252  0.00  0.00    +0.000 OA
ENDBRANCH  20  27
ENDBRANCH  16  24
ENDBRANCH   1  17
TORSDOF 6
ENDMDL
MODEL 9
REMARK VINA RESULT:      -7.4      3.433      7.398
REMARK  Name = 
REMARK  7 active torsions:
REMARK  status: ('A' for Active; 'I' for Inactive)
REMARK    1  A    between atoms: C_1  and  C_2
REMARK    2  A    between atoms: C_2  and  C_4
REMARK    3  A    between atoms: C_8  and  N_9
REMARK    4  A    between atoms: C_10  and  C_12
REMARK    5  A    between atoms: C_12  and  N_13
REMARK    6  A    between atoms: N_18  and  C_19
REMARK    7  A    between atoms: C_19  and  C_20
REMARK                            x       y       z     vdW  Elec       q    Type
REMARK                         _______ _______ _______ _____ _____    ______ ____
ROOT
ATOM      1  C   UNL     1       7.304   7.121  17.028  0.00  0.00    +0.000 C 
ENDROOT
BRANCH   1   2
ATOM      2  N   UNL     1       6.430   6.242  17.769  0.00  0.00    +0.000 N 
ATOM      3  C   UNL     1       6.778   5.031  18.273  0.00  0.00    +0.000 C 
ATOM      4  O   UNL     1       7.838   4.447  18.233  0.00  0.00    +0.000 OA
ATOM      5  C   UNL     1       5.505   4.512  18.962  0.00  0.00    +0.000 C 
ATOM      6  O   UNL     1       5.426   3.498  19.622  0.00  0.00    +0.000 OA
ATOM      7  N   UNL     1       4.559   5.447  18.701  0.00  0.00    +0.000 N 
ATOM      8  C   UNL     1       5.101   6.487  18.004  0.00  0.00    +0.000 C 
ATOM      9  O   UNL     1       4.524   7.501  17.638  0.00  0.00    +0.000 OA
BRANCH   7  10
ATOM     10  C   UNL     1       3.172   5.323  19.088  0.00  0.00    +0.000 C 
BRANCH  10  11
ATOM     11  C   UNL     1       2.697   3.966  18.712  0.00  0.00    +0.000 A 
ATOM     12  C   UNL     1       2.578   3.301  17.509  0.00  0.00    +0.000 A 
ATOM     13  C   UNL     1       1.983   2.049  17.802  0.00  0.00    +0.000 A 
ATOM     14  C   UNL     1       1.804   2.020  19.164  0.00  0.00    +0.000 A 
ATOM     15  O   UNL     1       2.236   3.178  19.726  0.00  0.00    +0.000 OA
ENDBRANCH  10  11
ENDBRANCH   7  10
ENDBRANCH   1   2
BRANCH   1  17
ATOM     16  N   UNL     1       8.112   9.324  17.726  0.00  0.00    +0.000 N 
ATOM     17  C   UNL     1       8.068   7.972  18.034  0.00  0.00    +0.000 C 
ATOM     18  O   UNL     1       8.635   7.431  18.982  0.00  0.00    +0.000 OA
ATOM     19  H   UNL     1       7.551   9.655  16.943  0.00  0.00    +0.000 HD
BRANCH  16  24
ATOM     20  C   UNL     1      10.034  12.437  18.394  0.00  0.00    +0.000 A 
ATOM     21  C   UNL     1      10.324  12.298  19.755  0.00  0.00    +0.000 A 
ATOM     22  C   UNL     1       9.887  11.172  20.445  0.00  0.00    +0.000 A 
ATOM     23  C   UNL     1       9.157  10.188  19.785  0.00  0.00    +0.000 A 
ATOM     24  C   UNL     1       8.848  10.306  18.427  0.00  0.00    +0.000 A 
ATOM     25  C   UNL     1       9.305  11.431  17.730  0.00  0.00    +0.000 A 
BRANCH  20  27
ATOM     26  C   UNL     1      11.513  13.465  16.543  0.00  0.00    +0.000 C 
ATOM     27  C   UNL     1      10.481  13.640  17.632  0.00  0.00    +0.000 C 
ATOM     28  O   UNL     1      10.006  14.742  17.893  0.00  0.00    +0.000 OA
ENDBRANCH  20  27
ENDBRANCH  16  24
ENDBRANCH   1  17
TORSDOF 6
ENDMDL
