MODEL 1
REMARK VINA RESULT:      -7.2      0.000      0.000
REMARK  Name = 
REMARK  5 active torsions:
REMARK  status: ('A' for Active; 'I' for Inactive)
REMARK    1  A    between atoms: N_1  and  S_2
REMARK    2  A    between atoms: S_2  and  C_5
REMARK    3  A    between atoms: C_10  and  O_11
REMARK    4  A    between atoms: O_11  and  C_12
REMARK    5  A    between atoms: C_12  and  C_14
REMARK                            x       y       z     vdW  Elec       q    Type
REMARK                         _______ _______ _______ _____ _____    ______ ____
ROOT
ATOM      1  C   UNL     1       0.491  10.243  20.876  0.00  0.00    +0.000 A 
ATOM      2  N   UNL     1       0.750  10.240  19.584  0.00  0.00    +0.000 NA
ATOM      3  C   UNL     1       1.401   9.067  19.260  0.00  0.00    +0.000 A 
ATOM      4  C   UNL     1       1.869   8.729  17.978  0.00  0.00    +0.000 A 
ATOM      5  C   UNL     1       2.517   7.509  17.771  0.00  0.00    +0.000 A 
ATOM      6  C   UNL     1       2.663   6.604  18.819  0.00  0.00    +0.000 A 
ATOM      7  C   UNL     1       2.231   6.921  20.115  0.00  0.00    +0.000 A 
ATOM      8  C   UNL     1       1.599   8.165  20.313  0.00  0.00    +0.000 A 
ATOM      9  S   UNL     1       0.957   8.862  21.759  0.00  0.00    +0.000 S 
ENDROOT
BRANCH   1  10
ATOM     10  S   UNL     1      -0.335  11.559  21.732  0.00  0.00    +0.000 S 
ATOM     11  O   UNL     1       0.568  12.686  21.769  0.00  0.00    +0.000 OA
ATOM     12  O   UNL     1      -0.893  10.976  22.933  0.00  0.00    +0.000 OA
BRANCH  10  13
ATOM     13  N   UNL     1      -1.668  12.029  20.801  0.00  0.00    +0.000 NA
ATOM     14  H   UNL     1      -1.576  13.005  20.525  0.00  0.00    +0.000 HD
ATOM     15  H   UNL     1      -2.534  11.840  21.305  0.00  0.00    +0.000 HD
ENDBRANCH  10  13
ENDBRANCH   1  10
BRANCH   6  16
ATOM     16  O   UNL     1       3.304   5.349  18.656  0.00  0.00    +0.000 OA
BRANCH  16  17
ATOM     17  C   UNL     1       4.256   5.186  17.655  0.00  0.00    +0.000 C 
ATOM     18  O   UNL     1       4.089   4.642  16.572  0.00  0.00    +0.000 OA
BRANCH  17  19
ATOM     19  C   UNL     1       5.576   5.748  18.049  0.00  0.00    +0.000 A 
ATOM     20  C   UNL     1       6.104   6.775  17.249  0.00  0.00    +0.000 A 
ATOM     21  C   UNL     1       7.368   7.306  17.514  0.00  0.00    +0.000 A 
ATOM     22  C   UNL     1       8.113   6.816  18.582  0.00  0.00    +0.000 A 
ATOM     23  C   UNL     1       7.590   5.809  19.395  0.00  0.00    +0.000 A 
ATOM     24  C   UNL     1       6.322   5.275  19.135  0.00  0.00    +0.000 A 
ENDBRANCH  17  19
ENDBRANCH  16  17
ENDBRANCH   6  16
TORSDOF 5
ENDMDL
MODEL 2
REMARK VINA RESULT:      -7.2      1.421      1.772
REMARK  Name = 
REMARK  5 active torsions:
REMARK  status: ('A' for Active; 'I' for Inactive)
REMARK    1  A    between atoms: N_1  and  S_2
REMARK    2  A    between atoms: S_2  and  C_5
REMARK    3  A    between atoms: C_10  and  O_11
REMARK    4  A    between atoms: O_11  and  C_12
REMARK    5  A    between atoms: C_12  and  C_14
REMARK                            x       y       z     vdW  Elec       q    Type
REMARK                         _______ _______ _______ _____ _____    ______ ____
ROOT
ATOM      1  C   UNL     1       0.557  10.245  20.805  0.00  0.00    +0.000 A 
ATOM      2  N   UNL     1       0.924  10.141  19.543  0.00  0.00    +0.000 NA
ATOM      3  C   UNL     1       1.505   8.905  19.346  0.00  0.00    +0.000 A 
ATOM      4  C   UNL     1       2.052   8.453  18.131  0.00  0.00    +0.000 A 
ATOM      5  C   UNL     1       2.616   7.178  18.052  0.00  0.00    +0.000 A 
ATOM      6  C   UNL     1       2.601   6.332  19.159  0.00  0.00    +0.000 A 
ATOM      7  C   UNL     1       2.087   6.762  20.391  0.00  0.00    +0.000 A 
ATOM      8  C   UNL     1       1.541   8.060  20.461  0.00  0.00    +0.000 A 
ATOM      9  S   UNL     1       0.836   8.891  21.803  0.00  0.00    +0.000 S 
ENDROOT
BRANCH   1  10
ATOM     10  S   UNL     1      -0.232  11.670  21.509  0.00  0.00    +0.000 S 
ATOM     11  O   UNL     1      -1.475  11.869  20.801  0.00  0.00    +0.000 OA
ATOM     12  O   UNL     1       0.783  12.697  21.594  0.00  0.00    +0.000 OA
BRANCH  10  13
ATOM     13  N   UNL     1      -0.633  11.303  23.112  0.00  0.00    +0.000 NA
ATOM     14  H   UNL     1      -1.556  10.874  23.152  0.00  0.00    +0.000 HD
ATOM     15  H   UNL     1      -0.557  12.136  23.693  0.00  0.00    +0.000 HD
ENDBRANCH  10  13
ENDBRANCH   1  10
BRANCH   6  16
ATOM     16  O   UNL     1       3.151   5.025  19.125  0.00  0.00    +0.000 OA
BRANCH  16  17
ATOM     17  C   UNL     1       3.324   4.382  17.904  0.00  0.00    +0.000 C 
ATOM     18  O   UNL     1       2.467   3.780  17.270  0.00  0.00    +0.000 OA
BRANCH  17  19
ATOM     19  C   UNL     1       4.727   4.480  17.418  0.00  0.00    +0.000 A 
ATOM     20  C   UNL     1       4.944   4.324  16.039  0.00  0.00    +0.000 A 
ATOM     21  C   UNL     1       6.238   4.335  15.516  0.00  0.00    +0.000 A 
ATOM     22  C   UNL     1       7.326   4.504  16.368  0.00  0.00    +0.000 A 
ATOM     23  C   UNL     1       7.120   4.680  17.737  0.00  0.00    +0.000 A 
ATOM     24  C   UNL     1       5.823   4.672  18.266  0.00  0.00    +0.000 A 
ENDBRANCH  17  19
ENDBRANCH  16  17
ENDBRANCH   6  16
TORSDOF 5
ENDMDL
MODEL 3
REMARK VINA RESULT:      -7.1      4.850      6.806
REMARK  Name = 
REMARK  5 active torsions:
REMARK  status: ('A' for Active; 'I' for Inactive)
REMARK    1  A    between atoms: N_1  and  S_2
REMARK    2  A    between atoms: S_2  and  C_5
REMARK    3  A    between atoms: C_10  and  O_11
REMARK    4  A    between atoms: O_11  and  C_12
REMARK    5  A    between atoms: C_12  and  C_14
REMARK                            x       y       z     vdW  Elec       q    Type
REMARK                         _______ _______ _______ _____ _____    ______ ____
ROOT
ATOM      1  C   UNL     1       2.824   4.194  18.955  0.00  0.00    +0.000 A 
ATOM      2  N   UNL     1       3.057   5.367  18.401  0.00  0.00    +0.000 NA
ATOM      3  C   UNL     1       4.126   5.249  17.536  0.00  0.00    +0.000 A 
ATOM      4  C   UNL     1       4.686   6.304  16.794  0.00  0.00    +0.000 A 
ATOM      5  C   UNL     1       5.771   6.062  15.948  0.00  0.00    +0.000 A 
ATOM      6  C   UNL     1       6.275   4.772  15.800  0.00  0.00    +0.000 A 
ATOM      7  C   UNL     1       5.755   3.703  16.545  0.00  0.00    +0.000 A 
ATOM      8  C   UNL     1       4.675   3.967  17.411  0.00  0.00    +0.000 A 
ATOM      9  S   UNL     1       3.812   2.896  18.459  0.00  0.00    +0.000 S 
ENDROOT
BRANCH   1  10
ATOM     10  S   UNL     1       1.539   3.878  20.137  0.00  0.00    +0.000 S 
ATOM     11  O   UNL     1       0.629   2.926  19.543  0.00  0.00    +0.000 OA
ATOM     12  O   UNL     1       1.101   5.170  20.618  0.00  0.00    +0.000 OA
BRANCH  10  13
ATOM     13  N   UNL     1       2.241   3.116  21.476  0.00  0.00    +0.000 NA
ATOM     14  H   UNL     1       2.899   3.746  21.932  0.00  0.00    +0.000 HD
ATOM     15  H   UNL     1       2.667   2.234  21.196  0.00  0.00    +0.000 HD
ENDBRANCH  10  13
ENDBRANCH   1  10
BRANCH   6  16
ATOM     16  O   UNL     1       7.367   4.475  14.946  0.00  0.00    +0.000 OA
BRANCH  16  17
ATOM     17  C   UNL     1       7.317   4.852  13.607  0.00  0.00    +0.000 C 
ATOM     18  O   UNL     1       7.861   5.825  13.103  0.00  0.00    +0.000 OA
BRANCH  17  19
ATOM     19  C   UNL     1       6.480   3.922  12.801  0.00  0.00    +0.000 A 
ATOM     20  C   UNL     1       7.145   2.906  12.094  0.00  0.00    +0.000 A 
ATOM     21  C   UNL     1       6.436   2.037  11.262  0.00  0.00    +0.000 A 
ATOM     22  C   UNL     1       5.058   2.177  11.131  0.00  0.00    +0.000 A 
ATOM     23  C   UNL     1       4.386   3.171  11.844  0.00  0.00    +0.000 A 
ATOM     24  C   UNL     1       5.092   4.043  12.682  0.00  0.00    +0.000 A 
ENDBRANCH  17  19
ENDBRANCH  16  17
ENDBRANCH   6  16
TORSDOF 5
ENDMDL
MODEL 4
REMARK VINA RESULT:      -7.1      5.367      7.057
REMARK  Name = 
REMARK  5 active torsions:
REMARK  status: ('A' for Active; 'I' for Inactive)
REMARK    1  A    between atoms: N_1  and  S_2
REMARK    2  A    between atoms: S_2  and  C_5
REMARK    3  A    between atoms: C_10  and  O_11
REMARK    4  A    between atoms: O_11  and  C_12
REMARK    5  A    between atoms: C_12  and  C_14
REMARK                            x       y       z     vdW  Elec       q    Type
REMARK                         _______ _______ _______ _____ _____    ______ ____
ROOT
ATOM      1  C   UNL     1       2.635   3.538  18.618  0.00  0.00    +0.000 A 
ATOM      2  N   UNL     1       2.875   4.784  18.264  0.00  0.00    +0.000 NA
ATOM      3  C   UNL     1       3.984   4.811  17.443  0.00  0.00    +0.000 A 
ATOM      4  C   UNL     1       4.562   5.973  16.900  0.00  0.00    +0.000 A 
ATOM      5  C   UNL     1       5.688   5.875  16.080  0.00  0.00    +0.000 A 
ATOM      6  C   UNL     1       6.218   4.627  15.759  0.00  0.00    +0.000 A 
ATOM      7  C   UNL     1       5.682   3.452  16.305  0.00  0.00    +0.000 A 
ATOM      8  C   UNL     1       4.559   3.569  17.149  0.00  0.00    +0.000 A 
ATOM      9  S   UNL     1       3.665   2.341  17.976  0.00  0.00    +0.000 S 
ENDROOT
BRANCH   1  10
ATOM     10  S   UNL     1       1.303   3.032  19.674  0.00  0.00    +0.000 S 
ATOM     11  O   UNL     1       1.884   2.346  20.805  0.00  0.00    +0.000 OA
ATOM     12  O   UNL     1       0.316   2.412  18.818  0.00  0.00    +0.000 OA
BRANCH  10  13
ATOM     13  N   UNL     1       0.559   4.428  20.277  0.00  0.00    +0.000 NA
ATOM     14  H   UNL     1       0.148   4.963  19.515  0.00  0.00    +0.000 HD
ATOM     15  H   UNL     1       1.222   4.969  20.829  0.00  0.00    +0.000 HD
ENDBRANCH  10  13
ENDBRANCH   1  10
BRANCH   6  16
ATOM     16  O   UNL     1       7.353   4.476  14.923  0.00  0.00    +0.000 OA
BRANCH  16  17
ATOM     17  C   UNL     1       7.280   4.857  13.586  0.00  0.00    +0.000 C 
ATOM     18  O   UNL     1       7.816   5.832  13.077  0.00  0.00    +0.000 OA
BRANCH  17  19
ATOM     19  C   UNL     1       6.430   3.930  12.792  0.00  0.00    +0.000 A 
ATOM     20  C   UNL     1       7.074   2.864  12.141  0.00  0.00    +0.000 A 
ATOM     21  C   UNL     1       6.354   1.992  11.321  0.00  0.00    +0.000 A 
ATOM     22  C   UNL     1       4.986   2.178  11.147  0.00  0.00    +0.000 A 
ATOM     23  C   UNL     1       4.334   3.222  11.805  0.00  0.00    +0.000 A 
ATOM     24  C   UNL     1       5.050   4.098  12.629  0.00  0.00    +0.000 A 
ENDBRANCH  17  19
ENDBRANCH  16  17
ENDBRANCH   6  16
TORSDOF 5
ENDMDL
MODEL 5
REMARK VINA RESULT:      -7.1      1.572      2.160
REMARK  Name = 
REMARK  5 active torsions:
REMARK  status: ('A' for Active; 'I' for Inactive)
REMARK    1  A    between atoms: N_1  and  S_2
REMARK    2  A    between atoms: S_2  and  C_5
REMARK    3  A    between atoms: C_10  and  O_11
REMARK    4  A    between atoms: O_11  and  C_12
REMARK    5  A    between atoms: C_12  and  C_14
REMARK                            x       y       z     vdW  Elec       q    Type
REMARK                         _______ _______ _______ _____ _____    ______ ____
ROOT
ATOM      1  C   UNL     1       0.561  10.219  20.761  0.00  0.00    +0.000 A 
ATOM      2  N   UNL     1       0.919  10.270  19.494  0.00  0.00    +0.000 NA
ATOM      3  C   UNL     1       1.572   9.100  19.165  0.00  0.00    +0.000 A 
ATOM      4  C   UNL     1       2.132   8.811  17.908  0.00  0.00    +0.000 A 
ATOM      5  C   UNL     1       2.772   7.588  17.693  0.00  0.00    +0.000 A 
ATOM      6  C   UNL     1       2.820   6.632  18.706  0.00  0.00    +0.000 A 
ATOM      7  C   UNL     1       2.294   6.899  19.978  0.00  0.00    +0.000 A 
ATOM      8  C   UNL     1       1.672   8.146  20.186  0.00  0.00    +0.000 A 
ATOM      9  S   UNL     1       0.932   8.789  21.611  0.00  0.00    +0.000 S 
ENDROOT
BRANCH   1  10
ATOM     10  S   UNL     1      -0.306  11.511  21.614  0.00  0.00    +0.000 S 
ATOM     11  O   UNL     1      -1.595  11.661  20.978  0.00  0.00    +0.000 OA
ATOM     12  O   UNL     1       0.625  12.611  21.741  0.00  0.00    +0.000 OA
BRANCH  10  13
ATOM     13  N   UNL     1      -0.598  10.985  23.196  0.00  0.00    +0.000 NA
ATOM     14  H   UNL     1      -0.013  10.180  23.410  0.00  0.00    +0.000 HD
ATOM     15  H   UNL     1      -1.591  10.800  23.327  0.00  0.00    +0.000 HD
ENDBRANCH  10  13
ENDBRANCH   1  10
BRANCH   6  16
ATOM     16  O   UNL     1       3.449   5.373  18.533  0.00  0.00    +0.000 OA
BRANCH  16  17
ATOM     17  C   UNL     1       4.830   5.268  18.664  0.00  0.00    +0.000 C 
ATOM     18  O   UNL     1       5.474   5.382  19.698  0.00  0.00    +0.000 OA
BRANCH  17  19
ATOM     19  C   UNL     1       5.493   5.009  17.358  0.00  0.00    +0.000 A 
ATOM     20  C   UNL     1       4.672   4.620  16.285  0.00  0.00    +0.000 A 
ATOM     21  C   UNL     1       5.228   4.293  15.046  0.00  0.00    +0.000 A 
ATOM     22  C   UNL     1       6.607   4.354  14.869  0.00  0.00    +0.000 A 
ATOM     23  C   UNL     1       7.429   4.758  15.923  0.00  0.00    +0.000 A 
ATOM     24  C   UNL     1       6.877   5.088  17.166  0.00  0.00    +0.000 A 
ENDBRANCH  17  19
ENDBRANCH  16  17
ENDBRANCH   6  16
TORSDOF 5
ENDMDL
MODEL 6
REMARK VINA RESULT:      -7.0      4.928      6.888
REMARK  Name = 
REMARK  5 active torsions:
REMARK  status: ('A' for Active; 'I' for Inactive)
REMARK    1  A    between atoms: N_1  and  S_2
REMARK    2  A    between atoms: S_2  and  C_5
REMARK    3  A    between atoms: C_10  and  O_11
REMARK    4  A    between atoms: O_11  and  C_12
REMARK    5  A    between atoms: C_12  and  C_14
REMARK                            x       y       z     vdW  Elec       q    Type
REMARK                         _______ _______ _______ _____ _____    ______ ____
ROOT
ATOM      1  C   UNL     1       2.876   4.165  18.790  0.00  0.00    +0.000 A 
ATOM      2  N   UNL     1       3.056   5.324  18.189  0.00  0.00    +0.000 NA
ATOM      3  C   UNL     1       4.130   5.220  17.328  0.00  0.00    +0.000 A 
ATOM      4  C   UNL     1       4.643   6.268  16.543  0.00  0.00    +0.000 A 
ATOM      5  C   UNL     1       5.738   6.042  15.707  0.00  0.00    +0.000 A 
ATOM      6  C   UNL     1       6.300   4.771  15.612  0.00  0.00    +0.000 A 
ATOM      7  C   UNL     1       5.829   3.711  16.401  0.00  0.00    +0.000 A 
ATOM      8  C   UNL     1       4.737   3.960  17.256  0.00  0.00    +0.000 A 
ATOM      9  S   UNL     1       3.922   2.894  18.347  0.00  0.00    +0.000 S 
ENDROOT
BRANCH   1  10
ATOM     10  S   UNL     1       1.605   3.839  19.985  0.00  0.00    +0.000 S 
ATOM     11  O   UNL     1       0.590   3.046  19.332  0.00  0.00    +0.000 OA
ATOM     12  O   UNL     1       1.308   5.105  20.619  0.00  0.00    +0.000 OA
BRANCH  10  13
ATOM     13  N   UNL     1       2.274   2.873  21.204  0.00  0.00    +0.000 NA
ATOM     14  H   UNL     1       1.554   2.283  21.617  0.00  0.00    +0.000 HD
ATOM     15  H   UNL     1       2.751   3.454  21.891  0.00  0.00    +0.000 HD
ENDBRANCH  10  13
ENDBRANCH   1  10
BRANCH   6  16
ATOM     16  O   UNL     1       7.406   4.490  14.770  0.00  0.00    +0.000 OA
BRANCH  16  17
ATOM     17  C   UNL     1       7.372   4.880  13.435  0.00  0.00    +0.000 C 
ATOM     18  O   UNL     1       7.881   5.885  12.956  0.00  0.00    +0.000 OA
BRANCH  17  19
ATOM     19  C   UNL     1       6.603   3.921  12.597  0.00  0.00    +0.000 A 
ATOM     20  C   UNL     1       5.209   4.091  12.539  0.00  0.00    +0.000 A 
ATOM     21  C   UNL     1       4.411   3.191  11.829  0.00  0.00    +0.000 A 
ATOM     22  C   UNL     1       5.000   2.115  11.171  0.00  0.00    +0.000 A 
ATOM     23  C   UNL     1       6.386   1.949  11.206  0.00  0.00    +0.000 A 
ATOM     24  C   UNL     1       7.191   2.850  11.915  0.00  0.00    +0.000 A 
ENDBRANCH  17  19
ENDBRANCH  16  17
ENDBRANCH   6  16
TORSDOF 5
ENDMDL
MODEL 7
REMARK VINA RESULT:      -7.0      1.810      2.464
REMARK  Name = 
REMARK  5 active torsions:
REMARK  status: ('A' for Active; 'I' for Inactive)
REMARK    1  A    between atoms: N_1  and  S_2
REMARK    2  A    between atoms: S_2  and  C_5
REMARK    3  A    between atoms: C_10  and  O_11
REMARK    4  A    between atoms: O_11  and  C_12
REMARK    5  A    between atoms: C_12  and  C_14
REMARK                            x       y       z     vdW  Elec       q    Type
REMARK                         _______ _______ _______ _____ _____    ______ ____
ROOT
ATOM      1  C   UNL     1       1.203   9.762  19.355  0.00  0.00    +0.000 A 
ATOM      2  N   UNL     1       1.122   8.945  20.386  0.00  0.00    +0.000 NA
ATOM      3  C   UNL     1       1.644   7.718  20.027  0.00  0.00    +0.000 A 
ATOM      4  C   UNL     1       1.692   6.585  20.858  0.00  0.00    +0.000 A 
ATOM      5  C   UNL     1       2.246   5.394  20.383  0.00  0.00    +0.000 A 
ATOM      6  C   UNL     1       2.793   5.335  19.104  0.00  0.00    +0.000 A 
ATOM      7  C   UNL     1       2.739   6.439  18.241  0.00  0.00    +0.000 A 
ATOM      8  C   UNL     1       2.156   7.627  18.727  0.00  0.00    +0.000 A 
ATOM      9  S   UNL     1       1.930   9.150  17.940  0.00  0.00    +0.000 S 
ENDROOT
BRANCH   1  10
ATOM     10  S   UNL     1       0.647  11.447  19.363  0.00  0.00    +0.000 S 
ATOM     11  O   UNL     1       1.794  12.282  19.091  0.00  0.00    +0.000 OA
ATOM     12  O   UNL     1      -0.160  11.605  20.553  0.00  0.00    +0.000 OA
BRANCH  10  13
ATOM     13  N   UNL     1      -0.423  11.646  18.066  0.00  0.00    +0.000 NA
ATOM     14  H   UNL     1      -1.382  11.509  18.379  0.00  0.00    +0.000 HD
ATOM     15  H   UNL     1      -0.164  11.029  17.298  0.00  0.00    +0.000 HD
ENDBRANCH  10  13
ENDBRANCH   1  10
BRANCH   6  16
ATOM     16  O   UNL     1       3.376   4.152  18.581  0.00  0.00    +0.000 OA
BRANCH  16  17
ATOM     17  C   UNL     1       4.666   3.794  18.960  0.00  0.00    +0.000 C 
ATOM     18  O   UNL     1       4.975   2.896  19.733  0.00  0.00    +0.000 OA
BRANCH  17  19
ATOM     19  C   UNL     1       5.693   4.660  18.320  0.00  0.00    +0.000 A 
ATOM     20  C   UNL     1       6.558   5.370  19.171  0.00  0.00    +0.000 A 
ATOM     21  C   UNL     1       7.502   6.255  18.648  0.00  0.00    +0.000 A 
ATOM     22  C   UNL     1       7.591   6.437  17.271  0.00  0.00    +0.000 A 
ATOM     23  C   UNL     1       6.750   5.722  16.417  0.00  0.00    +0.000 A 
ATOM     24  C   UNL     1       5.803   4.831  16.936  0.00  0.00    +0.000 A 
ENDBRANCH  17  19
ENDBRANCH  16  17
ENDBRANCH   6  16
TORSDOF 5
ENDMDL
MODEL 8
REMARK VINA RESULT:      -7.0      4.127      7.920
REMARK  Name = 
REMARK  5 active torsions:
REMARK  status: ('A' for Active; 'I' for Inactive)
REMARK    1  A    between atoms: N_1  and  S_2
REMARK    2  A    between atoms: S_2  and  C_5
REMARK    3  A    between atoms: C_10  and  O_11
REMARK    4  A    between atoms: O_11  and  C_12
REMARK    5  A    between atoms: C_12  and  C_14
REMARK                            x       y       z     vdW  Elec       q    Type
REMARK                         _______ _______ _______ _____ _____    ______ ____
ROOT
ATOM      1  C   UNL     1       2.856   4.421  19.846  0.00  0.00    +0.000 A 
ATOM      2  N   UNL     1       2.240   5.161  20.746  0.00  0.00    +0.000 NA
ATOM      3  C   UNL     1       2.019   6.417  20.218  0.00  0.00    +0.000 A 
ATOM      4  C   UNL     1       1.418   7.489  20.902  0.00  0.00    +0.000 A 
ATOM      5  C   UNL     1       1.247   8.718  20.262  0.00  0.00    +0.000 A 
ATOM      6  C   UNL     1       1.630   8.877  18.932  0.00  0.00    +0.000 A 
ATOM      7  C   UNL     1       2.255   7.837  18.229  0.00  0.00    +0.000 A 
ATOM      8  C   UNL     1       2.440   6.609  18.896  0.00  0.00    +0.000 A 
ATOM      9  S   UNL     1       3.166   5.144  18.333  0.00  0.00    +0.000 S 
ENDROOT
BRANCH   1  10
ATOM     10  S   UNL     1       3.341   2.733  20.094  0.00  0.00    +0.000 S 
ATOM     11  O   UNL     1       2.624   1.931  19.129  0.00  0.00    +0.000 OA
ATOM     12  O   UNL     1       3.256   2.489  21.517  0.00  0.00    +0.000 OA
BRANCH  10  13
ATOM     13  N   UNL     1       4.985   2.603  19.714  0.00  0.00    +0.000 NA
ATOM     14  H   UNL     1       5.421   1.883  20.287  0.00  0.00    +0.000 HD
ATOM     15  H   UNL     1       5.440   3.511  19.805  0.00  0.00    +0.000 HD
ENDBRANCH  10  13
ENDBRANCH   1  10
BRANCH   6  16
ATOM     16  O   UNL     1       1.467  10.102  18.236  0.00  0.00    +0.000 OA
BRANCH  16  17
ATOM     17  C   UNL     1       0.669  11.104  18.781  0.00  0.00    +0.000 C 
ATOM     18  O   UNL     1       1.039  12.014  19.510  0.00  0.00    +0.000 OA
BRANCH  17  19
ATOM     19  C   UNL     1      -0.758  10.949  18.390  0.00  0.00    +0.000 A 
ATOM     20  C   UNL     1      -1.683  11.838  18.963  0.00  0.00    +0.000 A 
ATOM     21  C   UNL     1      -3.048  11.713  18.699  0.00  0.00    +0.000 A 
ATOM     22  C   UNL     1      -3.500  10.700  17.859  0.00  0.00    +0.000 A 
ATOM     23  C   UNL     1      -2.587   9.823  17.269  0.00  0.00    +0.000 A 
ATOM     24  C   UNL     1      -1.217   9.946  17.529  0.00  0.00    +0.000 A 
ENDBRANCH  17  19
ENDBRANCH  16  17
ENDBRANCH   6  16
TORSDOF 5
ENDMDL
MODEL 9
REMARK VINA RESULT:      -7.0      4.759      6.597
REMARK  Name = 
REMARK  5 active torsions:
REMARK  status: ('A' for Active; 'I' for Inactive)
REMARK    1  A    between atoms: N_1  and  S_2
REMARK    2  A    between atoms: S_2  and  C_5
REMARK    3  A    between atoms: C_10  and  O_11
REMARK    4  A    between atoms: O_11  and  C_12
REMARK    5  A    between atoms: C_12  and  C_14
REMARK                            x       y       z     vdW  Elec       q    Type
REMARK                         _______ _______ _______ _____ _____    ______ ____
ROOT
ATOM      1  C   UNL     1       2.938   4.484  19.386  0.00  0.00    +0.000 A 
ATOM      2  N   UNL     1       3.428   5.613  18.915  0.00  0.00    +0.000 NA
ATOM      3  C   UNL     1       4.363   5.324  17.941  0.00  0.00    +0.000 A 
ATOM      4  C   UNL     1       5.123   6.278  17.241  0.00  0.00    +0.000 A 
ATOM      5  C   UNL     1       6.042   5.864  16.275  0.00  0.00    +0.000 A 
ATOM      6  C   UNL     1       6.179   4.512  15.967  0.00  0.00    +0.000 A 
ATOM      7  C   UNL     1       5.455   3.535  16.665  0.00  0.00    +0.000 A 
ATOM      8  C   UNL     1       4.547   3.967  17.653  0.00  0.00    +0.000 A 
ATOM      9  S   UNL     1       3.513   3.041  18.684  0.00  0.00    +0.000 S 
ENDROOT
BRANCH   1  10
ATOM     10  S   UNL     1       1.706   4.376  20.658  0.00  0.00    +0.000 S 
ATOM     11  O   UNL     1       1.092   5.679  20.778  0.00  0.00    +0.000 OA
ATOM     12  O   UNL     1       2.333   3.712  21.779  0.00  0.00    +0.000 OA
BRANCH  10  13
ATOM     13  N   UNL     1       0.500   3.314  20.125  0.00  0.00    +0.000 NA
ATOM     14  H   UNL     1      -0.348   3.831  19.899  0.00  0.00    +0.000 HD
ATOM     15  H   UNL     1       0.345   2.582  20.816  0.00  0.00    +0.000 HD
ENDBRANCH  10  13
ENDBRANCH   1  10
BRANCH   6  16
ATOM     16  O   UNL     1       7.090   4.044  14.987  0.00  0.00    +0.000 OA
BRANCH  16  17
ATOM     17  C   UNL     1       7.091   4.615  13.718  0.00  0.00    +0.000 C 
ATOM     18  O   UNL     1       7.590   5.687  13.401  0.00  0.00    +0.000 OA
BRANCH  17  19
ATOM     19  C   UNL     1       6.373   3.767  12.728  0.00  0.00    +0.000 A 
ATOM     20  C   UNL     1       5.002   4.013  12.543  0.00  0.00    +0.000 A 
ATOM     21  C   UNL     1       4.246   3.214  11.683  0.00  0.00    +0.000 A 
ATOM     22  C   UNL     1       4.854   2.165  11.000  0.00  0.00    +0.000 A 
ATOM     23  C   UNL     1       6.220   1.925  11.162  0.00  0.00    +0.000 A 
ATOM     24  C   UNL     1       6.983   2.725  12.021  0.00  0.00    +0.000 A 
ENDBRANCH  17  19
ENDBRANCH  16  17
ENDBRANCH   6  16
TORSDOF 5
ENDMDL
