MODEL 1
REMARK VINA RESULT:      -7.0      0.000      0.000
REMARK  Name = 
REMARK  6 active torsions:
REMARK  status: ('A' for Active; 'I' for Inactive)
REMARK    1  A    between atoms: C_2  and  C_5
REMARK    2  A    between atoms: N_3  and  O_4
REMARK    3  A    between atoms: C_8  and  C_9
REMARK    4  A    between atoms: C_9  and  N_10
REMARK    5  A    between atoms: N_10  and  C_11
REMARK    6  A    between atoms: C_11  and  C_12
REMARK                            x       y       z     vdW  Elec       q    Type
REMARK                         _______ _______ _______ _____ _____    ______ ____
ROOT
ATOM      1  C   UNL     1       2.367   7.380  19.577  0.00  0.00    +0.000 C 
ENDROOT
BRANCH   1   5
ATOM      2  C   UNL     1       5.668   5.859  17.199  0.00  0.00    +0.000 A 
ATOM      3  C   UNL     1       4.748   6.747  16.635  0.00  0.00    +0.000 A 
ATOM      4  C   UNL     1       3.670   7.224  17.392  0.00  0.00    +0.000 A 
ATOM      5  C   UNL     1       3.487   6.821  18.721  0.00  0.00    +0.000 A 
ATOM      6  C   UNL     1       4.459   5.980  19.295  0.00  0.00    +0.000 A 
ATOM      7  C   UNL     1       5.540   5.505  18.545  0.00  0.00    +0.000 A 
BRANCH   2   9
ATOM      8  O   UNL     1       7.671   4.637  16.815  0.00  0.00    +0.000 OA
ATOM      9  C   UNL     1       6.754   5.303  16.347  0.00  0.00    +0.000 C 
ATOM     10  N   UNL     1       6.698   5.649  15.012  0.00  0.00    +0.000 N 
ATOM     11  H   UNL     1       6.176   6.457  14.693  0.00  0.00    +0.000 HD
BRANCH  10  12
ATOM     12  O   UNL     1       7.832   5.314  14.235  0.00  0.00    +0.000 OA
ATOM     13  H   UNL     1       7.475   4.611  13.649  0.00  0.00    +0.000 HD
ENDBRANCH  10  12
ENDBRANCH   2   9
ENDBRANCH   1   5
BRANCH   1  14
ATOM     14  N   UNL     1       2.025   6.658  20.800  0.00  0.00    +0.000 NA
ATOM     15  H   UNL     1       1.795   7.307  21.543  0.00  0.00    +0.000 HD
BRANCH  14  16
ATOM     16  C   UNL     1       0.987   5.657  20.679  0.00  0.00    +0.000 C 
BRANCH  16  17
ATOM     17  C   UNL     1       1.603   4.277  20.524  0.00  0.00    +0.000 A 
ATOM     18  C   UNL     1       1.665   3.397  21.595  0.00  0.00    +0.000 A 
ATOM     19  S   UNL     1       2.895   2.241  21.399  0.00  0.00    +0.000 S 
ATOM     20  C   UNL     1       2.910   2.488  19.700  0.00  0.00    +0.000 A 
ATOM     21  C   UNL     1       3.561   1.664  18.761  0.00  0.00    +0.000 A 
ATOM     22  C   UNL     1       3.328   1.883  17.408  0.00  0.00    +0.000 A 
ATOM     23  C   UNL     1       2.571   2.979  17.004  0.00  0.00    +0.000 A 
ATOM     24  C   UNL     1       2.030   3.869  17.946  0.00  0.00    +0.000 A 
ATOM     25  C   UNL     1       2.147   3.611  19.340  0.00  0.00    +0.000 A 
ENDBRANCH  16  17
ENDBRANCH  14  16
ENDBRANCH   1  14
TORSDOF 6
ENDMDL
MODEL 2
REMARK VINA RESULT:      -6.8      2.915      4.252
REMARK  Name = 
REMARK  6 active torsions:
REMARK  status: ('A' for Active; 'I' for Inactive)
REMARK    1  A    between atoms: C_2  and  C_5
REMARK    2  A    between atoms: N_3  and  O_4
REMARK    3  A    between atoms: C_8  and  C_9
REMARK    4  A    between atoms: C_9  and  N_10
REMARK    5  A    between atoms: N_10  and  C_11
REMARK    6  A    between atoms: C_11  and  C_12
REMARK                            x       y       z     vdW  Elec       q    Type
REMARK                         _______ _______ _______ _____ _____    ______ ____
ROOT
ATOM      1  C   UNL     1       6.629   6.100  16.705  0.00  0.00    +0.000 C 
ENDROOT
BRANCH   1   5
ATOM      2  C   UNL     1       5.998   3.686  13.151  0.00  0.00    +0.000 A 
ATOM      3  C   UNL     1       4.983   3.810  14.102  0.00  0.00    +0.000 A 
ATOM      4  C   UNL     1       5.189   4.571  15.260  0.00  0.00    +0.000 A 
ATOM      5  C   UNL     1       6.411   5.216  15.493  0.00  0.00    +0.000 A 
ATOM      6  C   UNL     1       7.399   5.136  14.493  0.00  0.00    +0.000 A 
ATOM      7  C   UNL     1       7.196   4.382  13.332  0.00  0.00    +0.000 A 
BRANCH   2   9
ATOM      8  O   UNL     1       4.703   2.750  11.389  0.00  0.00    +0.000 OA
ATOM      9  C   UNL     1       5.781   2.802  11.972  0.00  0.00    +0.000 C 
ATOM     10  N   UNL     1       6.847   1.996  11.630  0.00  0.00    +0.000 N 
ATOM     11  H   UNL     1       7.581   1.775  12.292  0.00  0.00    +0.000 HD
BRANCH  10  12
ATOM     12  O   UNL     1       6.587   1.001  10.659  0.00  0.00    +0.000 OA
ATOM     13  H   UNL     1       5.841   1.398  10.157  0.00  0.00    +0.000 HD
ENDBRANCH  10  12
ENDBRANCH   2   9
ENDBRANCH   1   5
BRANCH   1  14
ATOM     14  N   UNL     1       5.473   6.391  17.548  0.00  0.00    +0.000 NA
ATOM     15  H   UNL     1       4.615   6.307  17.017  0.00  0.00    +0.000 HD
BRANCH  14  16
ATOM     16  C   UNL     1       5.371   5.626  18.774  0.00  0.00    +0.000 C 
BRANCH  16  17
ATOM     17  C   UNL     1       3.913   5.355  19.104  0.00  0.00    +0.000 A 
ATOM     18  C   UNL     1       3.110   6.340  19.658  0.00  0.00    +0.000 A 
ATOM     19  S   UNL     1       1.787   5.685  20.501  0.00  0.00    +0.000 S 
ATOM     20  C   UNL     1       1.911   4.212  19.627  0.00  0.00    +0.000 A 
ATOM     21  C   UNL     1       0.943   3.188  19.613  0.00  0.00    +0.000 A 
ATOM     22  C   UNL     1       1.098   2.139  18.713  0.00  0.00    +0.000 A 
ATOM     23  C   UNL     1       2.256   2.050  17.944  0.00  0.00    +0.000 A 
ATOM     24  C   UNL     1       3.273   3.011  18.059  0.00  0.00    +0.000 A 
ATOM     25  C   UNL     1       3.100   4.159  18.880  0.00  0.00    +0.000 A 
ENDBRANCH  16  17
ENDBRANCH  14  16
ENDBRANCH   1  14
TORSDOF 6
ENDMDL
MODEL 3
REMARK VINA RESULT:      -6.8      3.525      5.883
REMARK  Name = 
REMARK  6 active torsions:
REMARK  status: ('A' for Active; 'I' for Inactive)
REMARK    1  A    between atoms: C_2  and  C_5
REMARK    2  A    between atoms: N_3  and  O_4
REMARK    3  A    between atoms: C_8  and  C_9
REMARK    4  A    between atoms: C_9  and  N_10
REMARK    5  A    between atoms: N_10  and  C_11
REMARK    6  A    between atoms: C_11  and  C_12
REMARK                            x       y       z     vdW  Elec       q    Type
REMARK                         _______ _______ _______ _____ _____    ______ ____
ROOT
ATOM      1  C   UNL     1       3.588   5.982  19.404  0.00  0.00    +0.000 C 
ENDROOT
BRANCH   1   5
ATOM      2  C   UNL     1       5.790   4.990  15.795  0.00  0.00    +0.000 A 
ATOM      3  C   UNL     1       5.450   3.987  16.706  0.00  0.00    +0.000 A 
ATOM      4  C   UNL     1       4.758   4.305  17.881  0.00  0.00    +0.000 A 
ATOM      5  C   UNL     1       4.397   5.627  18.172  0.00  0.00    +0.000 A 
ATOM      6  C   UNL     1       4.688   6.616  17.213  0.00  0.00    +0.000 A 
ATOM      7  C   UNL     1       5.375   6.303  16.034  0.00  0.00    +0.000 A 
BRANCH   2   9
ATOM      8  O   UNL     1       7.578   5.292  14.256  0.00  0.00    +0.000 OA
ATOM      9  C   UNL     1       6.599   4.635  14.597  0.00  0.00    +0.000 C 
ATOM     10  N   UNL     1       6.131   3.568  13.858  0.00  0.00    +0.000 N 
ATOM     11  H   UNL     1       5.168   3.260  13.920  0.00  0.00    +0.000 HD
BRANCH  10  12
ATOM     12  O   UNL     1       6.757   3.357  12.607  0.00  0.00    +0.000 OA
ATOM     13  H   UNL     1       7.573   2.874  12.867  0.00  0.00    +0.000 HD
ENDBRANCH  10  12
ENDBRANCH   2   9
ENDBRANCH   1   5
BRANCH   1  14
ATOM     14  N   UNL     1       2.508   6.952  19.249  0.00  0.00    +0.000 NA
ATOM     15  H   UNL     1       1.837   6.631  18.562  0.00  0.00    +0.000 HD
BRANCH  14  16
ATOM     16  C   UNL     1       1.823   7.341  20.464  0.00  0.00    +0.000 C 
BRANCH  16  17
ATOM     17  C   UNL     1       1.211   8.723  20.302  0.00  0.00    +0.000 A 
ATOM     18  C   UNL     1       1.233   9.377  19.080  0.00  0.00    +0.000 A 
ATOM     19  S   UNL     1       1.093  11.061  19.255  0.00  0.00    +0.000 S 
ATOM     20  C   UNL     1       0.386  10.879  20.809  0.00  0.00    +0.000 A 
ATOM     21  C   UNL     1      -0.253  11.900  21.540  0.00  0.00    +0.000 A 
ATOM     22  C   UNL     1      -0.941  11.559  22.699  0.00  0.00    +0.000 A 
ATOM     23  C   UNL     1      -0.878  10.255  23.184  0.00  0.00    +0.000 A 
ATOM     24  C   UNL     1      -0.132   9.271  22.514  0.00  0.00    +0.000 A 
ATOM     25  C   UNL     1       0.486   9.553  21.265  0.00  0.00    +0.000 A 
ENDBRANCH  16  17
ENDBRANCH  14  16
ENDBRANCH   1  14
TORSDOF 6
ENDMDL
MODEL 4
REMARK VINA RESULT:      -6.7      5.059      6.902
REMARK  Name = 
REMARK  6 active torsions:
REMARK  status: ('A' for Active; 'I' for Inactive)
REMARK    1  A    between atoms: C_2  and  C_5
REMARK    2  A    between atoms: N_3  and  O_4
REMARK    3  A    between atoms: C_8  and  C_9
REMARK    4  A    between atoms: C_9  and  N_10
REMARK    5  A    between atoms: N_10  and  C_11
REMARK    6  A    between atoms: C_11  and  C_12
REMARK                            x       y       z     vdW  Elec       q    Type
REMARK                         _______ _______ _______ _____ _____    ______ ____
ROOT
ATOM      1  C   UNL     1       2.590   8.795  17.831  0.00  0.00    +0.000 C 
ENDROOT
BRANCH   1   5
ATOM      2  C   UNL     1       3.596   4.595  18.286  0.00  0.00    +0.000 A 
ATOM      3  C   UNL     1       2.457   5.113  18.906  0.00  0.00    +0.000 A 
ATOM      4  C   UNL     1       2.140   6.472  18.779  0.00  0.00    +0.000 A 
ATOM      5  C   UNL     1       2.954   7.338  18.037  0.00  0.00    +0.000 A 
ATOM      6  C   UNL     1       4.060   6.786  17.363  0.00  0.00    +0.000 A 
ATOM      7  C   UNL     1       4.379   5.429  17.483  0.00  0.00    +0.000 A 
BRANCH   2   9
ATOM      8  O   UNL     1       3.344   2.251  17.967  0.00  0.00    +0.000 OA
ATOM      9  C   UNL     1       3.955   3.167  18.508  0.00  0.00    +0.000 C 
ATOM     10  N   UNL     1       4.967   2.944  19.418  0.00  0.00    +0.000 N 
ATOM     11  H   UNL     1       5.223   3.637  20.111  0.00  0.00    +0.000 HD
BRANCH  10  12
ATOM     12  O   UNL     1       5.171   1.597  19.803  0.00  0.00    +0.000 OA
ATOM     13  H   UNL     1       4.331   1.391  20.269  0.00  0.00    +0.000 HD
ENDBRANCH  10  12
ENDBRANCH   2   9
ENDBRANCH   1   5
BRANCH   1  14
ATOM     14  N   UNL     1       1.175   9.153  17.879  0.00  0.00    +0.000 NA
ATOM     15  H   UNL     1       0.602   8.380  17.564  0.00  0.00    +0.000 HD
BRANCH  14  16
ATOM     16  C   UNL     1       0.687   9.645  19.150  0.00  0.00    +0.000 C 
BRANCH  16  17
ATOM     17  C   UNL     1      -0.478  10.596  18.933  0.00  0.00    +0.000 A 
ATOM     18  C   UNL     1      -0.569  11.788  19.635  0.00  0.00    +0.000 A 
ATOM     19  S   UNL     1      -2.168  12.356  19.723  0.00  0.00    +0.000 S 
ATOM     20  C   UNL     1      -2.615  11.422  18.353  0.00  0.00    +0.000 A 
ATOM     21  C   UNL     1      -3.820  11.553  17.634  0.00  0.00    +0.000 A 
ATOM     22  C   UNL     1      -3.960  10.858  16.437  0.00  0.00    +0.000 A 
ATOM     23  C   UNL     1      -2.976   9.956  16.041  0.00  0.00    +0.000 A 
ATOM     24  C   UNL     1      -1.836   9.739  16.830  0.00  0.00    +0.000 A 
ATOM     25  C   UNL     1      -1.601  10.516  17.998  0.00  0.00    +0.000 A 
ENDBRANCH  16  17
ENDBRANCH  14  16
ENDBRANCH   1  14
TORSDOF 6
ENDMDL
MODEL 5
REMARK VINA RESULT:      -6.7      4.437      6.736
REMARK  Name = 
REMARK  6 active torsions:
REMARK  status: ('A' for Active; 'I' for Inactive)
REMARK    1  A    between atoms: C_2  and  C_5
REMARK    2  A    between atoms: N_3  and  O_4
REMARK    3  A    between atoms: C_8  and  C_9
REMARK    4  A    between atoms: C_9  and  N_10
REMARK    5  A    between atoms: N_10  and  C_11
REMARK    6  A    between atoms: C_11  and  C_12
REMARK                            x       y       z     vdW  Elec       q    Type
REMARK                         _______ _______ _______ _____ _____    ______ ____
ROOT
ATOM      1  C   UNL     1       2.848   8.319  17.668  0.00  0.00    +0.000 C 
ENDROOT
BRANCH   1   5
ATOM      2  C   UNL     1       3.646   4.127  18.474  0.00  0.00    +0.000 A 
ATOM      3  C   UNL     1       2.514   4.741  19.014  0.00  0.00    +0.000 A 
ATOM      4  C   UNL     1       2.263   6.098  18.774  0.00  0.00    +0.000 A 
ATOM      5  C   UNL     1       3.138   6.868  17.997  0.00  0.00    +0.000 A 
ATOM      6  C   UNL     1       4.238   6.219  17.404  0.00  0.00    +0.000 A 
ATOM      7  C   UNL     1       4.491   4.862  17.637  0.00  0.00    +0.000 A 
BRANCH   2   9
ATOM      8  O   UNL     1       3.164   1.798  18.516  0.00  0.00    +0.000 OA
ATOM      9  C   UNL     1       3.933   2.707  18.815  0.00  0.00    +0.000 C 
ATOM     10  N   UNL     1       5.079   2.493  19.553  0.00  0.00    +0.000 N 
ATOM     11  H   UNL     1       5.511   3.233  20.093  0.00  0.00    +0.000 HD
BRANCH  10  12
ATOM     12  O   UNL     1       5.250   1.186  20.070  0.00  0.00    +0.000 OA
ATOM     13  H   UNL     1       6.123   0.934  19.697  0.00  0.00    +0.000 HD
ENDBRANCH  10  12
ENDBRANCH   2   9
ENDBRANCH   1   5
BRANCH   1  14
ATOM     14  N   UNL     1       1.629   8.907  18.218  0.00  0.00    +0.000 NA
ATOM     15  H   UNL     1       1.419   8.509  19.125  0.00  0.00    +0.000 HD
BRANCH  14  16
ATOM     16  C   UNL     1       1.598  10.352  18.293  0.00  0.00    +0.000 C 
BRANCH  16  17
ATOM     17  C   UNL     1       0.463  10.808  19.194  0.00  0.00    +0.000 A 
ATOM     18  C   UNL     1      -0.562  11.604  18.706  0.00  0.00    +0.000 A 
ATOM     19  S   UNL     1      -1.329  12.484  19.941  0.00  0.00    +0.000 S 
ATOM     20  C   UNL     1      -0.768  11.378  21.130  0.00  0.00    +0.000 A 
ATOM     21  C   UNL     1      -1.217  11.317  22.464  0.00  0.00    +0.000 A 
ATOM     22  C   UNL     1      -0.808  10.250  23.255  0.00  0.00    +0.000 A 
ATOM     23  C   UNL     1       0.129   9.343  22.766  0.00  0.00    +0.000 A 
ATOM     24  C   UNL     1       0.667   9.487  21.477  0.00  0.00    +0.000 A 
ATOM     25  C   UNL     1       0.186  10.495  20.597  0.00  0.00    +0.000 A 
ENDBRANCH  16  17
ENDBRANCH  14  16
ENDBRANCH   1  14
TORSDOF 6
ENDMDL
MODEL 6
REMARK VINA RESULT:      -6.7      2.777      4.139
REMARK  Name = 
REMARK  6 active torsions:
REMARK  status: ('A' for Active; 'I' for Inactive)
REMARK    1  A    between atoms: C_2  and  C_5
REMARK    2  A    between atoms: N_3  and  O_4
REMARK    3  A    between atoms: C_8  and  C_9
REMARK    4  A    between atoms: C_9  and  N_10
REMARK    5  A    between atoms: N_10  and  C_11
REMARK    6  A    between atoms: C_11  and  C_12
REMARK                            x       y       z     vdW  Elec       q    Type
REMARK                         _______ _______ _______ _____ _____    ______ ____
ROOT
ATOM      1  C   UNL     1       6.955   6.075  17.038  0.00  0.00    +0.000 C 
ENDROOT
BRANCH   1   5
ATOM      2  C   UNL     1       6.067   3.791  13.452  0.00  0.00    +0.000 A 
ATOM      3  C   UNL     1       7.197   4.611  13.499  0.00  0.00    +0.000 A 
ATOM      4  C   UNL     1       7.476   5.366  14.646  0.00  0.00    +0.000 A 
ATOM      5  C   UNL     1       6.632   5.320  15.763  0.00  0.00    +0.000 A 
ATOM      6  C   UNL     1       5.536   4.437  15.726  0.00  0.00    +0.000 A 
ATOM      7  C   UNL     1       5.256   3.678  14.584  0.00  0.00    +0.000 A 
BRANCH   2   9
ATOM      8  O   UNL     1       4.696   3.244  11.588  0.00  0.00    +0.000 OA
ATOM      9  C   UNL     1       5.749   3.067  12.191  0.00  0.00    +0.000 C 
ATOM     10  N   UNL     1       6.683   2.134  11.790  0.00  0.00    +0.000 N 
ATOM     11  H   UNL     1       7.351   1.737  12.439  0.00  0.00    +0.000 HD
BRANCH  10  12
ATOM     12  O   UNL     1       6.298   1.289  10.722  0.00  0.00    +0.000 OA
ATOM     13  H   UNL     1       6.889   1.594   9.999  0.00  0.00    +0.000 HD
ENDBRANCH  10  12
ENDBRANCH   2   9
ENDBRANCH   1   5
BRANCH   1  14
ATOM     14  N   UNL     1       5.853   6.358  17.954  0.00  0.00    +0.000 NA
ATOM     15  H   UNL     1       5.002   6.547  17.439  0.00  0.00    +0.000 HD
BRANCH  14  16
ATOM     16  C   UNL     1       5.602   5.362  18.974  0.00  0.00    +0.000 C 
BRANCH  16  17
ATOM     17  C   UNL     1       4.107   5.198  19.193  0.00  0.00    +0.000 A 
ATOM     18  C   UNL     1       3.328   6.258  19.632  0.00  0.00    +0.000 A 
ATOM     19  S   UNL     1       1.901   5.729  20.389  0.00  0.00    +0.000 S 
ATOM     20  C   UNL     1       1.999   4.209  19.596  0.00  0.00    +0.000 A 
ATOM     21  C   UNL     1       0.970   3.247  19.546  0.00  0.00    +0.000 A 
ATOM     22  C   UNL     1       1.128   2.147  18.711  0.00  0.00    +0.000 A 
ATOM     23  C   UNL     1       2.336   1.948  18.048  0.00  0.00    +0.000 A 
ATOM     24  C   UNL     1       3.402   2.848  18.204  0.00  0.00    +0.000 A 
ATOM     25  C   UNL     1       3.238   4.045  18.955  0.00  0.00    +0.000 A 
ENDBRANCH  16  17
ENDBRANCH  14  16
ENDBRANCH   1  14
TORSDOF 6
ENDMDL
MODEL 7
REMARK VINA RESULT:      -6.6      4.313      6.521
REMARK  Name = 
REMARK  6 active torsions:
REMARK  status: ('A' for Active; 'I' for Inactive)
REMARK    1  A    between atoms: C_2  and  C_5
REMARK    2  A    between atoms: N_3  and  O_4
REMARK    3  A    between atoms: C_8  and  C_9
REMARK    4  A    between atoms: C_9  and  N_10
REMARK    5  A    between atoms: N_10  and  C_11
REMARK    6  A    between atoms: C_11  and  C_12
REMARK                            x       y       z     vdW  Elec       q    Type
REMARK                         _______ _______ _______ _____ _____    ______ ____
ROOT
ATOM      1  C   UNL     1       2.935   8.183  17.801  0.00  0.00    +0.000 C 
ENDROOT
BRANCH   1   5
ATOM      2  C   UNL     1       3.928   4.123  18.979  0.00  0.00    +0.000 A 
ATOM      3  C   UNL     1       4.695   4.780  18.014  0.00  0.00    +0.000 A 
ATOM      4  C   UNL     1       4.366   6.082  17.616  0.00  0.00    +0.000 A 
ATOM      5  C   UNL     1       3.265   6.750  18.168  0.00  0.00    +0.000 A 
ATOM      6  C   UNL     1       2.543   6.101  19.187  0.00  0.00    +0.000 A 
ATOM      7  C   UNL     1       2.871   4.801  19.592  0.00  0.00    +0.000 A 
BRANCH   2   9
ATOM      8  O   UNL     1       4.873   2.412  20.334  0.00  0.00    +0.000 OA
ATOM      9  C   UNL     1       4.249   2.710  19.321  0.00  0.00    +0.000 C 
ATOM     10  N   UNL     1       3.864   1.772  18.386  0.00  0.00    +0.000 N 
ATOM     11  H   UNL     1       3.682   2.023  17.422  0.00  0.00    +0.000 HD
BRANCH  10  12
ATOM     12  O   UNL     1       4.351   0.458  18.588  0.00  0.00    +0.000 OA
ATOM     13  H   UNL     1       4.445   0.425  19.566  0.00  0.00    +0.000 HD
ENDBRANCH  10  12
ENDBRANCH   2   9
ENDBRANCH   1   5
BRANCH   1  14
ATOM     14  N   UNL     1       1.583   8.659  18.080  0.00  0.00    +0.000 NA
ATOM     15  H   UNL     1       1.247   8.282  18.958  0.00  0.00    +0.000 HD
BRANCH  14  16
ATOM     16  C   UNL     1       1.397  10.095  18.057  0.00  0.00    +0.000 C 
BRANCH  16  17
ATOM     17  C   UNL     1       0.326  10.503  19.055  0.00  0.00    +0.000 A 
ATOM     18  C   UNL     1      -0.794  11.213  18.651  0.00  0.00    +0.000 A 
ATOM     19  S   UNL     1      -1.497  12.079  19.934  0.00  0.00    +0.000 S 
ATOM     20  C   UNL     1      -0.748  11.051  21.088  0.00  0.00    +0.000 A 
ATOM     21  C   UNL     1      -1.059  11.003  22.461  0.00  0.00    +0.000 A 
ATOM     22  C   UNL     1      -0.502   9.991  23.235  0.00  0.00    +0.000 A 
ATOM     23  C   UNL     1       0.444   9.134  22.678  0.00  0.00    +0.000 A 
ATOM     24  C   UNL     1       0.842   9.271  21.338  0.00  0.00    +0.000 A 
ATOM     25  C   UNL     1       0.209  10.217  20.485  0.00  0.00    +0.000 A 
ENDBRANCH  16  17
ENDBRANCH  14  16
ENDBRANCH   1  14
TORSDOF 6
ENDMDL
MODEL 8
REMARK VINA RESULT:      -6.6      3.886      5.628
REMARK  Name = 
REMARK  6 active torsions:
REMARK  status: ('A' for Active; 'I' for Inactive)
REMARK    1  A    between atoms: C_2  and  C_5
REMARK    2  A    between atoms: N_3  and  O_4
REMARK    3  A    between atoms: C_8  and  C_9
REMARK    4  A    between atoms: C_9  and  N_10
REMARK    5  A    between atoms: N_10  and  C_11
REMARK    6  A    between atoms: C_11  and  C_12
REMARK                            x       y       z     vdW  Elec       q    Type
REMARK                         _______ _______ _______ _____ _____    ______ ____
ROOT
ATOM      1  C   UNL     1       3.598   7.254  17.073  0.00  0.00    +0.000 C 
ENDROOT
BRANCH   1   5
ATOM      2  C   UNL     1       1.084   8.967  20.172  0.00  0.00    +0.000 A 
ATOM      3  C   UNL     1       1.228   9.621  18.946  0.00  0.00    +0.000 A 
ATOM      4  C   UNL     1       2.054   9.082  17.951  0.00  0.00    +0.000 A 
ATOM      5  C   UNL     1       2.754   7.888  18.162  0.00  0.00    +0.000 A 
ATOM      6  C   UNL     1       2.546   7.207  19.376  0.00  0.00    +0.000 A 
ATOM      7  C   UNL     1       1.718   7.738  20.372  0.00  0.00    +0.000 A 
BRANCH   2   9
ATOM      8  O   UNL     1      -0.632  10.398  20.986  0.00  0.00    +0.000 OA
ATOM      9  C   UNL     1       0.268   9.605  21.241  0.00  0.00    +0.000 C 
ATOM     10  N   UNL     1       0.643   9.303  22.534  0.00  0.00    +0.000 N 
ATOM     11  H   UNL     1       1.568   8.954  22.753  0.00  0.00    +0.000 HD
BRANCH  10  12
ATOM     12  O   UNL     1       0.025  10.065  23.554  0.00  0.00    +0.000 OA
ATOM     13  H   UNL     1      -0.608   9.417  23.936  0.00  0.00    +0.000 HD
ENDBRANCH  10  12
ENDBRANCH   2   9
ENDBRANCH   1   5
BRANCH   1  14
ATOM     14  N   UNL     1       4.831   6.583  17.476  0.00  0.00    +0.000 NA
ATOM     15  H   UNL     1       4.974   6.670  18.474  0.00  0.00    +0.000 HD
BRANCH  14  16
ATOM     16  C   UNL     1       4.959   5.197  17.078  0.00  0.00    +0.000 C 
BRANCH  16  17
ATOM     17  C   UNL     1       4.383   4.287  18.149  0.00  0.00    +0.000 A 
ATOM     18  C   UNL     1       5.148   3.885  19.234  0.00  0.00    +0.000 A 
ATOM     19  S   UNL     1       4.569   2.444  19.924  0.00  0.00    +0.000 S 
ATOM     20  C   UNL     1       3.016   2.694  19.236  0.00  0.00    +0.000 A 
ATOM     21  C   UNL     1       1.849   1.979  19.573  0.00  0.00    +0.000 A 
ATOM     22  C   UNL     1       0.630   2.419  19.069  0.00  0.00    +0.000 A 
ATOM     23  C   UNL     1       0.597   3.463  18.148  0.00  0.00    +0.000 A 
ATOM     24  C   UNL     1       1.780   4.086  17.721  0.00  0.00    +0.000 A 
ATOM     25  C   UNL     1       3.032   3.744  18.302  0.00  0.00    +0.000 A 
ENDBRANCH  16  17
ENDBRANCH  14  16
ENDBRANCH   1  14
TORSDOF 6
ENDMDL
MODEL 9
REMARK VINA RESULT:      -6.6      2.874      4.480
REMARK  Name = 
REMARK  6 active torsions:
REMARK  status: ('A' for Active; 'I' for Inactive)
REMARK    1  A    between atoms: C_2  and  C_5
REMARK    2  A    between atoms: N_3  and  O_4
REMARK    3  A    between atoms: C_8  and  C_9
REMARK    4  A    between atoms: C_9  and  N_10
REMARK    5  A    between atoms: N_10  and  C_11
REMARK    6  A    between atoms: C_11  and  C_12
REMARK                            x       y       z     vdW  Elec       q    Type
REMARK                         _______ _______ _______ _____ _____    ______ ____
ROOT
ATOM      1  C   UNL     1       6.731   6.039  16.782  0.00  0.00    +0.000 C 
ENDROOT
BRANCH   1   5
ATOM      2  C   UNL     1       6.036   3.693  13.194  0.00  0.00    +0.000 A 
ATOM      3  C   UNL     1       5.106   3.671  14.236  0.00  0.00    +0.000 A 
ATOM      4  C   UNL     1       5.336   4.410  15.404  0.00  0.00    +0.000 A 
ATOM      5  C   UNL     1       6.497   5.179  15.555  0.00  0.00    +0.000 A 
ATOM      6  C   UNL     1       7.391   5.244  14.469  0.00  0.00    +0.000 A 
ATOM      7  C   UNL     1       7.164   4.512  13.299  0.00  0.00    +0.000 A 
BRANCH   2   9
ATOM      8  O   UNL     1       4.734   2.816  11.407  0.00  0.00    +0.000 OA
ATOM      9  C   UNL     1       5.807   2.832  12.001  0.00  0.00    +0.000 C 
ATOM     10  N   UNL     1       6.854   2.003  11.658  0.00  0.00    +0.000 N 
ATOM     11  H   UNL     1       7.576   1.753  12.323  0.00  0.00    +0.000 HD
BRANCH  10  12
ATOM     12  O   UNL     1       6.577   1.028  10.670  0.00  0.00    +0.000 OA
ATOM     13  H   UNL     1       6.573   1.568   9.849  0.00  0.00    +0.000 HD
ENDBRANCH  10  12
ENDBRANCH   2   9
ENDBRANCH   1   5
BRANCH   1  14
ATOM     14  N   UNL     1       5.694   6.047  17.811  0.00  0.00    +0.000 NA
ATOM     15  H   UNL     1       4.786   5.863  17.402  0.00  0.00    +0.000 HD
BRANCH  14  16
ATOM     16  C   UNL     1       5.914   5.170  18.942  0.00  0.00    +0.000 C 
BRANCH  16  17
ATOM     17  C   UNL     1       4.777   4.169  19.059  0.00  0.00    +0.000 A 
ATOM     18  C   UNL     1       4.965   2.833  18.736  0.00  0.00    +0.000 A 
ATOM     19  S   UNL     1       3.504   2.063  18.334  0.00  0.00    +0.000 S 
ATOM     20  C   UNL     1       2.599   3.258  19.174  0.00  0.00    +0.000 A 
ATOM     21  C   UNL     1       1.231   3.167  19.499  0.00  0.00    +0.000 A 
ATOM     22  C   UNL     1       0.682   4.125  20.343  0.00  0.00    +0.000 A 
ATOM     23  C   UNL     1       1.449   5.217  20.742  0.00  0.00    +0.000 A 
ATOM     24  C   UNL     1       2.776   5.364  20.309  0.00  0.00    +0.000 A 
ATOM     25  C   UNL     1       3.408   4.346  19.543  0.00  0.00    +0.000 A 
ENDBRANCH  16  17
ENDBRANCH  14  16
ENDBRANCH   1  14
TORSDOF 6
ENDMDL
