MODEL 1
REMARK VINA RESULT:      -9.1      0.000      0.000
REMARK  Name = 
REMARK  3 active torsions:
REMARK  status: ('A' for Active; 'I' for Inactive)
REMARK    1  A    between atoms: C_8  and  N_9
REMARK    2  A    between atoms: C_10  and  C_12
REMARK    3  A    between atoms: N_15  and  C_16
REMARK                            x       y       z     vdW  Elec       q    Type
REMARK                         _______ _______ _______ _____ _____    ______ ____
ROOT
ATOM      1  N   UNL     1       8.000   9.092  17.713  0.00  0.00    +0.000 N 
ATOM      2  C   UNL     1       8.101   7.776  18.162  0.00  0.00    +0.000 C 
ATOM      3  O   UNL     1       8.757   7.386  19.122  0.00  0.00    +0.000 OA
ATOM      4  H   UNL     1       7.399   9.257  16.915  0.00  0.00    +0.000 HD
ENDROOT
BRANCH   1  12
ATOM      5  O   UNL     1       9.249  16.091  17.388  0.00  0.00    +0.000 OA
ATOM      6  C   UNL     1       9.340  15.029  18.001  0.00  0.00    +0.000 C 
ATOM      7  C   UNL     1       9.901  14.927  19.419  0.00  0.00    +0.000 C 
ATOM      8  O   UNL     1      10.361  13.673  19.895  0.00  0.00    +0.000 OA
ATOM      9  C   UNL     1       9.737  12.593  19.335  0.00  0.00    +0.000 A 
ATOM     10  C   UNL     1       9.913  11.376  19.984  0.00  0.00    +0.000 A 
ATOM     11  C   UNL     1       9.342  10.209  19.466  0.00  0.00    +0.000 A 
ATOM     12  C   UNL     1       8.600  10.242  18.285  0.00  0.00    +0.000 A 
ATOM     13  C   UNL     1       8.437  11.472  17.621  0.00  0.00    +0.000 A 
ATOM     14  C   UNL     1       9.003  12.641  18.150  0.00  0.00    +0.000 A 
ATOM     15  N   UNL     1       8.862  13.857  17.477  0.00  0.00    +0.000 N 
ATOM     16  H   UNL     1       8.420  13.915  16.570  0.00  0.00    +0.000 HD
ENDBRANCH   1  12
BRANCH   2  17
ATOM     17  C   UNL     1       7.317   6.791  17.292  0.00  0.00    +0.000 C 
ATOM     18  C   UNL     1       5.861   7.244  17.072  0.00  0.00    +0.000 C 
ATOM     19  C   UNL     1       4.899   6.831  18.183  0.00  0.00    +0.000 C 
ATOM     20  N   UNL     1       5.080   5.411  18.486  0.00  0.00    +0.000 N 
ATOM     21  C   UNL     1       6.418   5.076  18.976  0.00  0.00    +0.000 C 
ATOM     22  C   UNL     1       7.432   5.369  17.866  0.00  0.00    +0.000 C 
BRANCH  20  23
ATOM     23  C   UNL     1       4.102   4.459  18.268  0.00  0.00    +0.000 A 
ATOM     24  C   UNL     1       2.805   4.801  17.853  0.00  0.00    +0.000 A 
ATOM     25  C   UNL     1       1.821   3.829  17.638  0.00  0.00    +0.000 A 
ATOM     26  F   UNL     1       0.603   4.209  17.230  0.00  0.00    +0.000 F 
ATOM     27  C   UNL     1       2.086   2.487  17.832  0.00  0.00    +0.000 A 
ATOM     28  C   UNL     1       3.356   2.129  18.246  0.00  0.00    +0.000 A 
ATOM     29  F   UNL     1       3.639   0.836  18.453  0.00  0.00    +0.000 F 
ATOM     30  C   UNL     1       4.347   3.089  18.459  0.00  0.00    +0.000 A 
ENDBRANCH  20  23
ENDBRANCH   2  17
TORSDOF 3
ENDMDL
MODEL 2
REMARK VINA RESULT:      -9.1      0.063      1.545
REMARK  Name = 
REMARK  3 active torsions:
REMARK  status: ('A' for Active; 'I' for Inactive)
REMARK    1  A    between atoms: C_8  and  N_9
REMARK    2  A    between atoms: C_10  and  C_12
REMARK    3  A    between atoms: N_15  and  C_16
REMARK                            x       y       z     vdW  Elec       q    Type
REMARK                         _______ _______ _______ _____ _____    ______ ____
ROOT
ATOM      1  N   UNL     1       8.039   9.103  17.709  0.00  0.00    +0.000 N 
ATOM      2  C   UNL     1       8.122   7.795  18.184  0.00  0.00    +0.000 C 
ATOM      3  O   UNL     1       8.749   7.420  19.169  0.00  0.00    +0.000 OA
ATOM      4  H   UNL     1       7.461   9.256  16.892  0.00  0.00    +0.000 HD
ENDROOT
BRANCH   1  12
ATOM      5  O   UNL     1       9.120  16.132  17.427  0.00  0.00    +0.000 OA
ATOM      6  C   UNL     1       9.251  15.066  18.025  0.00  0.00    +0.000 C 
ATOM      7  C   UNL     1       9.855  14.962  19.426  0.00  0.00    +0.000 C 
ATOM      8  O   UNL     1      10.357  13.714  19.874  0.00  0.00    +0.000 OA
ATOM      9  C   UNL     1       9.742  12.626  19.321  0.00  0.00    +0.000 A 
ATOM     10  C   UNL     1       9.964  11.407  19.950  0.00  0.00    +0.000 A 
ATOM     11  C   UNL     1       9.405  10.233  19.436  0.00  0.00    +0.000 A 
ATOM     12  C   UNL     1       8.629  10.261  18.277  0.00  0.00    +0.000 A 
ATOM     13  C   UNL     1       8.419  11.493  17.632  0.00  0.00    +0.000 A 
ATOM     14  C   UNL     1       8.973  12.670  18.157  0.00  0.00    +0.000 A 
ATOM     15  N   UNL     1       8.785  13.889  17.502  0.00  0.00    +0.000 N 
ATOM     16  H   UNL     1       8.317  13.946  16.609  0.00  0.00    +0.000 HD
ENDBRANCH   1  12
BRANCH   2  17
ATOM     17  C   UNL     1       7.357   6.798  17.311  0.00  0.00    +0.000 C 
ATOM     18  C   UNL     1       5.903   7.243  17.060  0.00  0.00    +0.000 C 
ATOM     19  C   UNL     1       4.923   6.838  18.159  0.00  0.00    +0.000 C 
ATOM     20  N   UNL     1       5.105   5.422  18.480  0.00  0.00    +0.000 N 
ATOM     21  C   UNL     1       6.435   5.097  18.996  0.00  0.00    +0.000 C 
ATOM     22  C   UNL     1       7.468   5.382  17.902  0.00  0.00    +0.000 C 
BRANCH  20  23
ATOM     23  C   UNL     1       4.134   4.464  18.254  0.00  0.00    +0.000 A 
ATOM     24  C   UNL     1       4.387   3.092  18.408  0.00  0.00    +0.000 A 
ATOM     25  C   UNL     1       3.398   2.130  18.174  0.00  0.00    +0.000 A 
ATOM     26  F   UNL     1       3.689   0.834  18.348  0.00  0.00    +0.000 F 
ATOM     27  C   UNL     1       2.127   2.493  17.772  0.00  0.00    +0.000 A 
ATOM     28  C   UNL     1       1.858   3.840  17.609  0.00  0.00    +0.000 A 
ATOM     29  F   UNL     1       0.637   4.222  17.209  0.00  0.00    +0.000 F 
ATOM     30  C   UNL     1       2.834   4.809  17.844  0.00  0.00    +0.000 A 
ENDBRANCH  20  23
ENDBRANCH   2  17
TORSDOF 3
ENDMDL
MODEL 3
REMARK VINA RESULT:      -8.8      1.011      1.036
REMARK  Name = 
REMARK  3 active torsions:
REMARK  status: ('A' for Active; 'I' for Inactive)
REMARK    1  A    between atoms: C_8  and  N_9
REMARK    2  A    between atoms: C_10  and  C_12
REMARK    3  A    between atoms: N_15  and  C_16
REMARK                            x       y       z     vdW  Elec       q    Type
REMARK                         _______ _______ _______ _____ _____    ______ ____
ROOT
ATOM      1  N   UNL     1       7.735   8.808  17.644  0.00  0.00    +0.000 N 
ATOM      2  C   UNL     1       7.857   7.500  18.114  0.00  0.00    +0.000 C 
ATOM      3  O   UNL     1       8.618   7.114  18.994  0.00  0.00    +0.000 OA
ATOM      4  H   UNL     1       7.042   8.971  16.924  0.00  0.00    +0.000 HD
ENDROOT
BRANCH   1  12
ATOM      5  O   UNL     1       8.628  15.865  17.446  0.00  0.00    +0.000 OA
ATOM      6  C   UNL     1       8.917  14.777  17.940  0.00  0.00    +0.000 C 
ATOM      7  C   UNL     1       9.852  14.626  19.140  0.00  0.00    +0.000 C 
ATOM      8  O   UNL     1      10.464  13.371  19.388  0.00  0.00    +0.000 OA
ATOM      9  C   UNL     1       9.744  12.294  18.952  0.00  0.00    +0.000 A 
ATOM     10  C   UNL     1      10.131  11.054  19.446  0.00  0.00    +0.000 A 
ATOM     11  C   UNL     1       9.475   9.891  19.030  0.00  0.00    +0.000 A 
ATOM     12  C   UNL     1       8.434   9.952  18.103  0.00  0.00    +0.000 A 
ATOM     13  C   UNL     1       8.055  11.207  17.592  0.00  0.00    +0.000 A 
ATOM     14  C   UNL     1       8.709  12.372  18.019  0.00  0.00    +0.000 A 
ATOM     15  N   UNL     1       8.349  13.614  17.492  0.00  0.00    +0.000 N 
ATOM     16  H   UNL     1       7.672  13.700  16.747  0.00  0.00    +0.000 HD
ENDBRANCH   1  12
BRANCH   2  17
ATOM     17  C   UNL     1       6.942   6.519  17.377  0.00  0.00    +0.000 C 
ATOM     18  C   UNL     1       5.532   7.098  17.151  0.00  0.00    +0.000 C 
ATOM     19  C   UNL     1       4.577   6.908  18.328  0.00  0.00    +0.000 C 
ATOM     20  N   UNL     1       4.624   5.517  18.777  0.00  0.00    +0.000 N 
ATOM     21  C   UNL     1       5.939   5.094  19.261  0.00  0.00    +0.000 C 
ATOM     22  C   UNL     1       6.933   5.160  18.098  0.00  0.00    +0.000 C 
BRANCH  20  23
ATOM     23  C   UNL     1       3.545   4.656  18.690  0.00  0.00    +0.000 A 
ATOM     24  C   UNL     1       2.422   4.779  19.522  0.00  0.00    +0.000 A 
ATOM     25  C   UNL     1       1.337   3.901  19.428  0.00  0.00    +0.000 A 
ATOM     26  F   UNL     1       0.283   4.071  20.237  0.00  0.00    +0.000 F 
ATOM     27  C   UNL     1       1.330   2.867  18.511  0.00  0.00    +0.000 A 
ATOM     28  C   UNL     1       2.430   2.724  17.686  0.00  0.00    +0.000 A 
ATOM     29  F   UNL     1       2.457   1.723  16.795  0.00  0.00    +0.000 F 
ATOM     30  C   UNL     1       3.516   3.597  17.767  0.00  0.00    +0.000 A 
ENDBRANCH  20  23
ENDBRANCH   2  17
TORSDOF 3
ENDMDL
MODEL 4
REMARK VINA RESULT:      -8.7      0.976      1.455
REMARK  Name = 
REMARK  3 active torsions:
REMARK  status: ('A' for Active; 'I' for Inactive)
REMARK    1  A    between atoms: C_8  and  N_9
REMARK    2  A    between atoms: C_10  and  C_12
REMARK    3  A    between atoms: N_15  and  C_16
REMARK                            x       y       z     vdW  Elec       q    Type
REMARK                         _______ _______ _______ _____ _____    ______ ____
ROOT
ATOM      1  N   UNL     1       7.702   8.909  17.672  0.00  0.00    +0.000 N 
ATOM      2  C   UNL     1       7.853   7.584  18.081  0.00  0.00    +0.000 C 
ATOM      3  O   UNL     1       8.648   7.169  18.916  0.00  0.00    +0.000 OA
ATOM      4  H   UNL     1       6.983   9.095  16.984  0.00  0.00    +0.000 HD
ENDROOT
BRANCH   1  12
ATOM      5  O   UNL     1       8.844  15.928  17.394  0.00  0.00    +0.000 OA
ATOM      6  C   UNL     1       9.062  14.842  17.928  0.00  0.00    +0.000 C 
ATOM      7  C   UNL     1       9.908  14.688  19.193  0.00  0.00    +0.000 C 
ATOM      8  O   UNL     1      10.460  13.420  19.507  0.00  0.00    +0.000 OA
ATOM      9  C   UNL     1       9.735  12.357  19.044  0.00  0.00    +0.000 A 
ATOM     10  C   UNL     1      10.045  11.117  19.589  0.00  0.00    +0.000 A 
ATOM     11  C   UNL     1       9.380   9.966  19.152  0.00  0.00    +0.000 A 
ATOM     12  C   UNL     1       8.407  10.040  18.155  0.00  0.00    +0.000 A 
ATOM     13  C   UNL     1       8.106  11.295  17.593  0.00  0.00    +0.000 A 
ATOM     14  C   UNL     1       8.769  12.447  18.042  0.00  0.00    +0.000 A 
ATOM     15  N   UNL     1       8.487  13.689  17.466  0.00  0.00    +0.000 N 
ATOM     16  H   UNL     1       7.865  13.780  16.675  0.00  0.00    +0.000 HD
ENDBRANCH   1  12
BRANCH   2  17
ATOM     17  C   UNL     1       6.921   6.625  17.336  0.00  0.00    +0.000 C 
ATOM     18  C   UNL     1       5.499   7.200  17.182  0.00  0.00    +0.000 C 
ATOM     19  C   UNL     1       4.588   6.951  18.382  0.00  0.00    +0.000 C 
ATOM     20  N   UNL     1       4.662   5.542  18.770  0.00  0.00    +0.000 N 
ATOM     21  C   UNL     1       5.996   5.113  19.191  0.00  0.00    +0.000 C 
ATOM     22  C   UNL     1       6.949   5.238  17.998  0.00  0.00    +0.000 C 
BRANCH  20  23
ATOM     23  C   UNL     1       3.588   4.675  18.684  0.00  0.00    +0.000 A 
ATOM     24  C   UNL     1       3.552   3.620  17.760  0.00  0.00    +0.000 A 
ATOM     25  C   UNL     1       2.458   2.751  17.679  0.00  0.00    +0.000 A 
ATOM     26  F   UNL     1       2.480   1.751  16.786  0.00  0.00    +0.000 F 
ATOM     27  C   UNL     1       1.362   2.900  18.506  0.00  0.00    +0.000 A 
ATOM     28  C   UNL     1       1.375   3.937  19.421  0.00  0.00    +0.000 A 
ATOM     29  F   UNL     1       0.321   4.113  20.229  0.00  0.00    +0.000 F 
ATOM     30  C   UNL     1       2.462   4.808  19.514  0.00  0.00    +0.000 A 
ENDBRANCH  20  23
ENDBRANCH   2  17
TORSDOF 3
ENDMDL
MODEL 5
REMARK VINA RESULT:      -8.5      7.680     11.016
REMARK  Name = 
REMARK  3 active torsions:
REMARK  status: ('A' for Active; 'I' for Inactive)
REMARK    1  A    between atoms: C_8  and  N_9
REMARK    2  A    between atoms: C_10  and  C_12
REMARK    3  A    between atoms: N_15  and  C_16
REMARK                            x       y       z     vdW  Elec       q    Type
REMARK                         _______ _______ _______ _____ _____    ______ ____
ROOT
ATOM      1  N   UNL     1       1.872   7.506  21.065  0.00  0.00    +0.000 N 
ATOM      2  C   UNL     1       1.392   8.703  20.535  0.00  0.00    +0.000 C 
ATOM      3  O   UNL     1       1.023   8.888  19.380  0.00  0.00    +0.000 OA
ATOM      4  H   UNL     1       2.119   7.509  22.047  0.00  0.00    +0.000 HD
ENDROOT
BRANCH   1  12
ATOM      5  O   UNL     1       5.245   3.541  16.212  0.00  0.00    +0.000 OA
ATOM      6  C   UNL     1       4.409   3.629  17.109  0.00  0.00    +0.000 C 
ATOM      7  C   UNL     1       3.641   2.425  17.656  0.00  0.00    +0.000 C 
ATOM      8  O   UNL     1       2.430   2.637  18.363  0.00  0.00    +0.000 OA
ATOM      9  C   UNL     1       2.359   3.838  19.013  0.00  0.00    +0.000 A 
ATOM     10  C   UNL     1       1.356   3.962  19.967  0.00  0.00    +0.000 A 
ATOM     11  C   UNL     1       1.183   5.164  20.660  0.00  0.00    +0.000 A 
ATOM     12  C   UNL     1       2.002   6.263  20.396  0.00  0.00    +0.000 A 
ATOM     13  C   UNL     1       3.006   6.140  19.418  0.00  0.00    +0.000 A 
ATOM     14  C   UNL     1       3.182   4.929  18.734  0.00  0.00    +0.000 A 
ATOM     15  N   UNL     1       4.163   4.816  17.745  0.00  0.00    +0.000 N 
ATOM     16  H   UNL     1       4.714   5.610  17.449  0.00  0.00    +0.000 HD
ENDBRANCH   1  12
BRANCH   2  17
ATOM     17  C   UNL     1       1.396   9.846  21.553  0.00  0.00    +0.000 C 
ATOM     18  C   UNL     1       0.607   9.490  22.827  0.00  0.00    +0.000 C 
ATOM     19  C   UNL     1      -0.895   9.752  22.731  0.00  0.00    +0.000 C 
ATOM     20  N   UNL     1      -1.125  11.095  22.199  0.00  0.00    +0.000 N 
ATOM     21  C   UNL     1      -0.600  11.295  20.847  0.00  0.00    +0.000 C 
ATOM     22  C   UNL     1       0.924  11.150  20.888  0.00  0.00    +0.000 C 
BRANCH  20  23
ATOM     23  C   UNL     1      -1.723  12.106  22.928  0.00  0.00    +0.000 A 
ATOM     24  C   UNL     1      -1.081  13.329  23.175  0.00  0.00    +0.000 A 
ATOM     25  C   UNL     1      -1.694  14.345  23.918  0.00  0.00    +0.000 A 
ATOM     26  F   UNL     1      -1.042  15.499  24.113  0.00  0.00    +0.000 F 
ATOM     27  C   UNL     1      -2.960  14.182  24.446  0.00  0.00    +0.000 A 
ATOM     28  C   UNL     1      -3.608  12.981  24.219  0.00  0.00    +0.000 A 
ATOM     29  F   UNL     1      -4.833  12.789  24.728  0.00  0.00    +0.000 F 
ATOM     30  C   UNL     1      -3.009  11.963  23.476  0.00  0.00    +0.000 A 
ENDBRANCH  20  23
ENDBRANCH   2  17
TORSDOF 3
ENDMDL
MODEL 6
REMARK VINA RESULT:      -8.4      1.376      1.495
REMARK  Name = 
REMARK  3 active torsions:
REMARK  status: ('A' for Active; 'I' for Inactive)
REMARK    1  A    between atoms: C_8  and  N_9
REMARK    2  A    between atoms: C_10  and  C_12
REMARK    3  A    between atoms: N_15  and  C_16
REMARK                            x       y       z     vdW  Elec       q    Type
REMARK                         _______ _______ _______ _____ _____    ______ ____
ROOT
ATOM      1  N   UNL     1       8.775   8.685  18.466  0.00  0.00    +0.000 N 
ATOM      2  C   UNL     1       7.700   8.355  17.641  0.00  0.00    +0.000 C 
ATOM      3  O   UNL     1       6.879   9.136  17.173  0.00  0.00    +0.000 OA
ATOM      4  H   UNL     1       9.379   7.925  18.754  0.00  0.00    +0.000 HD
ENDROOT
BRANCH   1  12
ATOM      5  O   UNL     1      10.903  15.274  16.822  0.00  0.00    +0.000 OA
ATOM      6  C   UNL     1      10.542  14.461  17.671  0.00  0.00    +0.000 C 
ATOM      7  C   UNL     1      10.309  14.830  19.136  0.00  0.00    +0.000 C 
ATOM      8  O   UNL     1      10.308  13.807  20.118  0.00  0.00    +0.000 OA
ATOM      9  C   UNL     1       9.912  12.582  19.657  0.00  0.00    +0.000 A 
ATOM     10  C   UNL     1       9.587  11.638  20.623  0.00  0.00    +0.000 A 
ATOM     11  C   UNL     1       9.203  10.346  20.249  0.00  0.00    +0.000 A 
ATOM     12  C   UNL     1       9.154   9.978  18.904  0.00  0.00    +0.000 A 
ATOM     13  C   UNL     1       9.500  10.932  17.928  0.00  0.00    +0.000 A 
ATOM     14  C   UNL     1       9.874  12.229  18.308  0.00  0.00    +0.000 A 
ATOM     15  N   UNL     1      10.241  13.167  17.340  0.00  0.00    +0.000 N 
ATOM     16  H   UNL     1      10.318  12.921  16.363  0.00  0.00    +0.000 HD
ENDBRANCH   1  12
BRANCH   2  17
ATOM     17  C   UNL     1       7.595   6.850  17.378  0.00  0.00    +0.000 C 
ATOM     18  C   UNL     1       6.361   6.496  16.525  0.00  0.00    +0.000 C 
ATOM     19  C   UNL     1       5.073   6.318  17.326  0.00  0.00    +0.000 C 
ATOM     20  N   UNL     1       5.324   5.440  18.469  0.00  0.00    +0.000 N 
ATOM     21  C   UNL     1       6.309   5.967  19.415  0.00  0.00    +0.000 C 
ATOM     22  C   UNL     1       7.661   6.075  18.705  0.00  0.00    +0.000 C 
BRANCH  20  23
ATOM     23  C   UNL     1       4.738   4.196  18.612  0.00  0.00    +0.000 A 
ATOM     24  C   UNL     1       3.827   3.687  17.675  0.00  0.00    +0.000 A 
ATOM     25  C   UNL     1       3.236   2.428  17.831  0.00  0.00    +0.000 A 
ATOM     26  F   UNL     1       2.382   1.984  16.900  0.00  0.00    +0.000 F 
ATOM     27  C   UNL     1       3.525   1.633  18.924  0.00  0.00    +0.000 A 
ATOM     28  C   UNL     1       4.416   2.118  19.863  0.00  0.00    +0.000 A 
ATOM     29  F   UNL     1       4.707   1.374  20.939  0.00  0.00    +0.000 F 
ATOM     30  C   UNL     1       5.015   3.370  19.715  0.00  0.00    +0.000 A 
ENDBRANCH  20  23
ENDBRANCH   2  17
TORSDOF 3
ENDMDL
MODEL 7
REMARK VINA RESULT:      -8.4      6.650      9.430
REMARK  Name = 
REMARK  3 active torsions:
REMARK  status: ('A' for Active; 'I' for Inactive)
REMARK    1  A    between atoms: C_8  and  N_9
REMARK    2  A    between atoms: C_10  and  C_12
REMARK    3  A    between atoms: N_15  and  C_16
REMARK                            x       y       z     vdW  Elec       q    Type
REMARK                         _______ _______ _______ _____ _____    ______ ____
ROOT
ATOM      1  N   UNL     1       1.999   7.772  18.844  0.00  0.00    +0.000 N 
ATOM      2  C   UNL     1       1.863   9.041  18.281  0.00  0.00    +0.000 C 
ATOM      3  O   UNL     1       2.686   9.613  17.576  0.00  0.00    +0.000 OA
ATOM      4  H   UNL     1       1.217   7.429  19.389  0.00  0.00    +0.000 HD
ENDROOT
BRANCH   1  12
ATOM      5  O   UNL     1       7.542   5.553  14.972  0.00  0.00    +0.000 OA
ATOM      6  C   UNL     1       6.882   5.487  16.007  0.00  0.00    +0.000 C 
ATOM      7  C   UNL     1       7.288   4.626  17.204  0.00  0.00    +0.000 C 
ATOM      8  O   UNL     1       6.309   4.268  18.165  0.00  0.00    +0.000 OA
ATOM      9  C   UNL     1       5.289   5.169  18.295  0.00  0.00    +0.000 A 
ATOM     10  C   UNL     1       4.492   5.037  19.425  0.00  0.00    +0.000 A 
ATOM     11  C   UNL     1       3.403   5.891  19.627  0.00  0.00    +0.000 A 
ATOM     12  C   UNL     1       3.090   6.880  18.694  0.00  0.00    +0.000 A 
ATOM     13  C   UNL     1       3.889   7.002  17.542  0.00  0.00    +0.000 A 
ATOM     14  C   UNL     1       4.986   6.149  17.349  0.00  0.00    +0.000 A 
ATOM     15  N   UNL     1       5.764   6.254  16.194  0.00  0.00    +0.000 N 
ATOM     16  H   UNL     1       5.519   6.885  15.443  0.00  0.00    +0.000 HD
ENDBRANCH   1  12
BRANCH   2  17
ATOM     17  C   UNL     1       0.547   9.721  18.665  0.00  0.00    +0.000 C 
ATOM     18  C   UNL     1       0.635  11.256  18.559  0.00  0.00    +0.000 C 
ATOM     19  C   UNL     1       1.203  11.941  19.800  0.00  0.00    +0.000 C 
ATOM     20  N   UNL     1       0.531  11.427  20.994  0.00  0.00    +0.000 N 
ATOM     21  C   UNL     1       0.722   9.992  21.210  0.00  0.00    +0.000 C 
ATOM     22  C   UNL     1       0.080   9.232  20.046  0.00  0.00    +0.000 C 
BRANCH  20  23
ATOM     23  C   UNL     1      -0.269  12.208  21.808  0.00  0.00    +0.000 A 
ATOM     24  C   UNL     1      -0.014  13.572  22.019  0.00  0.00    +0.000 A 
ATOM     25  C   UNL     1      -0.828  14.352  22.848  0.00  0.00    +0.000 A 
ATOM     26  F   UNL     1      -0.548  15.653  23.006  0.00  0.00    +0.000 F 
ATOM     27  C   UNL     1      -1.917  13.808  23.501  0.00  0.00    +0.000 A 
ATOM     28  C   UNL     1      -2.182  12.464  23.311  0.00  0.00    +0.000 A 
ATOM     29  F   UNL     1      -3.225  11.905  23.940  0.00  0.00    +0.000 F 
ATOM     30  C   UNL     1      -1.381  11.676  22.483  0.00  0.00    +0.000 A 
ENDBRANCH  20  23
ENDBRANCH   2  17
TORSDOF 3
ENDMDL
MODEL 8
REMARK VINA RESULT:      -8.4      7.728     11.010
REMARK  Name = 
REMARK  3 active torsions:
REMARK  status: ('A' for Active; 'I' for Inactive)
REMARK    1  A    between atoms: C_8  and  N_9
REMARK    2  A    between atoms: C_10  and  C_12
REMARK    3  A    between atoms: N_15  and  C_16
REMARK                            x       y       z     vdW  Elec       q    Type
REMARK                         _______ _______ _______ _____ _____    ______ ____
ROOT
ATOM      1  N   UNL     1       1.843   7.689  20.988  0.00  0.00    +0.000 N 
ATOM      2  C   UNL     1       1.365   8.873  20.427  0.00  0.00    +0.000 C 
ATOM      3  O   UNL     1       0.999   9.029  19.267  0.00  0.00    +0.000 OA
ATOM      4  H   UNL     1       2.087   7.717  21.971  0.00  0.00    +0.000 HD
ENDROOT
BRANCH   1  12
ATOM      5  O   UNL     1       5.189   3.618  16.206  0.00  0.00    +0.000 OA
ATOM      6  C   UNL     1       4.362   3.724  17.110  0.00  0.00    +0.000 C 
ATOM      7  C   UNL     1       3.609   2.530  17.697  0.00  0.00    +0.000 C 
ATOM      8  O   UNL     1       2.404   2.754  18.411  0.00  0.00    +0.000 OA
ATOM      9  C   UNL     1       2.332   3.970  19.030  0.00  0.00    +0.000 A 
ATOM     10  C   UNL     1       1.338   4.114  19.992  0.00  0.00    +0.000 A 
ATOM     11  C   UNL     1       1.165   5.333  20.654  0.00  0.00    +0.000 A 
ATOM     12  C   UNL     1       1.974   6.430  20.352  0.00  0.00    +0.000 A 
ATOM     13  C   UNL     1       2.968   6.287  19.366  0.00  0.00    +0.000 A 
ATOM     14  C   UNL     1       3.144   5.059  18.713  0.00  0.00    +0.000 A 
ATOM     15  N   UNL     1       4.115   4.926  17.717  0.00  0.00    +0.000 N 
ATOM     16  H   UNL     1       4.657   5.715  17.393  0.00  0.00    +0.000 HD
ENDBRANCH   1  12
BRANCH   2  17
ATOM     17  C   UNL     1       1.367  10.041  21.416  0.00  0.00    +0.000 C 
ATOM     18  C   UNL     1       0.686   9.674  22.748  0.00  0.00    +0.000 C 
ATOM     19  C   UNL     1      -0.831   9.844  22.747  0.00  0.00    +0.000 C 
ATOM     20  N   UNL     1      -1.177  11.156  22.201  0.00  0.00    +0.000 N 
ATOM     21  C   UNL     1      -0.756  11.351  20.813  0.00  0.00    +0.000 C 
ATOM     22  C   UNL     1       0.774  11.296  20.754  0.00  0.00    +0.000 C 
BRANCH  20  23
ATOM     23  C   UNL     1      -1.786  12.150  22.946  0.00  0.00    +0.000 A 
ATOM     24  C   UNL     1      -3.099  12.027  23.425  0.00  0.00    +0.000 A 
ATOM     25  C   UNL     1      -3.707  13.040  24.175  0.00  0.00    +0.000 A 
ATOM     26  F   UNL     1      -4.959  12.867  24.619  0.00  0.00    +0.000 F 
ATOM     27  C   UNL     1      -3.037  14.212  24.470  0.00  0.00    +0.000 A 
ATOM     28  C   UNL     1      -1.744  14.356  24.002  0.00  0.00    +0.000 A 
ATOM     29  F   UNL     1      -1.072  15.487  24.264  0.00  0.00    +0.000 F 
ATOM     30  C   UNL     1      -1.125  13.351  23.258  0.00  0.00    +0.000 A 
ENDBRANCH  20  23
ENDBRANCH   2  17
TORSDOF 3
ENDMDL
MODEL 9
REMARK VINA RESULT:      -8.3      6.026      7.367
REMARK  Name = 
REMARK  3 active torsions:
REMARK  status: ('A' for Active; 'I' for Inactive)
REMARK    1  A    between atoms: C_8  and  N_9
REMARK    2  A    between atoms: C_10  and  C_12
REMARK    3  A    between atoms: N_15  and  C_16
REMARK                            x       y       z     vdW  Elec       q    Type
REMARK                         _______ _______ _______ _____ _____    ______ ____
ROOT
ATOM      1  N   UNL     1       3.387   6.696  19.045  0.00  0.00    +0.000 N 
ATOM      2  C   UNL     1       3.634   5.384  19.446  0.00  0.00    +0.000 C 
ATOM      3  O   UNL     1       3.018   4.760  20.303  0.00  0.00    +0.000 OA
ATOM      4  H   UNL     1       3.972   7.065  18.305  0.00  0.00    +0.000 HD
ENDROOT
BRANCH   1  12
ATOM      5  O   UNL     1      -0.754  12.379  17.943  0.00  0.00    +0.000 OA
ATOM      6  C   UNL     1      -0.451  11.411  18.638  0.00  0.00    +0.000 C 
ATOM      7  C   UNL     1      -1.239  10.995  19.880  0.00  0.00    +0.000 C 
ATOM      8  O   UNL     1      -0.620  10.162  20.848  0.00  0.00    +0.000 OA
ATOM      9  C   UNL     1       0.340   9.329  20.345  0.00  0.00    +0.000 A 
ATOM     10  C   UNL     1       0.742   8.285  21.170  0.00  0.00    +0.000 A 
ATOM     11  C   UNL     1       1.743   7.401  20.755  0.00  0.00    +0.000 A 
ATOM     12  C   UNL     1       2.366   7.559  19.516  0.00  0.00    +0.000 A 
ATOM     13  C   UNL     1       1.969   8.627  18.690  0.00  0.00    +0.000 A 
ATOM     14  C   UNL     1       0.957   9.504  19.106  0.00  0.00    +0.000 A 
ATOM     15  N   UNL     1       0.581  10.578  18.295  0.00  0.00    +0.000 N 
ATOM     16  H   UNL     1       1.068  10.793  17.437  0.00  0.00    +0.000 HD
ENDBRANCH   1  12
BRANCH   2  17
ATOM     17  C   UNL     1       4.826   4.757  18.719  0.00  0.00    +0.000 C 
ATOM     18  C   UNL     1       5.732   5.819  18.067  0.00  0.00    +0.000 C 
ATOM     19  C   UNL     1       5.281   6.263  16.676  0.00  0.00    +0.000 C 
ATOM     20  N   UNL     1       4.994   5.086  15.856  0.00  0.00    +0.000 N 
ATOM     21  C   UNL     1       3.911   4.250  16.376  0.00  0.00    +0.000 C 
ATOM     22  C   UNL     1       4.340   3.682  17.732  0.00  0.00    +0.000 C 
BRANCH  20  23
ATOM     23  C   UNL     1       5.722   4.753  14.728  0.00  0.00    +0.000 A 
ATOM     24  C   UNL     1       6.934   5.385  14.408  0.00  0.00    +0.000 A 
ATOM     25  C   UNL     1       7.661   5.043  13.262  0.00  0.00    +0.000 A 
ATOM     26  F   UNL     1       8.819   5.668  13.009  0.00  0.00    +0.000 F 
ATOM     27  C   UNL     1       7.211   4.069  12.392  0.00  0.00    +0.000 A 
ATOM     28  C   UNL     1       6.016   3.438  12.686  0.00  0.00    +0.000 A 
ATOM     29  F   UNL     1       5.548   2.497  11.855  0.00  0.00    +0.000 F 
ATOM     30  C   UNL     1       5.284   3.767  13.828  0.00  0.00    +0.000 A 
ENDBRANCH  20  23
ENDBRANCH   2  17
TORSDOF 3
ENDMDL
