MODEL 1
REMARK VINA RESULT:      -7.2      0.000      0.000
REMARK  Name = 
REMARK  5 active torsions:
REMARK  status: ('A' for Active; 'I' for Inactive)
REMARK    1  A    between atoms: C_2  and  C_3
REMARK    2  A    between atoms: N_5  and  C_6
REMARK    3  A    between atoms: C_6  and  C_7
REMARK    4  A    between atoms: C_7  and  O_8
REMARK    5  A    between atoms: O_8  and  C_9
REMARK                            x       y       z     vdW  Elec       q    Type
REMARK                         _______ _______ _______ _____ _____    ______ ____
ROOT
ATOM      1  C   UNL     1       3.679   6.838  17.751  0.00  0.00    +0.000 A 
ATOM      2  C   UNL     1       5.053   6.901  17.841  0.00  0.00    +0.000 A 
ATOM      3  N   UNL     1       5.528   5.620  17.976  0.00  0.00    +0.000 N 
ATOM      4  C   UNL     1       4.479   4.721  17.956  0.00  0.00    +0.000 A 
ATOM      5  C   UNL     1       4.457   3.319  18.041  0.00  0.00    +0.000 A 
ATOM      6  C   UNL     1       3.218   2.672  18.004  0.00  0.00    +0.000 A 
ATOM      7  C   UNL     1       2.035   3.394  17.880  0.00  0.00    +0.000 A 
ATOM      8  C   UNL     1       2.063   4.788  17.785  0.00  0.00    +0.000 A 
ATOM      9  C   UNL     1       3.300   5.468  17.823  0.00  0.00    +0.000 A 
ENDROOT
BRANCH   1  11
ATOM     10  N   UNL     1       2.108   8.882  17.488  0.00  0.00    +0.000 NA
ATOM     11  C   UNL     1       2.811   7.966  17.607  0.00  0.00    +0.000 C 
ENDBRANCH   1  11
BRANCH   3  12
ATOM     12  C   UNL     1       6.942   5.281  18.088  0.00  0.00    +0.000 C 
BRANCH  12  13
ATOM     13  C   UNL     1       7.443   4.616  16.812  0.00  0.00    +0.000 C 
BRANCH  13  14
ATOM     14  O   UNL     1       7.266   5.478  15.680  0.00  0.00    +0.000 OA
BRANCH  14  15
ATOM     15  C   UNL     1       6.832   4.854  14.535  0.00  0.00    +0.000 A 
ATOM     16  C   UNL     1       7.542   4.812  13.325  0.00  0.00    +0.000 A 
ATOM     17  C   UNL     1       7.006   4.166  12.209  0.00  0.00    +0.000 A 
ATOM     18  C   UNL     1       5.764   3.555  12.301  0.00  0.00    +0.000 A 
ATOM     19  F   UNL     1       5.253   2.943  11.225  0.00  0.00    +0.000 F 
ATOM     20  C   UNL     1       5.050   3.574  13.492  0.00  0.00    +0.000 A 
ATOM     21  C   UNL     1       5.585   4.227  14.609  0.00  0.00    +0.000 A 
ENDBRANCH  14  15
ENDBRANCH  13  14
ENDBRANCH  12  13
ENDBRANCH   3  12
TORSDOF 5
ENDMDL
MODEL 2
REMARK VINA RESULT:      -7.2      3.425      5.129
REMARK  Name = 
REMARK  5 active torsions:
REMARK  status: ('A' for Active; 'I' for Inactive)
REMARK    1  A    between atoms: C_2  and  C_3
REMARK    2  A    between atoms: N_5  and  C_6
REMARK    3  A    between atoms: C_6  and  C_7
REMARK    4  A    between atoms: C_7  and  O_8
REMARK    5  A    between atoms: O_8  and  C_9
REMARK                            x       y       z     vdW  Elec       q    Type
REMARK                         _______ _______ _______ _____ _____    ______ ____
ROOT
ATOM      1  C   UNL     1       2.005   3.677  20.280  0.00  0.00    +0.000 A 
ATOM      2  C   UNL     1       2.473   3.024  19.159  0.00  0.00    +0.000 A 
ATOM      3  N   UNL     1       2.773   3.972  18.212  0.00  0.00    +0.000 N 
ATOM      4  C   UNL     1       2.523   5.236  18.710  0.00  0.00    +0.000 A 
ATOM      5  C   UNL     1       2.686   6.508  18.136  0.00  0.00    +0.000 A 
ATOM      6  C   UNL     1       2.330   7.628  18.895  0.00  0.00    +0.000 A 
ATOM      7  C   UNL     1       1.831   7.490  20.186  0.00  0.00    +0.000 A 
ATOM      8  C   UNL     1       1.679   6.223  20.756  0.00  0.00    +0.000 A 
ATOM      9  C   UNL     1       2.029   5.075  20.012  0.00  0.00    +0.000 A 
ENDROOT
BRANCH   1  11
ATOM     10  N   UNL     1       1.234   2.517  22.465  0.00  0.00    +0.000 NA
ATOM     11  C   UNL     1       1.580   3.038  21.487  0.00  0.00    +0.000 C 
ENDBRANCH   1  11
BRANCH   3  12
ATOM     12  C   UNL     1       3.309   3.664  16.891  0.00  0.00    +0.000 C 
BRANCH  12  13
ATOM     13  C   UNL     1       4.831   3.624  16.919  0.00  0.00    +0.000 C 
BRANCH  13  14
ATOM     14  O   UNL     1       5.387   4.762  16.248  0.00  0.00    +0.000 OA
BRANCH  14  15
ATOM     15  C   UNL     1       6.285   5.495  16.989  0.00  0.00    +0.000 A 
ATOM     16  C   UNL     1       7.048   4.991  18.053  0.00  0.00    +0.000 A 
ATOM     17  C   UNL     1       7.922   5.822  18.756  0.00  0.00    +0.000 A 
ATOM     18  C   UNL     1       8.040   7.155  18.395  0.00  0.00    +0.000 A 
ATOM     19  F   UNL     1       8.875   7.949  19.078  0.00  0.00    +0.000 F 
ATOM     20  C   UNL     1       7.303   7.672  17.337  0.00  0.00    +0.000 A 
ATOM     21  C   UNL     1       6.423   6.840  16.635  0.00  0.00    +0.000 A 
ENDBRANCH  14  15
ENDBRANCH  13  14
ENDBRANCH  12  13
ENDBRANCH   3  12
TORSDOF 5
ENDMDL
MODEL 3
REMARK VINA RESULT:      -7.1      3.328      4.998
REMARK  Name = 
REMARK  5 active torsions:
REMARK  status: ('A' for Active; 'I' for Inactive)
REMARK    1  A    between atoms: C_2  and  C_3
REMARK    2  A    between atoms: N_5  and  C_6
REMARK    3  A    between atoms: C_6  and  C_7
REMARK    4  A    between atoms: C_7  and  O_8
REMARK    5  A    between atoms: O_8  and  C_9
REMARK                            x       y       z     vdW  Elec       q    Type
REMARK                         _______ _______ _______ _____ _____    ______ ____
ROOT
ATOM      1  C   UNL     1       2.209   3.908  20.216  0.00  0.00    +0.000 A 
ATOM      2  C   UNL     1       2.786   3.383  19.078  0.00  0.00    +0.000 A 
ATOM      3  N   UNL     1       3.026   4.418  18.209  0.00  0.00    +0.000 N 
ATOM      4  C   UNL     1       2.629   5.615  18.775  0.00  0.00    +0.000 A 
ATOM      5  C   UNL     1       2.686   6.933  18.292  0.00  0.00    +0.000 A 
ATOM      6  C   UNL     1       2.187   7.957  19.103  0.00  0.00    +0.000 A 
ATOM      7  C   UNL     1       1.653   7.683  20.358  0.00  0.00    +0.000 A 
ATOM      8  C   UNL     1       1.608   6.371  20.838  0.00  0.00    +0.000 A 
ATOM      9  C   UNL     1       2.102   5.316  20.039  0.00  0.00    +0.000 A 
ENDROOT
BRANCH   1  11
ATOM     10  N   UNL     1       1.472   2.535  22.286  0.00  0.00    +0.000 NA
ATOM     11  C   UNL     1       1.803   3.149  21.358  0.00  0.00    +0.000 C 
ENDBRANCH   1  11
BRANCH   3  12
ATOM     12  C   UNL     1       3.643   4.256  16.898  0.00  0.00    +0.000 C 
BRANCH  12  13
ATOM     13  C   UNL     1       4.886   3.379  16.987  0.00  0.00    +0.000 C 
BRANCH  13  14
ATOM     14  O   UNL     1       5.978   3.960  16.264  0.00  0.00    +0.000 OA
BRANCH  14  15
ATOM     15  C   UNL     1       6.608   5.003  16.899  0.00  0.00    +0.000 A 
ATOM     16  C   UNL     1       6.635   6.327  16.434  0.00  0.00    +0.000 A 
ATOM     17  C   UNL     1       7.320   7.315  17.145  0.00  0.00    +0.000 A 
ATOM     18  C   UNL     1       7.974   6.985  18.322  0.00  0.00    +0.000 A 
ATOM     19  F   UNL     1       8.635   7.935  18.995  0.00  0.00    +0.000 F 
ATOM     20  C   UNL     1       7.950   5.683  18.806  0.00  0.00    +0.000 A 
ATOM     21  C   UNL     1       7.268   4.692  18.091  0.00  0.00    +0.000 A 
ENDBRANCH  14  15
ENDBRANCH  13  14
ENDBRANCH  12  13
ENDBRANCH   3  12
TORSDOF 5
ENDMDL
MODEL 4
REMARK VINA RESULT:      -7.0      3.010      4.193
REMARK  Name = 
REMARK  5 active torsions:
REMARK  status: ('A' for Active; 'I' for Inactive)
REMARK    1  A    between atoms: C_2  and  C_3
REMARK    2  A    between atoms: N_5  and  C_6
REMARK    3  A    between atoms: C_6  and  C_7
REMARK    4  A    between atoms: C_7  and  O_8
REMARK    5  A    between atoms: O_8  and  C_9
REMARK                            x       y       z     vdW  Elec       q    Type
REMARK                         _______ _______ _______ _____ _____    ______ ____
ROOT
ATOM      1  C   UNL     1       2.696   6.133  18.660  0.00  0.00    +0.000 A 
ATOM      2  C   UNL     1       3.368   5.629  17.566  0.00  0.00    +0.000 A 
ATOM      3  N   UNL     1       3.581   4.290  17.779  0.00  0.00    +0.000 N 
ATOM      4  C   UNL     1       3.039   3.910  18.992  0.00  0.00    +0.000 A 
ATOM      5  C   UNL     1       2.986   2.662  19.634  0.00  0.00    +0.000 A 
ATOM      6  C   UNL     1       2.368   2.587  20.887  0.00  0.00    +0.000 A 
ATOM      7  C   UNL     1       1.815   3.716  21.482  0.00  0.00    +0.000 A 
ATOM      8  C   UNL     1       1.862   4.954  20.835  0.00  0.00    +0.000 A 
ATOM      9  C   UNL     1       2.481   5.060  19.570  0.00  0.00    +0.000 A 
ENDROOT
BRANCH   1  11
ATOM     10  N   UNL     1       1.966   8.601  18.955  0.00  0.00    +0.000 NA
ATOM     11  C   UNL     1       2.294   7.495  18.824  0.00  0.00    +0.000 C 
ENDBRANCH   1  11
BRANCH   3  12
ATOM     12  C   UNL     1       4.254   3.410  16.831  0.00  0.00    +0.000 C 
BRANCH  12  13
ATOM     13  C   UNL     1       5.213   4.197  15.946  0.00  0.00    +0.000 C 
BRANCH  13  14
ATOM     14  O   UNL     1       6.569   4.021  16.375  0.00  0.00    +0.000 OA
BRANCH  14  15
ATOM     15  C   UNL     1       7.094   5.071  17.091  0.00  0.00    +0.000 A 
ATOM     16  C   UNL     1       7.651   4.969  18.375  0.00  0.00    +0.000 A 
ATOM     17  C   UNL     1       8.145   6.100  19.027  0.00  0.00    +0.000 A 
ATOM     18  C   UNL     1       8.088   7.334  18.397  0.00  0.00    +0.000 A 
ATOM     19  F   UNL     1       8.557   8.417  19.032  0.00  0.00    +0.000 F 
ATOM     20  C   UNL     1       7.552   7.457  17.122  0.00  0.00    +0.000 A 
ATOM     21  C   UNL     1       7.053   6.323  16.470  0.00  0.00    +0.000 A 
ENDBRANCH  14  15
ENDBRANCH  13  14
ENDBRANCH  12  13
ENDBRANCH   3  12
TORSDOF 5
ENDMDL
MODEL 5
REMARK VINA RESULT:      -6.9      0.307      1.091
REMARK  Name = 
REMARK  5 active torsions:
REMARK  status: ('A' for Active; 'I' for Inactive)
REMARK    1  A    between atoms: C_2  and  C_3
REMARK    2  A    between atoms: N_5  and  C_6
REMARK    3  A    between atoms: C_6  and  C_7
REMARK    4  A    between atoms: C_7  and  O_8
REMARK    5  A    between atoms: O_8  and  C_9
REMARK                            x       y       z     vdW  Elec       q    Type
REMARK                         _______ _______ _______ _____ _____    ______ ____
ROOT
ATOM      1  C   UNL     1       3.550   6.867  17.865  0.00  0.00    +0.000 A 
ATOM      2  C   UNL     1       4.914   6.973  18.033  0.00  0.00    +0.000 A 
ATOM      3  N   UNL     1       5.419   5.709  18.213  0.00  0.00    +0.000 N 
ATOM      4  C   UNL     1       4.400   4.778  18.145  0.00  0.00    +0.000 A 
ATOM      5  C   UNL     1       4.416   3.377  18.249  0.00  0.00    +0.000 A 
ATOM      6  C   UNL     1       3.200   2.692  18.149  0.00  0.00    +0.000 A 
ATOM      7  C   UNL     1       2.006   3.375  17.946  0.00  0.00    +0.000 A 
ATOM      8  C   UNL     1       1.997   4.769  17.834  0.00  0.00    +0.000 A 
ATOM      9  C   UNL     1       3.209   5.487  17.934  0.00  0.00    +0.000 A 
ENDROOT
BRANCH   1  11
ATOM     10  N   UNL     1       1.936   8.859  17.487  0.00  0.00    +0.000 NA
ATOM     11  C   UNL     1       2.659   7.965  17.655  0.00  0.00    +0.000 C 
ENDBRANCH   1  11
BRANCH   3  12
ATOM     12  C   UNL     1       6.833   5.415  18.411  0.00  0.00    +0.000 C 
BRANCH  12  13
ATOM     13  C   UNL     1       7.383   4.587  17.257  0.00  0.00    +0.000 C 
BRANCH  13  14
ATOM     14  O   UNL     1       7.467   5.369  16.059  0.00  0.00    +0.000 OA
BRANCH  14  15
ATOM     15  C   UNL     1       6.886   4.802  14.949  0.00  0.00    +0.000 A 
ATOM     16  C   UNL     1       5.693   4.063  14.957  0.00  0.00    +0.000 A 
ATOM     17  C   UNL     1       5.192   3.511  13.777  0.00  0.00    +0.000 A 
ATOM     18  C   UNL     1       5.877   3.700  12.586  0.00  0.00    +0.000 A 
ATOM     19  F   UNL     1       5.395   3.161  11.459  0.00  0.00    +0.000 F 
ATOM     20  C   UNL     1       7.054   4.437  12.554  0.00  0.00    +0.000 A 
ATOM     21  C   UNL     1       7.559   4.987  13.738  0.00  0.00    +0.000 A 
ENDBRANCH  14  15
ENDBRANCH  13  14
ENDBRANCH  12  13
ENDBRANCH   3  12
TORSDOF 5
ENDMDL
MODEL 6
REMARK VINA RESULT:      -6.7      3.136      4.328
REMARK  Name = 
REMARK  5 active torsions:
REMARK  status: ('A' for Active; 'I' for Inactive)
REMARK    1  A    between atoms: C_2  and  C_3
REMARK    2  A    between atoms: N_5  and  C_6
REMARK    3  A    between atoms: C_6  and  C_7
REMARK    4  A    between atoms: C_7  and  O_8
REMARK    5  A    between atoms: O_8  and  C_9
REMARK                            x       y       z     vdW  Elec       q    Type
REMARK                         _______ _______ _______ _____ _____    ______ ____
ROOT
ATOM      1  C   UNL     1       2.531   6.140  18.668  0.00  0.00    +0.000 A 
ATOM      2  C   UNL     1       3.259   5.748  17.565  0.00  0.00    +0.000 A 
ATOM      3  N   UNL     1       3.360   4.379  17.589  0.00  0.00    +0.000 N 
ATOM      4  C   UNL     1       2.690   3.873  18.687  0.00  0.00    +0.000 A 
ATOM      5  C   UNL     1       2.496   2.554  19.127  0.00  0.00    +0.000 A 
ATOM      6  C   UNL     1       1.769   2.349  20.305  0.00  0.00    +0.000 A 
ATOM      7  C   UNL     1       1.246   3.420  21.020  0.00  0.00    +0.000 A 
ATOM      8  C   UNL     1       1.434   4.731  20.572  0.00  0.00    +0.000 A 
ATOM      9  C   UNL     1       2.165   4.968  19.388  0.00  0.00    +0.000 A 
ENDROOT
BRANCH   1  11
ATOM     10  N   UNL     1       1.950   8.591  19.278  0.00  0.00    +0.000 NA
ATOM     11  C   UNL     1       2.212   7.493  19.005  0.00  0.00    +0.000 C 
ENDBRANCH   1  11
BRANCH   3  12
ATOM     12  C   UNL     1       4.050   3.594  16.573  0.00  0.00    +0.000 C 
BRANCH  12  13
ATOM     13  C   UNL     1       5.430   4.170  16.286  0.00  0.00    +0.000 C 
BRANCH  13  14
ATOM     14  O   UNL     1       6.241   4.174  17.468  0.00  0.00    +0.000 OA
BRANCH  14  15
ATOM     15  C   UNL     1       6.859   5.370  17.746  0.00  0.00    +0.000 A 
ATOM     16  C   UNL     1       6.759   6.528  16.960  0.00  0.00    +0.000 A 
ATOM     17  C   UNL     1       7.442   7.691  17.320  0.00  0.00    +0.000 A 
ATOM     18  C   UNL     1       8.221   7.703  18.467  0.00  0.00    +0.000 A 
ATOM     19  F   UNL     1       8.879   8.820  18.803  0.00  0.00    +0.000 F 
ATOM     20  C   UNL     1       8.324   6.572  19.266  0.00  0.00    +0.000 A 
ATOM     21  C   UNL     1       7.644   5.403  18.903  0.00  0.00    +0.000 A 
ENDBRANCH  14  15
ENDBRANCH  13  14
ENDBRANCH  12  13
ENDBRANCH   3  12
TORSDOF 5
ENDMDL
MODEL 7
REMARK VINA RESULT:      -6.7      3.694      6.580
REMARK  Name = 
REMARK  5 active torsions:
REMARK  status: ('A' for Active; 'I' for Inactive)
REMARK    1  A    between atoms: C_2  and  C_3
REMARK    2  A    between atoms: N_5  and  C_6
REMARK    3  A    between atoms: C_6  and  C_7
REMARK    4  A    between atoms: C_7  and  O_8
REMARK    5  A    between atoms: O_8  and  C_9
REMARK                            x       y       z     vdW  Elec       q    Type
REMARK                         _______ _______ _______ _____ _____    ______ ____
ROOT
ATOM      1  C   UNL     1       6.625   4.830  15.391  0.00  0.00    +0.000 A 
ATOM      2  C   UNL     1       5.548   3.970  15.391  0.00  0.00    +0.000 A 
ATOM      3  N   UNL     1       5.118   3.828  16.687  0.00  0.00    +0.000 N 
ATOM      4  C   UNL     1       5.892   4.602  17.531  0.00  0.00    +0.000 A 
ATOM      5  C   UNL     1       5.833   4.802  18.920  0.00  0.00    +0.000 A 
ATOM      6  C   UNL     1       6.776   5.652  19.507  0.00  0.00    +0.000 A 
ATOM      7  C   UNL     1       7.746   6.287  18.739  0.00  0.00    +0.000 A 
ATOM      8  C   UNL     1       7.795   6.092  17.355  0.00  0.00    +0.000 A 
ATOM      9  C   UNL     1       6.856   5.238  16.736  0.00  0.00    +0.000 A 
ENDROOT
BRANCH   1  11
ATOM     10  N   UNL     1       7.956   5.556  13.290  0.00  0.00    +0.000 NA
ATOM     11  C   UNL     1       7.360   5.230  14.232  0.00  0.00    +0.000 C 
ENDBRANCH   1  11
BRANCH   3  12
ATOM     12  C   UNL     1       3.985   3.001  17.085  0.00  0.00    +0.000 C 
BRANCH  12  13
ATOM     13  C   UNL     1       2.667   3.694  16.761  0.00  0.00    +0.000 C 
BRANCH  13  14
ATOM     14  O   UNL     1       2.342   4.671  17.758  0.00  0.00    +0.000 OA
BRANCH  14  15
ATOM     15  C   UNL     1       2.041   4.161  18.998  0.00  0.00    +0.000 A 
ATOM     16  C   UNL     1       2.533   4.663  20.213  0.00  0.00    +0.000 A 
ATOM     17  C   UNL     1       2.181   4.062  21.423  0.00  0.00    +0.000 A 
ATOM     18  C   UNL     1       1.335   2.964  21.424  0.00  0.00    +0.000 A 
ATOM     19  F   UNL     1       1.007   2.388  22.588  0.00  0.00    +0.000 F 
ATOM     20  C   UNL     1       0.828   2.458  20.234  0.00  0.00    +0.000 A 
ATOM     21  C   UNL     1       1.184   3.057  19.020  0.00  0.00    +0.000 A 
ENDBRANCH  14  15
ENDBRANCH  13  14
ENDBRANCH  12  13
ENDBRANCH   3  12
TORSDOF 5
ENDMDL
MODEL 8
REMARK VINA RESULT:      -6.6      1.544      2.786
REMARK  Name = 
REMARK  5 active torsions:
REMARK  status: ('A' for Active; 'I' for Inactive)
REMARK    1  A    between atoms: C_2  and  C_3
REMARK    2  A    between atoms: N_5  and  C_6
REMARK    3  A    between atoms: C_6  and  C_7
REMARK    4  A    between atoms: C_7  and  O_8
REMARK    5  A    between atoms: O_8  and  C_9
REMARK                            x       y       z     vdW  Elec       q    Type
REMARK                         _______ _______ _______ _____ _____    ______ ____
ROOT
ATOM      1  C   UNL     1       4.003   4.183  19.389  0.00  0.00    +0.000 A 
ATOM      2  C   UNL     1       5.362   4.050  19.200  0.00  0.00    +0.000 A 
ATOM      3  N   UNL     1       5.798   5.134  18.479  0.00  0.00    +0.000 N 
ATOM      4  C   UNL     1       4.739   5.982  18.212  0.00  0.00    +0.000 A 
ATOM      5  C   UNL     1       4.684   7.210  17.532  0.00  0.00    +0.000 A 
ATOM      6  C   UNL     1       3.443   7.843  17.408  0.00  0.00    +0.000 A 
ATOM      7  C   UNL     1       2.292   7.277  17.947  0.00  0.00    +0.000 A 
ATOM      8  C   UNL     1       2.354   6.060  18.632  0.00  0.00    +0.000 A 
ATOM      9  C   UNL     1       3.594   5.397  18.770  0.00  0.00    +0.000 A 
ENDROOT
BRANCH   1  11
ATOM     10  N   UNL     1       2.501   2.497  20.662  0.00  0.00    +0.000 NA
ATOM     11  C   UNL     1       3.175   3.252  20.090  0.00  0.00    +0.000 C 
ENDBRANCH   1  11
BRANCH   3  12
ATOM     12  C   UNL     1       7.187   5.354  18.094  0.00  0.00    +0.000 C 
BRANCH  12  13
ATOM     13  C   UNL     1       7.517   4.609  16.807  0.00  0.00    +0.000 C 
BRANCH  13  14
ATOM     14  O   UNL     1       7.364   5.461  15.666  0.00  0.00    +0.000 OA
BRANCH  14  15
ATOM     15  C   UNL     1       6.870   4.846  14.540  0.00  0.00    +0.000 A 
ATOM     16  C   UNL     1       7.528   4.788  13.302  0.00  0.00    +0.000 A 
ATOM     17  C   UNL     1       6.933   4.153  12.211  0.00  0.00    +0.000 A 
ATOM     18  C   UNL     1       5.683   3.569  12.354  0.00  0.00    +0.000 A 
ATOM     19  F   UNL     1       5.115   2.967  11.301  0.00  0.00    +0.000 F 
ATOM     20  C   UNL     1       5.019   3.605  13.573  0.00  0.00    +0.000 A 
ATOM     21  C   UNL     1       5.614   4.246  14.666  0.00  0.00    +0.000 A 
ENDBRANCH  14  15
ENDBRANCH  13  14
ENDBRANCH  12  13
ENDBRANCH   3  12
TORSDOF 5
ENDMDL
MODEL 9
REMARK VINA RESULT:      -6.6      3.419      6.465
REMARK  Name = 
REMARK  5 active torsions:
REMARK  status: ('A' for Active; 'I' for Inactive)
REMARK    1  A    between atoms: C_2  and  C_3
REMARK    2  A    between atoms: N_5  and  C_6
REMARK    3  A    between atoms: C_6  and  C_7
REMARK    4  A    between atoms: C_7  and  O_8
REMARK    5  A    between atoms: O_8  and  C_9
REMARK                            x       y       z     vdW  Elec       q    Type
REMARK                         _______ _______ _______ _____ _____    ______ ____
ROOT
ATOM      1  C   UNL     1       5.237   4.150  16.047  0.00  0.00    +0.000 A 
ATOM      2  C   UNL     1       4.140   3.622  16.694  0.00  0.00    +0.000 A 
ATOM      3  N   UNL     1       4.264   3.898  18.033  0.00  0.00    +0.000 N 
ATOM      4  C   UNL     1       5.422   4.616  18.264  0.00  0.00    +0.000 A 
ATOM      5  C   UNL     1       5.968   5.138  19.449  0.00  0.00    +0.000 A 
ATOM      6  C   UNL     1       7.184   5.825  19.370  0.00  0.00    +0.000 A 
ATOM      7  C   UNL     1       7.836   5.993  18.153  0.00  0.00    +0.000 A 
ATOM      8  C   UNL     1       7.283   5.480  16.976  0.00  0.00    +0.000 A 
ATOM      9  C   UNL     1       6.057   4.781  17.026  0.00  0.00    +0.000 A 
ENDROOT
BRANCH   1  11
ATOM     10  N   UNL     1       5.684   4.001  13.499  0.00  0.00    +0.000 NA
ATOM     11  C   UNL     1       5.482   4.068  14.641  0.00  0.00    +0.000 C 
ENDBRANCH   1  11
BRANCH   3  12
ATOM     12  C   UNL     1       3.284   3.508  19.041  0.00  0.00    +0.000 C 
BRANCH  12  13
ATOM     13  C   UNL     1       2.230   4.593  19.222  0.00  0.00    +0.000 C 
BRANCH  13  14
ATOM     14  O   UNL     1       2.738   5.677  20.009  0.00  0.00    +0.000 OA
BRANCH  14  15
ATOM     15  C   UNL     1       2.326   6.928  19.616  0.00  0.00    +0.000 A 
ATOM     16  C   UNL     1       1.600   7.822  20.417  0.00  0.00    +0.000 A 
ATOM     17  C   UNL     1       1.211   9.067  19.918  0.00  0.00    +0.000 A 
ATOM     18  C   UNL     1       1.551   9.423  18.622  0.00  0.00    +0.000 A 
ATOM     19  F   UNL     1       1.169  10.616  18.147  0.00  0.00    +0.000 F 
ATOM     20  C   UNL     1       2.279   8.558  17.815  0.00  0.00    +0.000 A 
ATOM     21  C   UNL     1       2.664   7.308  18.314  0.00  0.00    +0.000 A 
ENDBRANCH  14  15
ENDBRANCH  13  14
ENDBRANCH  12  13
ENDBRANCH   3  12
TORSDOF 5
ENDMDL
