MODEL 1
REMARK VINA RESULT:      -7.5      0.000      0.000
REMARK  Name = 
REMARK  5 active torsions:
REMARK  status: ('A' for Active; 'I' for Inactive)
REMARK    1  A    between atoms: C_1  and  N_2
REMARK    2  A    between atoms: N_2  and  C_3
REMARK    3  A    between atoms: C_3  and  C_4
REMARK    4  A    between atoms: C_4  and  N_5
REMARK    5  A    between atoms: C_12  and  C_13
REMARK                            x       y       z     vdW  Elec       q    Type
REMARK                         _______ _______ _______ _____ _____    ______ ____
ROOT
ATOM      1  C   UNL     1       6.418   6.955  17.244  0.00  0.00    +0.000 C 
ATOM      2  N   UNL     1       5.629   5.735  17.082  0.00  0.00    +0.000 N 
ATOM      3  C   UNL     1       4.628   5.500  18.029  0.00  0.00    +0.000 A 
ATOM      4  C   UNL     1       3.883   6.548  18.543  0.00  0.00    +0.000 A 
ATOM      5  C   UNL     1       2.816   6.290  19.401  0.00  0.00    +0.000 A 
ATOM      6  C   UNL     1       2.474   4.972  19.735  0.00  0.00    +0.000 A 
ATOM      7  C   UNL     1       1.367   4.620  20.547  0.00  0.00    +0.000 A 
ATOM      8  C   UNL     1       1.071   3.287  20.813  0.00  0.00    +0.000 A 
ATOM      9  C   UNL     1       1.885   2.293  20.288  0.00  0.00    +0.000 A 
ATOM     10  C   UNL     1       2.984   2.641  19.495  0.00  0.00    +0.000 A 
ATOM     11  C   UNL     1       3.290   3.965  19.197  0.00  0.00    +0.000 A 
ATOM     12  N   UNL     1       4.333   4.232  18.387  0.00  0.00    +0.000 NA
ENDROOT
BRANCH   5  13
ATOM     13  C   UNL     1       2.078   7.412  19.900  0.00  0.00    +0.000 C 
ATOM     14  N   UNL     1       1.487   8.327  20.304  0.00  0.00    +0.000 NA
ENDBRANCH   5  13
BRANCH   2  15
ATOM     15  C   UNL     1       6.327   4.560  16.519  0.00  0.00    +0.000 C 
BRANCH  15  16
ATOM     16  C   UNL     1       5.663   4.030  15.244  0.00  0.00    +0.000 C 
BRANCH  16  17
ATOM     17  N   UNL     1       6.469   4.312  14.070  0.00  0.00    +0.000 N 
ATOM     18  C   UNL     1       6.358   3.720  12.843  0.00  0.00    +0.000 A 
ATOM     19  C   UNL     1       7.306   4.316  12.046  0.00  0.00    +0.000 A 
ATOM     20  C   UNL     1       7.929   5.261  12.881  0.00  0.00    +0.000 A 
ATOM     21  N   UNL     1       7.426   5.258  14.118  0.00  0.00    +0.000 NA
ENDBRANCH  16  17
ENDBRANCH  15  16
ENDBRANCH   2  15
TORSDOF 4
ENDMDL
MODEL 2
REMARK VINA RESULT:      -7.2      0.626      1.020
REMARK  Name = 
REMARK  5 active torsions:
REMARK  status: ('A' for Active; 'I' for Inactive)
REMARK    1  A    between atoms: C_1  and  N_2
REMARK    2  A    between atoms: N_2  and  C_3
REMARK    3  A    between atoms: C_3  and  C_4
REMARK    4  A    between atoms: C_4  and  N_5
REMARK    5  A    between atoms: C_12  and  C_13
REMARK                            x       y       z     vdW  Elec       q    Type
REMARK                         _______ _______ _______ _____ _____    ______ ____
ROOT
ATOM      1  C   UNL     1       5.817   6.979  16.759  0.00  0.00    +0.000 C 
ATOM      2  N   UNL     1       4.969   5.795  16.636  0.00  0.00    +0.000 N 
ATOM      3  C   UNL     1       4.122   5.511  17.712  0.00  0.00    +0.000 A 
ATOM      4  C   UNL     1       3.505   6.534  18.413  0.00  0.00    +0.000 A 
ATOM      5  C   UNL     1       2.578   6.235  19.409  0.00  0.00    +0.000 A 
ATOM      6  C   UNL     1       2.245   4.904  19.697  0.00  0.00    +0.000 A 
ATOM      7  C   UNL     1       1.268   4.517  20.647  0.00  0.00    +0.000 A 
ATOM      8  C   UNL     1       0.970   3.175  20.858  0.00  0.00    +0.000 A 
ATOM      9  C   UNL     1       1.654   2.205  20.140  0.00  0.00    +0.000 A 
ATOM     10  C   UNL     1       2.627   2.587  19.209  0.00  0.00    +0.000 A 
ATOM     11  C   UNL     1       2.929   3.922  18.963  0.00  0.00    +0.000 A 
ATOM     12  N   UNL     1       3.842   4.226  18.019  0.00  0.00    +0.000 NA
ENDROOT
BRANCH   5  13
ATOM     13  C   UNL     1       1.969   7.333  20.100  0.00  0.00    +0.000 C 
ATOM     14  N   UNL     1       1.468   8.220  20.659  0.00  0.00    +0.000 NA
ENDBRANCH   5  13
BRANCH   2  15
ATOM     15  C   UNL     1       5.527   4.650  15.885  0.00  0.00    +0.000 C 
BRANCH  15  16
ATOM     16  C   UNL     1       6.865   4.975  15.216  0.00  0.00    +0.000 C 
BRANCH  16  17
ATOM     17  N   UNL     1       6.880   4.556  13.826  0.00  0.00    +0.000 N 
ATOM     18  C   UNL     1       7.683   5.044  12.835  0.00  0.00    +0.000 A 
ATOM     19  C   UNL     1       7.360   4.339  11.701  0.00  0.00    +0.000 A 
ATOM     20  C   UNL     1       6.360   3.440  12.114  0.00  0.00    +0.000 A 
ATOM     21  N   UNL     1       6.059   3.574  13.408  0.00  0.00    +0.000 NA
ENDBRANCH  16  17
ENDBRANCH  15  16
ENDBRANCH   2  15
TORSDOF 4
ENDMDL
MODEL 3
REMARK VINA RESULT:      -7.1      1.465      1.813
REMARK  Name = 
REMARK  5 active torsions:
REMARK  status: ('A' for Active; 'I' for Inactive)
REMARK    1  A    between atoms: C_1  and  N_2
REMARK    2  A    between atoms: N_2  and  C_3
REMARK    3  A    between atoms: C_3  and  C_4
REMARK    4  A    between atoms: C_4  and  N_5
REMARK    5  A    between atoms: C_12  and  C_13
REMARK                            x       y       z     vdW  Elec       q    Type
REMARK                         _______ _______ _______ _____ _____    ______ ____
ROOT
ATOM      1  C   UNL     1       6.699   6.120  16.483  0.00  0.00    +0.000 C 
ATOM      2  N   UNL     1       5.698   5.119  16.119  0.00  0.00    +0.000 N 
ATOM      3  C   UNL     1       4.667   4.894  17.035  0.00  0.00    +0.000 A 
ATOM      4  C   UNL     1       4.127   5.943  17.761  0.00  0.00    +0.000 A 
ATOM      5  C   UNL     1       3.026   5.724  18.588  0.00  0.00    +0.000 A 
ATOM      6  C   UNL     1       2.444   4.451  18.677  0.00  0.00    +0.000 A 
ATOM      7  C   UNL     1       1.289   4.159  19.442  0.00  0.00    +0.000 A 
ATOM      8  C   UNL     1       0.749   2.877  19.460  0.00  0.00    +0.000 A 
ATOM      9  C   UNL     1       1.367   1.870  18.732  0.00  0.00    +0.000 A 
ATOM     10  C   UNL     1       2.515   2.157  17.984  0.00  0.00    +0.000 A 
ATOM     11  C   UNL     1       3.062   3.435  17.933  0.00  0.00    +0.000 A 
ATOM     12  N   UNL     1       4.141   3.657  17.156  0.00  0.00    +0.000 NA
ENDROOT
BRANCH   5  13
ATOM     13  C   UNL     1       2.508   6.846  19.313  0.00  0.00    +0.000 C 
ATOM     14  N   UNL     1       2.086   7.759  19.894  0.00  0.00    +0.000 NA
ENDBRANCH   5  13
BRANCH   2  15
ATOM     15  C   UNL     1       6.168   3.967  15.322  0.00  0.00    +0.000 C 
BRANCH  15  16
ATOM     16  C   UNL     1       6.676   4.371  13.935  0.00  0.00    +0.000 C 
BRANCH  16  17
ATOM     17  N   UNL     1       6.003   3.627  12.885  0.00  0.00    +0.000 N 
ATOM     18  C   UNL     1       4.702   3.767  12.491  0.00  0.00    +0.000 A 
ATOM     19  C   UNL     1       4.518   2.876  11.461  0.00  0.00    +0.000 A 
ATOM     20  C   UNL     1       5.770   2.254  11.302  0.00  0.00    +0.000 A 
ATOM     21  N   UNL     1       6.676   2.704  12.173  0.00  0.00    +0.000 NA
ENDBRANCH  16  17
ENDBRANCH  15  16
ENDBRANCH   2  15
TORSDOF 4
ENDMDL
MODEL 4
REMARK VINA RESULT:      -6.9      2.092      3.918
REMARK  Name = 
REMARK  5 active torsions:
REMARK  status: ('A' for Active; 'I' for Inactive)
REMARK    1  A    between atoms: C_1  and  N_2
REMARK    2  A    between atoms: N_2  and  C_3
REMARK    3  A    between atoms: C_3  and  C_4
REMARK    4  A    between atoms: C_4  and  N_5
REMARK    5  A    between atoms: C_12  and  C_13
REMARK                            x       y       z     vdW  Elec       q    Type
REMARK                         _______ _______ _______ _____ _____    ______ ____
ROOT
ATOM      1  C   UNL     1       4.415   2.236  16.786  0.00  0.00    +0.000 C 
ATOM      2  N   UNL     1       4.669   3.661  16.993  0.00  0.00    +0.000 N 
ATOM      3  C   UNL     1       3.838   4.324  17.900  0.00  0.00    +0.000 A 
ATOM      4  C   UNL     1       3.403   3.692  19.052  0.00  0.00    +0.000 A 
ATOM      5  C   UNL     1       2.668   4.400  20.002  0.00  0.00    +0.000 A 
ATOM      6  C   UNL     1       2.381   5.759  19.811  0.00  0.00    +0.000 A 
ATOM      7  C   UNL     1       1.697   6.565  20.753  0.00  0.00    +0.000 A 
ATOM      8  C   UNL     1       1.472   7.916  20.508  0.00  0.00    +0.000 A 
ATOM      9  C   UNL     1       1.910   8.472  19.315  0.00  0.00    +0.000 A 
ATOM     10  C   UNL     1       2.576   7.672  18.379  0.00  0.00    +0.000 A 
ATOM     11  C   UNL     1       2.832   6.324  18.609  0.00  0.00    +0.000 A 
ATOM     12  N   UNL     1       3.521   5.620  17.689  0.00  0.00    +0.000 NA
ENDROOT
BRANCH   5  13
ATOM     13  C   UNL     1       2.247   3.695  21.176  0.00  0.00    +0.000 C 
ATOM     14  N   UNL     1       1.911   3.127  22.132  0.00  0.00    +0.000 NA
ENDBRANCH   5  13
BRANCH   2  15
ATOM     15  C   UNL     1       5.158   4.427  15.827  0.00  0.00    +0.000 C 
BRANCH  15  16
ATOM     16  C   UNL     1       6.683   4.572  15.811  0.00  0.00    +0.000 C 
BRANCH  16  17
ATOM     17  N   UNL     1       7.139   5.497  16.832  0.00  0.00    +0.000 N 
ATOM     18  C   UNL     1       7.447   5.193  18.129  0.00  0.00    +0.000 A 
ATOM     19  C   UNL     1       7.849   6.372  18.710  0.00  0.00    +0.000 A 
ATOM     20  C   UNL     1       7.760   7.326  17.680  0.00  0.00    +0.000 A 
ATOM     21  N   UNL     1       7.321   6.797  16.534  0.00  0.00    +0.000 NA
ENDBRANCH  16  17
ENDBRANCH  15  16
ENDBRANCH   2  15
TORSDOF 4
ENDMDL
MODEL 5
REMARK VINA RESULT:      -6.9      1.546      3.064
REMARK  Name = 
REMARK  5 active torsions:
REMARK  status: ('A' for Active; 'I' for Inactive)
REMARK    1  A    between atoms: C_1  and  N_2
REMARK    2  A    between atoms: N_2  and  C_3
REMARK    3  A    between atoms: C_3  and  C_4
REMARK    4  A    between atoms: C_4  and  N_5
REMARK    5  A    between atoms: C_12  and  C_13
REMARK                            x       y       z     vdW  Elec       q    Type
REMARK                         _______ _______ _______ _____ _____    ______ ____
ROOT
ATOM      1  C   UNL     1       4.740   3.109  16.810  0.00  0.00    +0.000 C 
ATOM      2  N   UNL     1       4.828   4.522  17.172  0.00  0.00    +0.000 N 
ATOM      3  C   UNL     1       3.887   4.999  18.088  0.00  0.00    +0.000 A 
ATOM      4  C   UNL     1       3.466   4.208  19.145  0.00  0.00    +0.000 A 
ATOM      5  C   UNL     1       2.613   4.734  20.113  0.00  0.00    +0.000 A 
ATOM      6  C   UNL     1       2.190   6.069  20.041  0.00  0.00    +0.000 A 
ATOM      7  C   UNL     1       1.378   6.698  21.016  0.00  0.00    +0.000 A 
ATOM      8  C   UNL     1       1.022   8.037  20.893  0.00  0.00    +0.000 A 
ATOM      9  C   UNL     1       1.455   8.756  19.788  0.00  0.00    +0.000 A 
ATOM     10  C   UNL     1       2.249   8.131  18.820  0.00  0.00    +0.000 A 
ATOM     11  C   UNL     1       2.637   6.800  18.930  0.00  0.00    +0.000 A 
ATOM     12  N   UNL     1       3.443   6.271  17.988  0.00  0.00    +0.000 NA
ENDROOT
BRANCH   5  13
ATOM     13  C   UNL     1       2.213   3.870  21.184  0.00  0.00    +0.000 C 
ATOM     14  N   UNL     1       1.881   3.172  22.052  0.00  0.00    +0.000 NA
ENDBRANCH   5  13
BRANCH   2  15
ATOM     15  C   UNL     1       5.289   5.452  16.120  0.00  0.00    +0.000 C 
BRANCH  15  16
ATOM     16  C   UNL     1       6.766   5.259  15.763  0.00  0.00    +0.000 C 
BRANCH  16  17
ATOM     17  N   UNL     1       6.931   4.892  14.368  0.00  0.00    +0.000 N 
ATOM     18  C   UNL     1       6.247   3.920  13.694  0.00  0.00    +0.000 A 
ATOM     19  C   UNL     1       6.722   3.946  12.404  0.00  0.00    +0.000 A 
ATOM     20  C   UNL     1       7.681   4.975  12.399  0.00  0.00    +0.000 A 
ATOM     21  N   UNL     1       7.817   5.550  13.596  0.00  0.00    +0.000 NA
ENDBRANCH  16  17
ENDBRANCH  15  16
ENDBRANCH   2  15
TORSDOF 4
ENDMDL
MODEL 6
REMARK VINA RESULT:      -6.9      2.881      7.949
REMARK  Name = 
REMARK  5 active torsions:
REMARK  status: ('A' for Active; 'I' for Inactive)
REMARK    1  A    between atoms: C_1  and  N_2
REMARK    2  A    between atoms: N_2  and  C_3
REMARK    3  A    between atoms: C_3  and  C_4
REMARK    4  A    between atoms: C_4  and  N_5
REMARK    5  A    between atoms: C_12  and  C_13
REMARK                            x       y       z     vdW  Elec       q    Type
REMARK                         _______ _______ _______ _____ _____    ______ ____
ROOT
ATOM      1  C   UNL     1       1.146   9.617  18.645  0.00  0.00    +0.000 C 
ATOM      2  N   UNL     1       1.604   8.673  19.663  0.00  0.00    +0.000 N 
ATOM      3  C   UNL     1       2.249   7.519  19.208  0.00  0.00    +0.000 A 
ATOM      4  C   UNL     1       3.095   7.568  18.113  0.00  0.00    +0.000 A 
ATOM      5  C   UNL     1       3.818   6.436  17.739  0.00  0.00    +0.000 A 
ATOM      6  C   UNL     1       3.712   5.248  18.476  0.00  0.00    +0.000 A 
ATOM      7  C   UNL     1       4.458   4.076  18.203  0.00  0.00    +0.000 A 
ATOM      8  C   UNL     1       4.323   2.941  18.997  0.00  0.00    +0.000 A 
ATOM      9  C   UNL     1       3.429   2.958  20.058  0.00  0.00    +0.000 A 
ATOM     10  C   UNL     1       2.685   4.113  20.321  0.00  0.00    +0.000 A 
ATOM     11  C   UNL     1       2.817   5.267  19.556  0.00  0.00    +0.000 A 
ATOM     12  N   UNL     1       2.107   6.363  19.892  0.00  0.00    +0.000 NA
ENDROOT
BRANCH   5  13
ATOM     13  C   UNL     1       4.680   6.546  16.600  0.00  0.00    +0.000 C 
ATOM     14  N   UNL     1       5.383   6.641  15.680  0.00  0.00    +0.000 NA
ENDBRANCH   5  13
BRANCH   2  15
ATOM     15  C   UNL     1       0.781   8.560  20.885  0.00  0.00    +0.000 C 
BRANCH  15  16
ATOM     16  C   UNL     1       1.227   9.520  21.992  0.00  0.00    +0.000 C 
BRANCH  16  17
ATOM     17  N   UNL     1       0.179  10.466  22.328  0.00  0.00    +0.000 N 
ATOM     18  C   UNL     1      -0.907  10.231  23.124  0.00  0.00    +0.000 A 
ATOM     19  C   UNL     1      -1.606  11.414  23.172  0.00  0.00    +0.000 A 
ATOM     20  C   UNL     1      -0.855  12.303  22.382  0.00  0.00    +0.000 A 
ATOM     21  N   UNL     1       0.231  11.727  21.860  0.00  0.00    +0.000 NA
ENDBRANCH  16  17
ENDBRANCH  15  16
ENDBRANCH   2  15
TORSDOF 4
ENDMDL
MODEL 7
REMARK VINA RESULT:      -6.8      3.355      7.374
REMARK  Name = 
REMARK  5 active torsions:
REMARK  status: ('A' for Active; 'I' for Inactive)
REMARK    1  A    between atoms: C_1  and  N_2
REMARK    2  A    between atoms: N_2  and  C_3
REMARK    3  A    between atoms: C_3  and  C_4
REMARK    4  A    between atoms: C_4  and  N_5
REMARK    5  A    between atoms: C_12  and  C_13
REMARK                            x       y       z     vdW  Elec       q    Type
REMARK                         _______ _______ _______ _____ _____    ______ ____
ROOT
ATOM      1  C   UNL     1       0.919   8.839  21.774  0.00  0.00    +0.000 C 
ATOM      2  N   UNL     1       1.100   8.517  20.360  0.00  0.00    +0.000 N 
ATOM      3  C   UNL     1       1.825   7.360  20.063  0.00  0.00    +0.000 A 
ATOM      4  C   UNL     1       1.702   6.228  20.851  0.00  0.00    +0.000 A 
ATOM      5  C   UNL     1       2.344   5.047  20.482  0.00  0.00    +0.000 A 
ATOM      6  C   UNL     1       3.100   4.987  19.303  0.00  0.00    +0.000 A 
ATOM      7  C   UNL     1       3.729   3.813  18.823  0.00  0.00    +0.000 A 
ATOM      8  C   UNL     1       4.441   3.821  17.627  0.00  0.00    +0.000 A 
ATOM      9  C   UNL     1       4.547   5.003  16.908  0.00  0.00    +0.000 A 
ATOM     10  C   UNL     1       3.934   6.166  17.388  0.00  0.00    +0.000 A 
ATOM     11  C   UNL     1       3.200   6.179  18.570  0.00  0.00    +0.000 A 
ATOM     12  N   UNL     1       2.593   7.320  18.953  0.00  0.00    +0.000 NA
ENDROOT
BRANCH   5  13
ATOM     13  C   UNL     1       2.178   3.907  21.334  0.00  0.00    +0.000 C 
ATOM     14  N   UNL     1       2.039   2.979  22.019  0.00  0.00    +0.000 NA
ENDBRANCH   5  13
BRANCH   2  15
ATOM     15  C   UNL     1       1.220   9.657  19.427  0.00  0.00    +0.000 C 
BRANCH  15  16
ATOM     16  C   UNL     1       0.264  10.805  19.766  0.00  0.00    +0.000 C 
BRANCH  16  17
ATOM     17  N   UNL     1      -0.859  10.849  18.846  0.00  0.00    +0.000 N 
ATOM     18  C   UNL     1      -1.065  10.032  17.771  0.00  0.00    +0.000 A 
ATOM     19  C   UNL     1      -2.258  10.428  17.215  0.00  0.00    +0.000 A 
ATOM     20  C   UNL     1      -2.698  11.484  18.034  0.00  0.00    +0.000 A 
ATOM     21  N   UNL     1      -1.844  11.748  19.027  0.00  0.00    +0.000 NA
ENDBRANCH  16  17
ENDBRANCH  15  16
ENDBRANCH   2  15
TORSDOF 4
ENDMDL
MODEL 8
REMARK VINA RESULT:      -6.7      2.776      7.759
REMARK  Name = 
REMARK  5 active torsions:
REMARK  status: ('A' for Active; 'I' for Inactive)
REMARK    1  A    between atoms: C_1  and  N_2
REMARK    2  A    between atoms: N_2  and  C_3
REMARK    3  A    between atoms: C_3  and  C_4
REMARK    4  A    between atoms: C_4  and  N_5
REMARK    5  A    between atoms: C_12  and  C_13
REMARK                            x       y       z     vdW  Elec       q    Type
REMARK                         _______ _______ _______ _____ _____    ______ ____
ROOT
ATOM      1  C   UNL     1       1.709   9.231  17.850  0.00  0.00    +0.000 C 
ATOM      2  N   UNL     1       1.969   8.562  19.123  0.00  0.00    +0.000 N 
ATOM      3  C   UNL     1       2.362   7.222  19.063  0.00  0.00    +0.000 A 
ATOM      4  C   UNL     1       3.195   6.776  18.051  0.00  0.00    +0.000 A 
ATOM      5  C   UNL     1       3.669   5.465  18.065  0.00  0.00    +0.000 A 
ATOM      6  C   UNL     1       3.326   4.595  19.110  0.00  0.00    +0.000 A 
ATOM      7  C   UNL     1       3.815   3.271  19.233  0.00  0.00    +0.000 A 
ATOM      8  C   UNL     1       3.454   2.474  20.315  0.00  0.00    +0.000 A 
ATOM      9  C   UNL     1       2.588   2.982  21.273  0.00  0.00    +0.000 A 
ATOM     10  C   UNL     1       2.097   4.286  21.145  0.00  0.00    +0.000 A 
ATOM     11  C   UNL     1       2.459   5.110  20.085  0.00  0.00    +0.000 A 
ATOM     12  N   UNL     1       1.990   6.373  20.045  0.00  0.00    +0.000 NA
ENDROOT
BRANCH   5  13
ATOM     13  C   UNL     1       4.530   5.059  16.994  0.00  0.00    +0.000 C 
ATOM     14  N   UNL     1       5.232   4.737  16.126  0.00  0.00    +0.000 NA
ENDBRANCH   5  13
BRANCH   2  15
ATOM     15  C   UNL     1       1.146   8.982  20.276  0.00  0.00    +0.000 C 
BRANCH  15  16
ATOM     16  C   UNL     1       0.053   9.984  19.892  0.00  0.00    +0.000 C 
BRANCH  16  17
ATOM     17  N   UNL     1      -0.561  10.576  21.067  0.00  0.00    +0.000 N 
ATOM     18  C   UNL     1      -0.465  10.124  22.353  0.00  0.00    +0.000 A 
ATOM     19  C   UNL     1      -1.186  11.006  23.121  0.00  0.00    +0.000 A 
ATOM     20  C   UNL     1      -1.669  11.961  22.208  0.00  0.00    +0.000 A 
ATOM     21  N   UNL     1      -1.295  11.698  20.953  0.00  0.00    +0.000 NA
ENDBRANCH  16  17
ENDBRANCH  15  16
ENDBRANCH   2  15
TORSDOF 4
ENDMDL
MODEL 9
REMARK VINA RESULT:      -6.7      4.082      6.747
REMARK  Name = 
REMARK  5 active torsions:
REMARK  status: ('A' for Active; 'I' for Inactive)
REMARK    1  A    between atoms: C_1  and  N_2
REMARK    2  A    between atoms: N_2  and  C_3
REMARK    3  A    between atoms: C_3  and  C_4
REMARK    4  A    between atoms: C_4  and  N_5
REMARK    5  A    between atoms: C_12  and  C_13
REMARK                            x       y       z     vdW  Elec       q    Type
REMARK                         _______ _______ _______ _____ _____    ______ ____
ROOT
ATOM      1  C   UNL     1       3.049   8.298  17.462  0.00  0.00    +0.000 C 
ATOM      2  N   UNL     1       2.176   7.832  18.537  0.00  0.00    +0.000 N 
ATOM      3  C   UNL     1       1.496   8.812  19.267  0.00  0.00    +0.000 A 
ATOM      4  C   UNL     1       1.006   9.946  18.641  0.00  0.00    +0.000 A 
ATOM      5  C   UNL     1       0.235  10.860  19.357  0.00  0.00    +0.000 A 
ATOM      6  C   UNL     1      -0.069  10.632  20.706  0.00  0.00    +0.000 A 
ATOM      7  C   UNL     1      -0.897  11.475  21.487  0.00  0.00    +0.000 A 
ATOM      8  C   UNL     1      -1.180  11.170  22.814  0.00  0.00    +0.000 A 
ATOM      9  C   UNL     1      -0.624  10.032  23.382  0.00  0.00    +0.000 A 
ATOM     10  C   UNL     1       0.202   9.205  22.614  0.00  0.00    +0.000 A 
ATOM     11  C   UNL     1       0.483   9.476  21.279  0.00  0.00    +0.000 A 
ATOM     12  N   UNL     1       1.247   8.613  20.579  0.00  0.00    +0.000 NA
ENDROOT
BRANCH   5  13
ATOM     13  C   UNL     1      -0.248  12.013  18.656  0.00  0.00    +0.000 C 
ATOM     14  N   UNL     1      -0.635  12.946  18.082  0.00  0.00    +0.000 NA
ENDBRANCH   5  13
BRANCH   2  15
ATOM     15  C   UNL     1       2.597   6.613  19.258  0.00  0.00    +0.000 C 
BRANCH  15  16
ATOM     16  C   UNL     1       2.732   5.396  18.338  0.00  0.00    +0.000 C 
BRANCH  16  17
ATOM     17  N   UNL     1       1.969   4.266  18.838  0.00  0.00    +0.000 N 
ATOM     18  C   UNL     1       1.725   3.962  20.147  0.00  0.00    +0.000 A 
ATOM     19  C   UNL     1       0.951   2.827  20.136  0.00  0.00    +0.000 A 
ATOM     20  C   UNL     1       0.774   2.530  18.773  0.00  0.00    +0.000 A 
ATOM     21  N   UNL     1       1.399   3.402  17.977  0.00  0.00    +0.000 NA
ENDBRANCH  16  17
ENDBRANCH  15  16
ENDBRANCH   2  15
TORSDOF 4
ENDMDL
