MODEL 1
REMARK VINA RESULT:      -8.1      0.000      0.000
REMARK  Name = 
REMARK  11 active torsions:
REMARK  status: ('A' for Active; 'I' for Inactive)
REMARK    1  A    between atoms: C_1  and  O_2
REMARK    2  A    between atoms: O_2  and  C_3
REMARK    3  A    between atoms: C_8  and  C_9
REMARK    4  A    between atoms: C_12  and  C_13
REMARK    5  A    between atoms: C_13  and  CA_14
REMARK    6  A    between atoms: CA_14  and  N_15
REMARK    7  A    between atoms: CA_14  and  C_28
REMARK    8  A    between atoms: C_16  and  C_18
REMARK    9  A    between atoms: C_18  and  C_19
REMARK   10  A    between atoms: C_23  and  N_24
REMARK   11  A    between atoms: C_28  and  OXT_30
REMARK                            x       y       z     vdW  Elec       q    Type
REMARK                         _______ _______ _______ _____ _____    ______ ____
ROOT
ATOM      1  CA  UNL     1       7.188   6.940  17.430  0.00  0.00    +0.000 C 
ENDROOT
BRANCH   1   2
ATOM      2  N   UNL     1       5.796   7.017  17.911  0.00  0.00    +0.000 N 
ATOM      3  C   UNL     1       4.693   6.927  17.084  0.00  0.00    +0.000 C 
ATOM      4  O   UNL     1       4.798   6.721  15.884  0.00  0.00    +0.000 OA
ATOM      5  H   UNL     1       5.661   7.180  18.904  0.00  0.00    +0.000 HD
BRANCH   3   6
ATOM      6  C   UNL     1       3.345   7.009  17.785  0.00  0.00    +0.000 C 
BRANCH   6   7
ATOM      7  C   UNL     1       3.093   5.946  18.831  0.00  0.00    +0.000 A 
ATOM      8  C   UNL     1       2.201   6.173  19.890  0.00  0.00    +0.000 A 
ATOM      9  C   UNL     1       1.889   5.157  20.799  0.00  0.00    +0.000 A 
ATOM     10  C   UNL     1       2.461   3.890  20.664  0.00  0.00    +0.000 A 
ATOM     11  C   UNL     1       3.353   3.653  19.614  0.00  0.00    +0.000 A 
ATOM     12  C   UNL     1       3.677   4.676  18.701  0.00  0.00    +0.000 A 
BRANCH  11  13
ATOM     13  N   UNL     1       3.940   2.316  19.444  0.00  0.00    +0.000 N 
ATOM     14  O   UNL     1       4.899   2.010  20.168  0.00  0.00    +0.000 OA
ATOM     15  O   UNL     1       3.442   1.573  18.587  0.00  0.00    +0.000 OA
ENDBRANCH  11  13
ENDBRANCH   6   7
ENDBRANCH   3   6
ENDBRANCH   1   2
BRANCH   1  16
ATOM     16  C   UNL     1       7.476   5.555  16.814  0.00  0.00    +0.000 C 
ATOM     17  O   UNL     1       7.841   4.550  17.408  0.00  0.00    +0.000 OA
BRANCH  16  18
ATOM     18  OXT UNL     1       7.414   5.561  15.453  0.00  0.00    +0.000 OA
ATOM     19  HXT UNL     1       6.501   5.725  15.137  0.00  0.00    +0.000 HD
ENDBRANCH  16  18
ENDBRANCH   1  16
BRANCH   1  20
ATOM     20  C   UNL     1       8.215   7.417  18.479  0.00  0.00    +0.000 C 
BRANCH  20  24
ATOM     21  C   UNL     1       9.174  11.651  18.228  0.00  0.00    +0.000 A 
ATOM     22  C   UNL     1       8.291  11.019  17.332  0.00  0.00    +0.000 A 
ATOM     23  C   UNL     1       7.879   9.697  17.499  0.00  0.00    +0.000 A 
ATOM     24  C   UNL     1       8.428   8.910  18.506  0.00  0.00    +0.000 A 
ATOM     25  C   UNL     1       9.239   9.527  19.461  0.00  0.00    +0.000 A 
ATOM     26  C   UNL     1       9.582  10.883  19.332  0.00  0.00    +0.000 A 
BRANCH  21  32
ATOM     27  C   UNL     1       9.028  14.219  18.528  0.00  0.00    +0.000 A 
ATOM     28  C   UNL     1       9.595  15.488  18.294  0.00  0.00    +0.000 A 
ATOM     29  C   UNL     1      10.723  15.641  17.496  0.00  0.00    +0.000 A 
ATOM     30  C   UNL     1      11.307  14.529  16.920  0.00  0.00    +0.000 A 
ATOM     31  C   UNL     1      10.762  13.266  17.153  0.00  0.00    +0.000 A 
ATOM     32  C   UNL     1       9.626  13.056  17.977  0.00  0.00    +0.000 A 
BRANCH  27  34
ATOM     33  C   UNL     1       8.208  14.328  20.748  0.00  0.00    +0.000 C 
ATOM     34  O   UNL     1       7.942  14.086  19.364  0.00  0.00    +0.000 OA
ENDBRANCH  27  34
ENDBRANCH  21  32
ENDBRANCH  20  24
ENDBRANCH   1  20
TORSDOF 10
ENDMDL
MODEL 2
REMARK VINA RESULT:      -8.1      5.598      7.850
REMARK  Name = 
REMARK  11 active torsions:
REMARK  status: ('A' for Active; 'I' for Inactive)
REMARK    1  A    between atoms: C_1  and  O_2
REMARK    2  A    between atoms: O_2  and  C_3
REMARK    3  A    between atoms: C_8  and  C_9
REMARK    4  A    between atoms: C_12  and  C_13
REMARK    5  A    between atoms: C_13  and  CA_14
REMARK    6  A    between atoms: CA_14  and  N_15
REMARK    7  A    between atoms: CA_14  and  C_28
REMARK    8  A    between atoms: C_16  and  C_18
REMARK    9  A    between atoms: C_18  and  C_19
REMARK   10  A    between atoms: C_23  and  N_24
REMARK   11  A    between atoms: C_28  and  OXT_30
REMARK                            x       y       z     vdW  Elec       q    Type
REMARK                         _______ _______ _______ _____ _____    ______ ____
ROOT
ATOM      1  CA  UNL     1       4.404   4.678  18.581  0.00  0.00    +0.000 C 
ENDROOT
BRANCH   1   2
ATOM      2  N   UNL     1       5.481   4.222  17.683  0.00  0.00    +0.000 N 
ATOM      3  C   UNL     1       6.149   5.053  16.803  0.00  0.00    +0.000 C 
ATOM      4  O   UNL     1       5.925   6.253  16.748  0.00  0.00    +0.000 OA
ATOM      5  H   UNL     1       5.707   3.232  17.700  0.00  0.00    +0.000 HD
BRANCH   3   6
ATOM      6  C   UNL     1       7.243   4.386  15.982  0.00  0.00    +0.000 C 
BRANCH   6   7
ATOM      7  C   UNL     1       7.080   4.488  14.482  0.00  0.00    +0.000 A 
ATOM      8  C   UNL     1       7.881   5.359  13.727  0.00  0.00    +0.000 A 
ATOM      9  C   UNL     1       7.802   5.380  12.330  0.00  0.00    +0.000 A 
ATOM     10  C   UNL     1       6.923   4.525  11.661  0.00  0.00    +0.000 A 
ATOM     11  C   UNL     1       6.119   3.655  12.403  0.00  0.00    +0.000 A 
ATOM     12  C   UNL     1       6.189   3.636  13.809  0.00  0.00    +0.000 A 
BRANCH  11  13
ATOM     13  N   UNL     1       5.212   2.731  11.708  0.00  0.00    +0.000 N 
ATOM     14  O   UNL     1       5.653   1.614  11.397  0.00  0.00    +0.000 OA
ATOM     15  O   UNL     1       4.060   3.119  11.475  0.00  0.00    +0.000 OA
ENDBRANCH  11  13
ENDBRANCH   6   7
ENDBRANCH   3   6
ENDBRANCH   1   2
BRANCH   1  16
ATOM     16  C   UNL     1       4.042   3.577  19.600  0.00  0.00    +0.000 C 
ATOM     17  O   UNL     1       3.028   3.513  20.281  0.00  0.00    +0.000 OA
BRANCH  16  18
ATOM     18  OXT UNL     1       5.055   2.686  19.795  0.00  0.00    +0.000 OA
ATOM     19  HXT UNL     1       4.711   1.799  20.028  0.00  0.00    +0.000 HD
ENDBRANCH  16  18
ENDBRANCH   1  16
BRANCH   1  20
ATOM     20  C   UNL     1       3.207   5.289  17.824  0.00  0.00    +0.000 C 
BRANCH  20  24
ATOM     21  C   UNL     1       1.502   9.035  19.230  0.00  0.00    +0.000 A 
ATOM     22  C   UNL     1       1.668   7.915  20.068  0.00  0.00    +0.000 A 
ATOM     23  C   UNL     1       2.340   6.767  19.652  0.00  0.00    +0.000 A 
ATOM     24  C   UNL     1       2.772   6.641  18.336  0.00  0.00    +0.000 A 
ATOM     25  C   UNL     1       2.700   7.761  17.506  0.00  0.00    +0.000 A 
ATOM     26  C   UNL     1       2.096   8.945  17.960  0.00  0.00    +0.000 A 
BRANCH  21  32
ATOM     27  C   UNL     1       0.599  10.630  21.060  0.00  0.00    +0.000 A 
ATOM     28  C   UNL     1      -0.081  11.821  21.384  0.00  0.00    +0.000 A 
ATOM     29  C   UNL     1      -0.670  12.608  20.401  0.00  0.00    +0.000 A 
ATOM     30  C   UNL     1      -0.588  12.221  19.076  0.00  0.00    +0.000 A 
ATOM     31  C   UNL     1       0.092  11.049  18.742  0.00  0.00    +0.000 A 
ATOM     32  C   UNL     1       0.728  10.226  19.706  0.00  0.00    +0.000 A 
BRANCH  27  34
ATOM     33  C   UNL     1       0.361   9.439  23.094  0.00  0.00    +0.000 C 
ATOM     34  O   UNL     1       1.219   9.893  22.045  0.00  0.00    +0.000 OA
ENDBRANCH  27  34
ENDBRANCH  21  32
ENDBRANCH  20  24
ENDBRANCH   1  20
TORSDOF 10
ENDMDL
MODEL 3
REMARK VINA RESULT:      -8.1      7.698     10.904
REMARK  Name = 
REMARK  11 active torsions:
REMARK  status: ('A' for Active; 'I' for Inactive)
REMARK    1  A    between atoms: C_1  and  O_2
REMARK    2  A    between atoms: O_2  and  C_3
REMARK    3  A    between atoms: C_8  and  C_9
REMARK    4  A    between atoms: C_12  and  C_13
REMARK    5  A    between atoms: C_13  and  CA_14
REMARK    6  A    between atoms: CA_14  and  N_15
REMARK    7  A    between atoms: CA_14  and  C_28
REMARK    8  A    between atoms: C_16  and  C_18
REMARK    9  A    between atoms: C_18  and  C_19
REMARK   10  A    between atoms: C_23  and  N_24
REMARK   11  A    between atoms: C_28  and  OXT_30
REMARK                            x       y       z     vdW  Elec       q    Type
REMARK                         _______ _______ _______ _____ _____    ______ ____
ROOT
ATOM      1  CA  UNL     1       0.690  11.880  20.946  0.00  0.00    +0.000 C 
ENDROOT
BRANCH   1   2
ATOM      2  N   UNL     1      -0.352  12.612  21.690  0.00  0.00    +0.000 N 
ATOM      3  C   UNL     1      -1.140  12.040  22.670  0.00  0.00    +0.000 C 
ATOM      4  O   UNL     1      -0.988  10.882  23.030  0.00  0.00    +0.000 OA
ATOM      5  H   UNL     1      -0.508  13.581  21.430  0.00  0.00    +0.000 HD
BRANCH   3   6
ATOM      6  C   UNL     1      -2.140  12.977  23.330  0.00  0.00    +0.000 C 
BRANCH   6   7
ATOM      7  C   UNL     1      -3.526  12.978  22.725  0.00  0.00    +0.000 A 
ATOM      8  C   UNL     1      -3.705  13.034  21.334  0.00  0.00    +0.000 A 
ATOM      9  C   UNL     1      -4.981  12.933  20.769  0.00  0.00    +0.000 A 
ATOM     10  C   UNL     1      -6.102  12.768  21.584  0.00  0.00    +0.000 A 
ATOM     11  C   UNL     1      -5.936  12.714  22.971  0.00  0.00    +0.000 A 
ATOM     12  C   UNL     1      -4.655  12.824  23.545  0.00  0.00    +0.000 A 
BRANCH  11  13
ATOM     13  N   UNL     1      -7.105  12.512  23.838  0.00  0.00    +0.000 N 
ATOM     14  O   UNL     1      -7.603  13.512  24.378  0.00  0.00    +0.000 OA
ATOM     15  O   UNL     1      -7.526  11.356  23.980  0.00  0.00    +0.000 OA
ENDBRANCH  11  13
ENDBRANCH   6   7
ENDBRANCH   3   6
ENDBRANCH   1   2
BRANCH   1  16
ATOM     16  C   UNL     1       1.817  12.836  20.501  0.00  0.00    +0.000 C 
ATOM     17  O   UNL     1       2.238  12.994  19.364  0.00  0.00    +0.000 OA
BRANCH  16  18
ATOM     18  OXT UNL     1       2.438  13.441  21.552  0.00  0.00    +0.000 OA
ATOM     19  HXT UNL     1       2.375  14.416  21.492  0.00  0.00    +0.000 HD
ENDBRANCH  16  18
ENDBRANCH   1  16
BRANCH   1  20
ATOM     20  C   UNL     1       0.114  10.982  19.831  0.00  0.00    +0.000 C 
BRANCH  20  24
ATOM     21  C   UNL     1       2.239   7.394  18.595  0.00  0.00    +0.000 A 
ATOM     22  C   UNL     1       1.976   8.461  17.715  0.00  0.00    +0.000 A 
ATOM     23  C   UNL     1       1.419   9.663  18.146  0.00  0.00    +0.000 A 
ATOM     24  C   UNL     1       0.990   9.810  19.462  0.00  0.00    +0.000 A 
ATOM     25  C   UNL     1       1.313   8.807  20.378  0.00  0.00    +0.000 A 
ATOM     26  C   UNL     1       1.951   7.631  19.950  0.00  0.00    +0.000 A 
BRANCH  21  32
ATOM     27  C   UNL     1       4.054   5.947  17.447  0.00  0.00    +0.000 A 
ATOM     28  C   UNL     1       4.509   4.666  17.075  0.00  0.00    +0.000 A 
ATOM     29  C   UNL     1       3.728   3.533  17.278  0.00  0.00    +0.000 A 
ATOM     30  C   UNL     1       2.480   3.660  17.857  0.00  0.00    +0.000 A 
ATOM     31  C   UNL     1       2.023   4.922  18.239  0.00  0.00    +0.000 A 
ATOM     32  C   UNL     1       2.791   6.103  18.074  0.00  0.00    +0.000 A 
BRANCH  27  34
ATOM     33  C   UNL     1       6.268   6.786  17.378  0.00  0.00    +0.000 C 
ATOM     34  O   UNL     1       4.866   7.048  17.284  0.00  0.00    +0.000 OA
ENDBRANCH  27  34
ENDBRANCH  21  32
ENDBRANCH  20  24
ENDBRANCH   1  20
TORSDOF 10
ENDMDL
MODEL 4
REMARK VINA RESULT:      -8.0      5.723      8.366
REMARK  Name = 
REMARK  11 active torsions:
REMARK  status: ('A' for Active; 'I' for Inactive)
REMARK    1  A    between atoms: C_1  and  O_2
REMARK    2  A    between atoms: O_2  and  C_3
REMARK    3  A    between atoms: C_8  and  C_9
REMARK    4  A    between atoms: C_12  and  C_13
REMARK    5  A    between atoms: C_13  and  CA_14
REMARK    6  A    between atoms: CA_14  and  N_15
REMARK    7  A    between atoms: CA_14  and  C_28
REMARK    8  A    between atoms: C_16  and  C_18
REMARK    9  A    between atoms: C_18  and  C_19
REMARK   10  A    between atoms: C_23  and  N_24
REMARK   11  A    between atoms: C_28  and  OXT_30
REMARK                            x       y       z     vdW  Elec       q    Type
REMARK                         _______ _______ _______ _____ _____    ______ ____
ROOT
ATOM      1  CA  UNL     1       3.287   5.323  17.972  0.00  0.00    +0.000 C 
ENDROOT
BRANCH   1   2
ATOM      2  N   UNL     1       4.403   4.617  17.316  0.00  0.00    +0.000 N 
ATOM      3  C   UNL     1       5.586   5.228  16.946  0.00  0.00    +0.000 C 
ATOM      4  O   UNL     1       5.812   6.404  17.190  0.00  0.00    +0.000 OA
ATOM      5  H   UNL     1       4.263   3.634  17.101  0.00  0.00    +0.000 HD
BRANCH   3   6
ATOM      6  C   UNL     1       6.617   4.314  16.302  0.00  0.00    +0.000 C 
BRANCH   6   7
ATOM      7  C   UNL     1       6.717   4.407  14.796  0.00  0.00    +0.000 A 
ATOM      8  C   UNL     1       7.686   5.218  14.186  0.00  0.00    +0.000 A 
ATOM      9  C   UNL     1       7.846   5.227  12.797  0.00  0.00    +0.000 A 
ATOM     10  C   UNL     1       7.042   4.420  11.989  0.00  0.00    +0.000 A 
ATOM     11  C   UNL     1       6.071   3.610  12.586  0.00  0.00    +0.000 A 
ATOM     12  C   UNL     1       5.901   3.604  13.984  0.00  0.00    +0.000 A 
BRANCH  11  13
ATOM     13  N   UNL     1       5.238   2.734  11.749  0.00  0.00    +0.000 N 
ATOM     14  O   UNL     1       4.115   3.148  11.421  0.00  0.00    +0.000 OA
ATOM     15  O   UNL     1       5.704   1.636  11.420  0.00  0.00    +0.000 OA
ENDBRANCH  11  13
ENDBRANCH   6   7
ENDBRANCH   3   6
ENDBRANCH   1   2
BRANCH   1  16
ATOM     16  C   UNL     1       2.060   4.398  18.107  0.00  0.00    +0.000 C 
ATOM     17  O   UNL     1       1.163   4.245  17.290  0.00  0.00    +0.000 OA
BRANCH  16  18
ATOM     18  OXT UNL     1       1.973   3.816  19.336  0.00  0.00    +0.000 OA
ATOM     19  HXT UNL     1       2.007   2.840  19.274  0.00  0.00    +0.000 HD
ENDBRANCH  16  18
ENDBRANCH   1  16
BRANCH   1  20
ATOM     20  C   UNL     1       3.000   6.705  17.348  0.00  0.00    +0.000 C 
BRANCH  20  24
ATOM     21  C   UNL     1       0.947   9.387  20.089  0.00  0.00    +0.000 A 
ATOM     22  C   UNL     1       1.510   8.164  20.503  0.00  0.00    +0.000 A 
ATOM     23  C   UNL     1       2.285   7.376  19.654  0.00  0.00    +0.000 A 
ATOM     24  C   UNL     1       2.433   7.717  18.314  0.00  0.00    +0.000 A 
ATOM     25  C   UNL     1       1.960   8.962  17.892  0.00  0.00    +0.000 A 
ATOM     26  C   UNL     1       1.251   9.790  18.778  0.00  0.00    +0.000 A 
BRANCH  21  32
ATOM     27  C   UNL     1      -0.648  11.341  20.676  0.00  0.00    +0.000 A 
ATOM     28  C   UNL     1      -1.505  11.949  21.614  0.00  0.00    +0.000 A 
ATOM     29  C   UNL     1      -1.636  11.449  22.906  0.00  0.00    +0.000 A 
ATOM     30  C   UNL     1      -0.914  10.331  23.281  0.00  0.00    +0.000 A 
ATOM     31  C   UNL     1      -0.071   9.714  22.356  0.00  0.00    +0.000 A 
ATOM     32  C   UNL     1       0.079  10.173  21.023  0.00  0.00    +0.000 A 
BRANCH  27  34
ATOM     33  C   UNL     1      -1.815  11.850  18.678  0.00  0.00    +0.000 C 
ATOM     34  O   UNL     1      -0.574  11.823  19.387  0.00  0.00    +0.000 OA
ENDBRANCH  27  34
ENDBRANCH  21  32
ENDBRANCH  20  24
ENDBRANCH   1  20
TORSDOF 10
ENDMDL
MODEL 5
REMARK VINA RESULT:      -8.0      1.243      1.586
REMARK  Name = 
REMARK  11 active torsions:
REMARK  status: ('A' for Active; 'I' for Inactive)
REMARK    1  A    between atoms: C_1  and  O_2
REMARK    2  A    between atoms: O_2  and  C_3
REMARK    3  A    between atoms: C_8  and  C_9
REMARK    4  A    between atoms: C_12  and  C_13
REMARK    5  A    between atoms: C_13  and  CA_14
REMARK    6  A    between atoms: CA_14  and  N_15
REMARK    7  A    between atoms: CA_14  and  C_28
REMARK    8  A    between atoms: C_16  and  C_18
REMARK    9  A    between atoms: C_18  and  C_19
REMARK   10  A    between atoms: C_23  and  N_24
REMARK   11  A    between atoms: C_28  and  OXT_30
REMARK                            x       y       z     vdW  Elec       q    Type
REMARK                         _______ _______ _______ _____ _____    ______ ____
ROOT
ATOM      1  CA  UNL     1       6.653   6.516  17.148  0.00  0.00    +0.000 C 
ENDROOT
BRANCH   1   2
ATOM      2  N   UNL     1       5.356   6.236  17.794  0.00  0.00    +0.000 N 
ATOM      3  C   UNL     1       4.163   6.810  17.399  0.00  0.00    +0.000 C 
ATOM      4  O   UNL     1       4.092   7.559  16.436  0.00  0.00    +0.000 OA
ATOM      5  H   UNL     1       5.367   5.612  18.595  0.00  0.00    +0.000 HD
BRANCH   3   6
ATOM      6  C   UNL     1       2.937   6.369  18.185  0.00  0.00    +0.000 C 
BRANCH   6   7
ATOM      7  C   UNL     1       2.815   4.879  18.414  0.00  0.00    +0.000 A 
ATOM      8  C   UNL     1       2.391   4.023  17.386  0.00  0.00    +0.000 A 
ATOM      9  C   UNL     1       2.375   2.636  17.565  0.00  0.00    +0.000 A 
ATOM     10  C   UNL     1       2.787   2.077  18.776  0.00  0.00    +0.000 A 
ATOM     11  C   UNL     1       3.209   2.920  19.808  0.00  0.00    +0.000 A 
ATOM     12  C   UNL     1       3.219   4.317  19.636  0.00  0.00    +0.000 A 
BRANCH  11  13
ATOM     13  N   UNL     1       3.673   2.342  21.078  0.00  0.00    +0.000 N 
ATOM     14  O   UNL     1       2.879   2.333  22.032  0.00  0.00    +0.000 OA
ATOM     15  O   UNL     1       4.827   1.897  21.122  0.00  0.00    +0.000 OA
ENDBRANCH  11  13
ENDBRANCH   6   7
ENDBRANCH   3   6
ENDBRANCH   1   2
BRANCH   1  16
ATOM     16  C   UNL     1       6.967   5.453  16.075  0.00  0.00    +0.000 C 
ATOM     17  O   UNL     1       7.831   4.588  16.130  0.00  0.00    +0.000 OA
BRANCH  16  18
ATOM     18  OXT UNL     1       6.252   5.634  14.929  0.00  0.00    +0.000 OA
ATOM     19  HXT UNL     1       5.309   5.813  15.121  0.00  0.00    +0.000 HD
ENDBRANCH  16  18
ENDBRANCH   1  16
BRANCH   1  20
ATOM     20  C   UNL     1       7.786   6.779  18.161  0.00  0.00    +0.000 C 
BRANCH  20  24
ATOM     21  C   UNL     1       9.109  10.917  18.363  0.00  0.00    +0.000 A 
ATOM     22  C   UNL     1       8.182  10.463  17.406  0.00  0.00    +0.000 A 
ATOM     23  C   UNL     1       7.657   9.172  17.431  0.00  0.00    +0.000 A 
ATOM     24  C   UNL     1       8.127   8.237  18.348  0.00  0.00    +0.000 A 
ATOM     25  C   UNL     1       8.980   8.677  19.361  0.00  0.00    +0.000 A 
ATOM     26  C   UNL     1       9.440  10.004  19.378  0.00  0.00    +0.000 A 
BRANCH  21  32
ATOM     27  C   UNL     1       9.445  13.351  19.183  0.00  0.00    +0.000 A 
ATOM     28  C   UNL     1      10.111  14.584  19.038  0.00  0.00    +0.000 A 
ATOM     29  C   UNL     1      10.985  14.815  17.981  0.00  0.00    +0.000 A 
ATOM     30  C   UNL     1      11.209  13.817  17.051  0.00  0.00    +0.000 A 
ATOM     31  C   UNL     1      10.564  12.588  17.191  0.00  0.00    +0.000 A 
ATOM     32  C   UNL     1       9.683  12.297  18.263  0.00  0.00    +0.000 A 
BRANCH  27  34
ATOM     33  C   UNL     1       9.295  13.043  21.527  0.00  0.00    +0.000 C 
ATOM     34  O   UNL     1       8.625  13.126  20.267  0.00  0.00    +0.000 OA
ENDBRANCH  27  34
ENDBRANCH  21  32
ENDBRANCH  20  24
ENDBRANCH   1  20
TORSDOF 10
ENDMDL
MODEL 6
REMARK VINA RESULT:      -7.8      7.422     10.849
REMARK  Name = 
REMARK  11 active torsions:
REMARK  status: ('A' for Active; 'I' for Inactive)
REMARK    1  A    between atoms: C_1  and  O_2
REMARK    2  A    between atoms: O_2  and  C_3
REMARK    3  A    between atoms: C_8  and  C_9
REMARK    4  A    between atoms: C_12  and  C_13
REMARK    5  A    between atoms: C_13  and  CA_14
REMARK    6  A    between atoms: CA_14  and  N_15
REMARK    7  A    between atoms: CA_14  and  C_28
REMARK    8  A    between atoms: C_16  and  C_18
REMARK    9  A    between atoms: C_18  and  C_19
REMARK   10  A    between atoms: C_23  and  N_24
REMARK   11  A    between atoms: C_28  and  OXT_30
REMARK                            x       y       z     vdW  Elec       q    Type
REMARK                         _______ _______ _______ _____ _____    ______ ____
ROOT
ATOM      1  CA  UNL     1      -0.546  10.621  20.882  0.00  0.00    +0.000 C 
ENDROOT
BRANCH   1   2
ATOM      2  N   UNL     1      -1.579  10.768  19.840  0.00  0.00    +0.000 N 
ATOM      3  C   UNL     1      -1.793  11.935  19.131  0.00  0.00    +0.000 C 
ATOM      4  O   UNL     1      -1.094  12.925  19.287  0.00  0.00    +0.000 OA
ATOM      5  H   UNL     1      -2.180   9.967  19.671  0.00  0.00    +0.000 HD
BRANCH   3   6
ATOM      6  C   UNL     1      -2.895  11.868  18.084  0.00  0.00    +0.000 C 
BRANCH   6   7
ATOM      7  C   UNL     1      -4.301  11.752  18.628  0.00  0.00    +0.000 A 
ATOM      8  C   UNL     1      -5.269  10.980  17.967  0.00  0.00    +0.000 A 
ATOM      9  C   UNL     1      -6.539  10.789  18.522  0.00  0.00    +0.000 A 
ATOM     10  C   UNL     1      -6.864  11.363  19.752  0.00  0.00    +0.000 A 
ATOM     11  C   UNL     1      -5.909  12.136  20.418  0.00  0.00    +0.000 A 
ATOM     12  C   UNL     1      -4.631  12.338  19.860  0.00  0.00    +0.000 A 
BRANCH  11  13
ATOM     13  N   UNL     1      -6.229  12.722  21.728  0.00  0.00    +0.000 N 
ATOM     14  O   UNL     1      -7.251  13.421  21.813  0.00  0.00    +0.000 OA
ATOM     15  O   UNL     1      -5.462  12.484  22.670  0.00  0.00    +0.000 OA
ENDBRANCH  11  13
ENDBRANCH   6   7
ENDBRANCH   3   6
ENDBRANCH   1   2
BRANCH   1  16
ATOM     16  C   UNL     1      -0.815  11.586  22.056  0.00  0.00    +0.000 C 
ATOM     17  O   UNL     1      -1.755  11.547  22.836  0.00  0.00    +0.000 OA
BRANCH  16  18
ATOM     18  OXT UNL     1       0.059  12.631  22.088  0.00  0.00    +0.000 OA
ATOM     19  HXT UNL     1       0.536  12.725  21.238  0.00  0.00    +0.000 HD
ENDBRANCH  16  18
ENDBRANCH   1  16
BRANCH   1  20
ATOM     20  C   UNL     1       0.889  10.659  20.317  0.00  0.00    +0.000 C 
BRANCH  20  24
ATOM     21  C   UNL     1       2.568   7.117  18.434  0.00  0.00    +0.000 A 
ATOM     22  C   UNL     1       2.223   7.160  19.799  0.00  0.00    +0.000 A 
ATOM     23  C   UNL     1       1.560   8.246  20.366  0.00  0.00    +0.000 A 
ATOM     24  C   UNL     1       1.315   9.393  19.617  0.00  0.00    +0.000 A 
ATOM     25  C   UNL     1       1.566   9.351  18.244  0.00  0.00    +0.000 A 
ATOM     26  C   UNL     1       2.160   8.218  17.664  0.00  0.00    +0.000 A 
BRANCH  21  32
ATOM     27  C   UNL     1       2.806   4.639  17.719  0.00  0.00    +0.000 A 
ATOM     28  C   UNL     1       3.584   3.637  17.106  0.00  0.00    +0.000 A 
ATOM     29  C   UNL     1       4.884   3.890  16.679  0.00  0.00    +0.000 A 
ATOM     30  C   UNL     1       5.427   5.148  16.856  0.00  0.00    +0.000 A 
ATOM     31  C   UNL     1       4.662   6.152  17.453  0.00  0.00    +0.000 A 
ATOM     32  C   UNL     1       3.326   5.949  17.883  0.00  0.00    +0.000 A 
BRANCH  27  34
ATOM     33  C   UNL     1       1.268   3.068  18.602  0.00  0.00    +0.000 C 
ATOM     34  O   UNL     1       1.504   4.381  18.087  0.00  0.00    +0.000 OA
ENDBRANCH  27  34
ENDBRANCH  21  32
ENDBRANCH  20  24
ENDBRANCH   1  20
TORSDOF 10
ENDMDL
MODEL 7
REMARK VINA RESULT:      -7.7      7.833     10.886
REMARK  Name = 
REMARK  11 active torsions:
REMARK  status: ('A' for Active; 'I' for Inactive)
REMARK    1  A    between atoms: C_1  and  O_2
REMARK    2  A    between atoms: O_2  and  C_3
REMARK    3  A    between atoms: C_8  and  C_9
REMARK    4  A    between atoms: C_12  and  C_13
REMARK    5  A    between atoms: C_13  and  CA_14
REMARK    6  A    between atoms: CA_14  and  N_15
REMARK    7  A    between atoms: CA_14  and  C_28
REMARK    8  A    between atoms: C_16  and  C_18
REMARK    9  A    between atoms: C_18  and  C_19
REMARK   10  A    between atoms: C_23  and  N_24
REMARK   11  A    between atoms: C_28  and  OXT_30
REMARK                            x       y       z     vdW  Elec       q    Type
REMARK                         _______ _______ _______ _____ _____    ______ ____
ROOT
ATOM      1  CA  UNL     1      -0.392  10.493  21.352  0.00  0.00    +0.000 C 
ENDROOT
BRANCH   1   2
ATOM      2  N   UNL     1      -1.026  11.821  21.463  0.00  0.00    +0.000 N 
ATOM      3  C   UNL     1      -1.905  12.332  20.527  0.00  0.00    +0.000 C 
ATOM      4  O   UNL     1      -2.265  11.685  19.555  0.00  0.00    +0.000 OA
ATOM      5  H   UNL     1      -0.762  12.390  22.261  0.00  0.00    +0.000 HD
BRANCH   3   6
ATOM      6  C   UNL     1      -2.462  13.712  20.844  0.00  0.00    +0.000 C 
BRANCH   6   7
ATOM      7  C   UNL     1      -3.907  13.741  21.289  0.00  0.00    +0.000 A 
ATOM      8  C   UNL     1      -4.890  14.370  20.509  0.00  0.00    +0.000 A 
ATOM      9  C   UNL     1      -6.240  14.310  20.868  0.00  0.00    +0.000 A 
ATOM     10  C   UNL     1      -6.635  13.616  22.013  0.00  0.00    +0.000 A 
ATOM     11  C   UNL     1      -5.665  12.988  22.799  0.00  0.00    +0.000 A 
ATOM     12  C   UNL     1      -4.303  13.052  22.447  0.00  0.00    +0.000 A 
BRANCH  11  13
ATOM     13  N   UNL     1      -6.071  12.229  23.991  0.00  0.00    +0.000 N 
ATOM     14  O   UNL     1      -7.226  11.776  24.020  0.00  0.00    +0.000 OA
ATOM     15  O   UNL     1      -5.239  12.087  24.896  0.00  0.00    +0.000 OA
ENDBRANCH  11  13
ENDBRANCH   6   7
ENDBRANCH   3   6
ENDBRANCH   1   2
BRANCH   1  16
ATOM     16  C   UNL     1      -0.417   9.761  22.709  0.00  0.00    +0.000 C 
ATOM     17  O   UNL     1       0.082  10.145  23.758  0.00  0.00    +0.000 OA
BRANCH  16  18
ATOM     18  OXT UNL     1      -0.962   8.515  22.626  0.00  0.00    +0.000 OA
ATOM     19  HXT UNL     1      -1.189   8.164  23.511  0.00  0.00    +0.000 HD
ENDBRANCH  16  18
ENDBRANCH   1  16
BRANCH   1  20
ATOM     20  C   UNL     1       0.985  10.540  20.657  0.00  0.00    +0.000 C 
BRANCH  20  24
ATOM     21  C   UNL     1       2.437   7.060  18.488  0.00  0.00    +0.000 A 
ATOM     22  C   UNL     1       2.235   7.056  19.882  0.00  0.00    +0.000 A 
ATOM     23  C   UNL     1       1.641   8.124  20.553  0.00  0.00    +0.000 A 
ATOM     24  C   UNL     1       1.328   9.297  19.873  0.00  0.00    +0.000 A 
ATOM     25  C   UNL     1       1.435   9.303  18.481  0.00  0.00    +0.000 A 
ATOM     26  C   UNL     1       1.958   8.190  17.803  0.00  0.00    +0.000 A 
BRANCH  21  32
ATOM     27  C   UNL     1       4.417   5.961  17.233  0.00  0.00    +0.000 A 
ATOM     28  C   UNL     1       5.005   4.791  16.711  0.00  0.00    +0.000 A 
ATOM     29  C   UNL     1       4.332   3.574  16.726  0.00  0.00    +0.000 A 
ATOM     30  C   UNL     1       3.061   3.503  17.264  0.00  0.00    +0.000 A 
ATOM     31  C   UNL     1       2.472   4.653  17.793  0.00  0.00    +0.000 A 
ATOM     32  C   UNL     1       3.126   5.911  17.821  0.00  0.00    +0.000 A 
BRANCH  27  34
ATOM     33  C   UNL     1       6.539   7.002  17.379  0.00  0.00    +0.000 C 
ATOM     34  O   UNL     1       5.122   7.144  17.255  0.00  0.00    +0.000 OA
ENDBRANCH  27  34
ENDBRANCH  21  32
ENDBRANCH  20  24
ENDBRANCH   1  20
TORSDOF 10
ENDMDL
MODEL 8
REMARK VINA RESULT:      -7.6      5.632      8.316
REMARK  Name = 
REMARK  11 active torsions:
REMARK  status: ('A' for Active; 'I' for Inactive)
REMARK    1  A    between atoms: C_1  and  O_2
REMARK    2  A    between atoms: O_2  and  C_3
REMARK    3  A    between atoms: C_8  and  C_9
REMARK    4  A    between atoms: C_12  and  C_13
REMARK    5  A    between atoms: C_13  and  CA_14
REMARK    6  A    between atoms: CA_14  and  N_15
REMARK    7  A    between atoms: CA_14  and  C_28
REMARK    8  A    between atoms: C_16  and  C_18
REMARK    9  A    between atoms: C_18  and  C_19
REMARK   10  A    between atoms: C_23  and  N_24
REMARK   11  A    between atoms: C_28  and  OXT_30
REMARK                            x       y       z     vdW  Elec       q    Type
REMARK                         _______ _______ _______ _____ _____    ______ ____
ROOT
ATOM      1  CA  UNL     1       3.718   5.925  18.833  0.00  0.00    +0.000 C 
ENDROOT
BRANCH   1   2
ATOM      2  N   UNL     1       4.956   5.589  18.104  0.00  0.00    +0.000 N 
ATOM      3  C   UNL     1       6.143   5.248  18.723  0.00  0.00    +0.000 C 
ATOM      4  O   UNL     1       6.234   5.149  19.938  0.00  0.00    +0.000 OA
ATOM      5  H   UNL     1       4.923   5.651  17.091  0.00  0.00    +0.000 HD
BRANCH   3   6
ATOM      6  C   UNL     1       7.294   4.916  17.786  0.00  0.00    +0.000 C 
BRANCH   6   7
ATOM      7  C   UNL     1       6.894   4.531  16.379  0.00  0.00    +0.000 A 
ATOM      8  C   UNL     1       5.746   3.760  16.140  0.00  0.00    +0.000 A 
ATOM      9  C   UNL     1       5.320   3.489  14.836  0.00  0.00    +0.000 A 
ATOM     10  C   UNL     1       6.031   3.989  13.744  0.00  0.00    +0.000 A 
ATOM     11  C   UNL     1       7.178   4.756  13.969  0.00  0.00    +0.000 A 
ATOM     12  C   UNL     1       7.616   5.024  15.281  0.00  0.00    +0.000 A 
BRANCH  11  13
ATOM     13  N   UNL     1       7.919   5.313  12.828  0.00  0.00    +0.000 N 
ATOM     14  O   UNL     1       8.883   6.054  13.073  0.00  0.00    +0.000 OA
ATOM     15  O   UNL     1       7.539   5.009  11.690  0.00  0.00    +0.000 OA
ENDBRANCH  11  13
ENDBRANCH   6   7
ENDBRANCH   3   6
ENDBRANCH   1   2
BRANCH   1  16
ATOM     16  C   UNL     1       3.074   4.656  19.427  0.00  0.00    +0.000 C 
ATOM     17  O   UNL     1       2.847   4.432  20.608  0.00  0.00    +0.000 OA
BRANCH  16  18
ATOM     18  OXT UNL     1       2.874   3.682  18.495  0.00  0.00    +0.000 OA
ATOM     19  HXT UNL     1       2.884   4.048  17.587  0.00  0.00    +0.000 HD
ENDBRANCH  16  18
ENDBRANCH   1  16
BRANCH   1  20
ATOM     20  C   UNL     1       2.765   6.825  18.019  0.00  0.00    +0.000 C 
BRANCH  20  24
ATOM     21  C   UNL     1       0.535   9.828  20.237  0.00  0.00    +0.000 A 
ATOM     22  C   UNL     1       0.991   8.633  20.826  0.00  0.00    +0.000 A 
ATOM     23  C   UNL     1       1.822   7.740  20.152  0.00  0.00    +0.000 A 
ATOM     24  C   UNL     1       2.137   7.945  18.813  0.00  0.00    +0.000 A 
ATOM     25  C   UNL     1       1.774   9.158  18.225  0.00  0.00    +0.000 A 
ATOM     26  C   UNL     1       1.006  10.092  18.940  0.00  0.00    +0.000 A 
BRANCH  21  32
ATOM     27  C   UNL     1      -1.260  11.689  20.392  0.00  0.00    +0.000 A 
ATOM     28  C   UNL     1      -2.161  12.422  21.188  0.00  0.00    +0.000 A 
ATOM     29  C   UNL     1      -2.209  12.256  22.568  0.00  0.00    +0.000 A 
ATOM     30  C   UNL     1      -1.358  11.353  23.176  0.00  0.00    +0.000 A 
ATOM     31  C   UNL     1      -0.468  10.613  22.396  0.00  0.00    +0.000 A 
ATOM     32  C   UNL     1      -0.398  10.730  20.985  0.00  0.00    +0.000 A 
BRANCH  27  34
ATOM     33  C   UNL     1      -2.466  11.401  18.373  0.00  0.00    +0.000 C 
ATOM     34  O   UNL     1      -1.267  11.832  19.022  0.00  0.00    +0.000 OA
ENDBRANCH  27  34
ENDBRANCH  21  32
ENDBRANCH  20  24
ENDBRANCH   1  20
TORSDOF 10
ENDMDL
MODEL 9
REMARK VINA RESULT:      -7.6      7.669     11.384
REMARK  Name = 
REMARK  11 active torsions:
REMARK  status: ('A' for Active; 'I' for Inactive)
REMARK    1  A    between atoms: C_1  and  O_2
REMARK    2  A    between atoms: O_2  and  C_3
REMARK    3  A    between atoms: C_8  and  C_9
REMARK    4  A    between atoms: C_12  and  C_13
REMARK    5  A    between atoms: C_13  and  CA_14
REMARK    6  A    between atoms: CA_14  and  N_15
REMARK    7  A    between atoms: CA_14  and  C_28
REMARK    8  A    between atoms: C_16  and  C_18
REMARK    9  A    between atoms: C_18  and  C_19
REMARK   10  A    between atoms: C_23  and  N_24
REMARK   11  A    between atoms: C_28  and  OXT_30
REMARK                            x       y       z     vdW  Elec       q    Type
REMARK                         _______ _______ _______ _____ _____    ______ ____
ROOT
ATOM      1  CA  UNL     1       0.253  11.418  20.754  0.00  0.00    +0.000 C 
ENDROOT
BRANCH   1   2
ATOM      2  N   UNL     1      -0.955  11.849  21.482  0.00  0.00    +0.000 N 
ATOM      3  C   UNL     1      -1.250  11.462  22.775  0.00  0.00    +0.000 C 
ATOM      4  O   UNL     1      -0.491  10.767  23.433  0.00  0.00    +0.000 OA
ATOM      5  H   UNL     1      -1.612  12.435  20.975  0.00  0.00    +0.000 HD
BRANCH   3   6
ATOM      6  C   UNL     1      -2.536  12.039  23.348  0.00  0.00    +0.000 C 
BRANCH   6   7
ATOM      7  C   UNL     1      -2.474  13.498  23.742  0.00  0.00    +0.000 A 
ATOM      8  C   UNL     1      -1.249  14.180  23.794  0.00  0.00    +0.000 A 
ATOM      9  C   UNL     1      -1.200  15.552  24.058  0.00  0.00    +0.000 A 
ATOM     10  C   UNL     1      -2.378  16.271  24.271  0.00  0.00    +0.000 A 
ATOM     11  C   UNL     1      -3.604  15.602  24.224  0.00  0.00    +0.000 A 
ATOM     12  C   UNL     1      -3.658  14.219  23.967  0.00  0.00    +0.000 A 
BRANCH  11  13
ATOM     13  N   UNL     1      -4.853  16.354  24.418  0.00  0.00    +0.000 N 
ATOM     14  O   UNL     1      -4.914  17.133  25.381  0.00  0.00    +0.000 OA
ATOM     15  O   UNL     1      -5.770  16.166  23.608  0.00  0.00    +0.000 OA
ENDBRANCH  11  13
ENDBRANCH   6   7
ENDBRANCH   3   6
ENDBRANCH   1   2
BRANCH   1  16
ATOM     16  C   UNL     1       1.170  12.622  20.457  0.00  0.00    +0.000 C 
ATOM     17  O   UNL     1       1.693  12.899  19.386  0.00  0.00    +0.000 OA
BRANCH  16  18
ATOM     18  OXT UNL     1       1.481  13.335  21.576  0.00  0.00    +0.000 OA
ATOM     19  HXT UNL     1       2.255  13.916  21.426  0.00  0.00    +0.000 HD
ENDBRANCH  16  18
ENDBRANCH   1  16
BRANCH   1  20
ATOM     20  C   UNL     1      -0.064  10.520  19.539  0.00  0.00    +0.000 C 
BRANCH  20  24
ATOM     21  C   UNL     1       2.646   7.305  18.431  0.00  0.00    +0.000 A 
ATOM     22  C   UNL     1       2.331   8.365  17.560  0.00  0.00    +0.000 A 
ATOM     23  C   UNL     1       1.574   9.463  17.966  0.00  0.00    +0.000 A 
ATOM     24  C   UNL     1       0.996   9.492  19.231  0.00  0.00    +0.000 A 
ATOM     25  C   UNL     1       1.358   8.501  20.146  0.00  0.00    +0.000 A 
ATOM     26  C   UNL     1       2.190   7.441  19.753  0.00  0.00    +0.000 A 
BRANCH  21  32
ATOM     27  C   UNL     1       2.935   4.790  17.885  0.00  0.00    +0.000 A 
ATOM     28  C   UNL     1       3.720   3.769  17.313  0.00  0.00    +0.000 A 
ATOM     29  C   UNL     1       4.993   4.028  16.815  0.00  0.00    +0.000 A 
ATOM     30  C   UNL     1       5.502   5.312  16.878  0.00  0.00    +0.000 A 
ATOM     31  C   UNL     1       4.730   6.332  17.434  0.00  0.00    +0.000 A 
ATOM     32  C   UNL     1       3.419   6.123  17.933  0.00  0.00    +0.000 A 
BRANCH  27  34
ATOM     33  C   UNL     1       1.319   3.133  18.392  0.00  0.00    +0.000 C 
ATOM     34  O   UNL     1       1.658   4.521  18.324  0.00  0.00    +0.000 OA
ENDBRANCH  27  34
ENDBRANCH  21  32
ENDBRANCH  20  24
ENDBRANCH   1  20
TORSDOF 10
ENDMDL
