MODEL 1
REMARK VINA RESULT:      -7.8      0.000      0.000
REMARK  Name = 
REMARK  2 active torsions:
REMARK  status: ('A' for Active; 'I' for Inactive)
REMARK    1  A    between atoms: C_1  and  N_2
REMARK    2  A    between atoms: N_14  and  C_15
REMARK                            x       y       z     vdW  Elec       q    Type
REMARK                         _______ _______ _______ _____ _____    ______ ____
ROOT
ATOM      1  C   UNL     1       7.888   5.490  19.143  0.00  0.00    +0.000 C 
ATOM      2  N   UNL     1       6.868   5.496  18.090  0.00  0.00    +0.000 NA
ATOM      3  C   UNL     1       6.169   6.789  18.098  0.00  0.00    +0.000 C 
ATOM      4  C   UNL     1       5.189   6.847  16.938  0.00  0.00    +0.000 C 
ATOM      5  C   UNL     1       4.135   5.742  16.992  0.00  0.00    +0.000 C 
ATOM      6  C   UNL     1       4.797   4.357  17.245  0.00  0.00    +0.000 C 
ATOM      7  C   UNL     1       5.901   4.412  18.317  0.00  0.00    +0.000 C 
ATOM      8  C   UNL     1       3.617   3.601  17.782  0.00  0.00    +0.000 A 
ATOM      9  C   UNL     1       3.442   2.232  17.910  0.00  0.00    +0.000 A 
ATOM     10  C   UNL     1       2.276   1.775  18.524  0.00  0.00    +0.000 A 
ATOM     11  C   UNL     1       1.315   2.685  18.992  0.00  0.00    +0.000 A 
ATOM     12  C   UNL     1       1.512   4.064  18.860  0.00  0.00    +0.000 A 
ATOM     13  C   UNL     1       2.675   4.521  18.263  0.00  0.00    +0.000 A 
ATOM     14  N   UNL     1       3.082   5.867  18.040  0.00  0.00    +0.000 N 
ENDROOT
BRANCH  14  15
ATOM     15  C   UNL     1       2.500   7.042  18.494  0.00  0.00    +0.000 A 
ATOM     16  C   UNL     1       2.146   8.048  17.578  0.00  0.00    +0.000 A 
ATOM     17  C   UNL     1       1.518   9.228  17.982  0.00  0.00    +0.000 A 
ATOM     18  C   UNL     1       1.219   9.427  19.324  0.00  0.00    +0.000 A 
ATOM     19  C   UNL     1       1.566   8.453  20.255  0.00  0.00    +0.000 A 
ATOM     20  C   UNL     1       2.212   7.281  19.842  0.00  0.00    +0.000 A 
ENDBRANCH  14  15
TORSDOF 1
ENDMDL
MODEL 2
REMARK VINA RESULT:      -7.8      0.096      1.076
REMARK  Name = 
REMARK  2 active torsions:
REMARK  status: ('A' for Active; 'I' for Inactive)
REMARK    1  A    between atoms: C_1  and  N_2
REMARK    2  A    between atoms: N_14  and  C_15
REMARK                            x       y       z     vdW  Elec       q    Type
REMARK                         _______ _______ _______ _____ _____    ______ ____
ROOT
ATOM      1  C   UNL     1       7.893   5.547  19.064  0.00  0.00    +0.000 C 
ATOM      2  N   UNL     1       6.865   5.512  18.018  0.00  0.00    +0.000 NA
ATOM      3  C   UNL     1       6.140   6.790  18.006  0.00  0.00    +0.000 C 
ATOM      4  C   UNL     1       5.150   6.805  16.853  0.00  0.00    +0.000 C 
ATOM      5  C   UNL     1       4.120   5.680  16.937  0.00  0.00    +0.000 C 
ATOM      6  C   UNL     1       4.812   4.314  17.212  0.00  0.00    +0.000 C 
ATOM      7  C   UNL     1       5.923   4.412  18.273  0.00  0.00    +0.000 C 
ATOM      8  C   UNL     1       3.652   3.544  17.773  0.00  0.00    +0.000 A 
ATOM      9  C   UNL     1       3.507   2.175  17.929  0.00  0.00    +0.000 A 
ATOM     10  C   UNL     1       2.355   1.706  18.560  0.00  0.00    +0.000 A 
ATOM     11  C   UNL     1       1.379   2.604  19.018  0.00  0.00    +0.000 A 
ATOM     12  C   UNL     1       1.547   3.984  18.858  0.00  0.00    +0.000 A 
ATOM     13  C   UNL     1       2.695   4.453  18.243  0.00  0.00    +0.000 A 
ATOM     14  N   UNL     1       3.073   5.803  17.991  0.00  0.00    +0.000 N 
ENDROOT
BRANCH  14  15
ATOM     15  C   UNL     1       2.469   6.975  18.427  0.00  0.00    +0.000 A 
ATOM     16  C   UNL     1       2.218   7.165  19.797  0.00  0.00    +0.000 A 
ATOM     17  C   UNL     1       1.654   8.345  20.288  0.00  0.00    +0.000 A 
ATOM     18  C   UNL     1       1.334   9.374  19.411  0.00  0.00    +0.000 A 
ATOM     19  C   UNL     1       1.562   9.210  18.049  0.00  0.00    +0.000 A 
ATOM     20  C   UNL     1       2.111   8.016  17.564  0.00  0.00    +0.000 A 
ENDBRANCH  14  15
TORSDOF 1
ENDMDL
MODEL 3
REMARK VINA RESULT:      -7.7      1.291      1.320
REMARK  Name = 
REMARK  2 active torsions:
REMARK  status: ('A' for Active; 'I' for Inactive)
REMARK    1  A    between atoms: C_1  and  N_2
REMARK    2  A    between atoms: N_14  and  C_15
REMARK                            x       y       z     vdW  Elec       q    Type
REMARK                         _______ _______ _______ _____ _____    ______ ____
ROOT
ATOM      1  C   UNL     1       7.832   6.058  18.776  0.00  0.00    +0.000 C 
ATOM      2  N   UNL     1       6.594   5.647  18.106  0.00  0.00    +0.000 NA
ATOM      3  C   UNL     1       5.800   6.839  17.776  0.00  0.00    +0.000 C 
ATOM      4  C   UNL     1       4.571   6.430  16.981  0.00  0.00    +0.000 C 
ATOM      5  C   UNL     1       3.668   5.457  17.738  0.00  0.00    +0.000 C 
ATOM      6  C   UNL     1       4.497   4.288  18.344  0.00  0.00    +0.000 C 
ATOM      7  C   UNL     1       5.814   4.762  18.984  0.00  0.00    +0.000 C 
ATOM      8  C   UNL     1       3.554   3.833  19.419  0.00  0.00    +0.000 A 
ATOM      9  C   UNL     1       3.543   2.638  20.122  0.00  0.00    +0.000 A 
ATOM     10  C   UNL     1       2.604   2.487  21.142  0.00  0.00    +0.000 A 
ATOM     11  C   UNL     1       1.701   3.521  21.438  0.00  0.00    +0.000 A 
ATOM     12  C   UNL     1       1.733   4.723  20.722  0.00  0.00    +0.000 A 
ATOM     13  C   UNL     1       2.672   4.881  19.717  0.00  0.00    +0.000 A 
ATOM     14  N   UNL     1       2.888   6.013  18.880  0.00  0.00    +0.000 N 
ENDROOT
BRANCH  14  15
ATOM     15  C   UNL     1       2.324   7.279  18.961  0.00  0.00    +0.000 A 
ATOM     16  C   UNL     1       2.185   8.059  17.799  0.00  0.00    +0.000 A 
ATOM     17  C   UNL     1       1.584   9.319  17.823  0.00  0.00    +0.000 A 
ATOM     18  C   UNL     1       1.095   9.828  19.019  0.00  0.00    +0.000 A 
ATOM     19  C   UNL     1       1.226   9.083  20.187  0.00  0.00    +0.000 A 
ATOM     20  C   UNL     1       1.847   7.828  20.156  0.00  0.00    +0.000 A 
ENDBRANCH  14  15
TORSDOF 1
ENDMDL
MODEL 4
REMARK VINA RESULT:      -7.7      1.585      3.870
REMARK  Name = 
REMARK  2 active torsions:
REMARK  status: ('A' for Active; 'I' for Inactive)
REMARK    1  A    between atoms: C_1  and  N_2
REMARK    2  A    between atoms: N_14  and  C_15
REMARK                            x       y       z     vdW  Elec       q    Type
REMARK                         _______ _______ _______ _____ _____    ______ ____
ROOT
ATOM      1  C   UNL     1       0.503   2.147  18.915  0.00  0.00    +0.000 C 
ATOM      2  N   UNL     1       1.622   2.908  19.479  0.00  0.00    +0.000 NA
ATOM      3  C   UNL     1       1.116   4.160  20.060  0.00  0.00    +0.000 C 
ATOM      4  C   UNL     1       2.251   4.901  20.747  0.00  0.00    +0.000 C 
ATOM      5  C   UNL     1       3.394   5.252  19.797  0.00  0.00    +0.000 C 
ATOM      6  C   UNL     1       3.813   4.015  18.952  0.00  0.00    +0.000 C 
ATOM      7  C   UNL     1       2.606   3.214  18.430  0.00  0.00    +0.000 C 
ATOM      8  C   UNL     1       4.490   4.704  17.803  0.00  0.00    +0.000 A 
ATOM      9  C   UNL     1       5.356   4.177  16.857  0.00  0.00    +0.000 A 
ATOM     10  C   UNL     1       5.790   5.013  15.829  0.00  0.00    +0.000 A 
ATOM     11  C   UNL     1       5.356   6.346  15.764  0.00  0.00    +0.000 A 
ATOM     12  C   UNL     1       4.476   6.858  16.724  0.00  0.00    +0.000 A 
ATOM     13  C   UNL     1       4.033   6.027  17.740  0.00  0.00    +0.000 A 
ATOM     14  N   UNL     1       3.135   6.332  18.802  0.00  0.00    +0.000 N 
ENDROOT
BRANCH  14  15
ATOM     15  C   UNL     1       2.370   7.473  18.998  0.00  0.00    +0.000 A 
ATOM     16  C   UNL     1       2.032   8.286  17.902  0.00  0.00    +0.000 A 
ATOM     17  C   UNL     1       1.228   9.420  18.043  0.00  0.00    +0.000 A 
ATOM     18  C   UNL     1       0.733   9.763  19.295  0.00  0.00    +0.000 A 
ATOM     19  C   UNL     1       1.059   8.983  20.400  0.00  0.00    +0.000 A 
ATOM     20  C   UNL     1       1.881   7.859  20.251  0.00  0.00    +0.000 A 
ENDBRANCH  14  15
TORSDOF 1
ENDMDL
MODEL 5
REMARK VINA RESULT:      -7.7      1.280      1.678
REMARK  Name = 
REMARK  2 active torsions:
REMARK  status: ('A' for Active; 'I' for Inactive)
REMARK    1  A    between atoms: C_1  and  N_2
REMARK    2  A    between atoms: N_14  and  C_15
REMARK                            x       y       z     vdW  Elec       q    Type
REMARK                         _______ _______ _______ _____ _____    ______ ____
ROOT
ATOM      1  C   UNL     1       7.817   6.177  18.685  0.00  0.00    +0.000 C 
ATOM      2  N   UNL     1       6.586   5.732  18.024  0.00  0.00    +0.000 NA
ATOM      3  C   UNL     1       5.767   6.903  17.680  0.00  0.00    +0.000 C 
ATOM      4  C   UNL     1       4.545   6.459  16.894  0.00  0.00    +0.000 C 
ATOM      5  C   UNL     1       3.663   5.480  17.667  0.00  0.00    +0.000 C 
ATOM      6  C   UNL     1       4.516   4.335  18.286  0.00  0.00    +0.000 C 
ATOM      7  C   UNL     1       5.826   4.844  18.916  0.00  0.00    +0.000 C 
ATOM      8  C   UNL     1       3.585   3.876  19.370  0.00  0.00    +0.000 A 
ATOM      9  C   UNL     1       3.600   2.691  20.089  0.00  0.00    +0.000 A 
ATOM     10  C   UNL     1       2.666   2.535  21.113  0.00  0.00    +0.000 A 
ATOM     11  C   UNL     1       1.745   3.555  21.397  0.00  0.00    +0.000 A 
ATOM     12  C   UNL     1       1.750   4.747  20.665  0.00  0.00    +0.000 A 
ATOM     13  C   UNL     1       2.684   4.910  19.656  0.00  0.00    +0.000 A 
ATOM     14  N   UNL     1       2.875   6.035  18.803  0.00  0.00    +0.000 N 
ENDROOT
BRANCH  14  15
ATOM     15  C   UNL     1       2.286   7.290  18.868  0.00  0.00    +0.000 A 
ATOM     16  C   UNL     1       1.863   7.802  20.108  0.00  0.00    +0.000 A 
ATOM     17  C   UNL     1       1.306   9.077  20.230  0.00  0.00    +0.000 A 
ATOM     18  C   UNL     1       1.166   9.879  19.105  0.00  0.00    +0.000 A 
ATOM     19  C   UNL     1       1.567   9.396  17.863  0.00  0.00    +0.000 A 
ATOM     20  C   UNL     1       2.108   8.110  17.749  0.00  0.00    +0.000 A 
ENDBRANCH  14  15
TORSDOF 1
ENDMDL
MODEL 6
REMARK VINA RESULT:      -7.7      1.571      3.993
REMARK  Name = 
REMARK  2 active torsions:
REMARK  status: ('A' for Active; 'I' for Inactive)
REMARK    1  A    between atoms: C_1  and  N_2
REMARK    2  A    between atoms: N_14  and  C_15
REMARK                            x       y       z     vdW  Elec       q    Type
REMARK                         _______ _______ _______ _____ _____    ______ ____
ROOT
ATOM      1  C   UNL     1       0.577   2.075  18.947  0.00  0.00    +0.000 C 
ATOM      2  N   UNL     1       1.686   2.868  19.487  0.00  0.00    +0.000 NA
ATOM      3  C   UNL     1       1.162   4.126  20.039  0.00  0.00    +0.000 C 
ATOM      4  C   UNL     1       2.288   4.902  20.702  0.00  0.00    +0.000 C 
ATOM      5  C   UNL     1       3.422   5.246  19.738  0.00  0.00    +0.000 C 
ATOM      6  C   UNL     1       3.857   3.995  18.923  0.00  0.00    +0.000 C 
ATOM      7  C   UNL     1       2.660   3.163  18.426  0.00  0.00    +0.000 C 
ATOM      8  C   UNL     1       4.518   4.665  17.754  0.00  0.00    +0.000 A 
ATOM      9  C   UNL     1       5.389   4.128  16.818  0.00  0.00    +0.000 A 
ATOM     10  C   UNL     1       5.805   4.944  15.767  0.00  0.00    +0.000 A 
ATOM     11  C   UNL     1       5.350   6.268  15.671  0.00  0.00    +0.000 A 
ATOM     12  C   UNL     1       4.466   6.790  16.622  0.00  0.00    +0.000 A 
ATOM     13  C   UNL     1       4.041   5.979  17.660  0.00  0.00    +0.000 A 
ATOM     14  N   UNL     1       3.142   6.297  18.718  0.00  0.00    +0.000 N 
ENDROOT
BRANCH  14  15
ATOM     15  C   UNL     1       2.360   7.431  18.889  0.00  0.00    +0.000 A 
ATOM     16  C   UNL     1       1.896   7.774  20.170  0.00  0.00    +0.000 A 
ATOM     17  C   UNL     1       1.144   8.929  20.399  0.00  0.00    +0.000 A 
ATOM     18  C   UNL     1       0.844   9.778  19.341  0.00  0.00    +0.000 A 
ATOM     19  C   UNL     1       1.282   9.459  18.060  0.00  0.00    +0.000 A 
ATOM     20  C   UNL     1       2.020   8.289  17.838  0.00  0.00    +0.000 A 
ENDBRANCH  14  15
TORSDOF 1
ENDMDL
MODEL 7
REMARK VINA RESULT:      -6.8      2.364      4.666
REMARK  Name = 
REMARK  2 active torsions:
REMARK  status: ('A' for Active; 'I' for Inactive)
REMARK    1  A    between atoms: C_1  and  N_2
REMARK    2  A    between atoms: N_14  and  C_15
REMARK                            x       y       z     vdW  Elec       q    Type
REMARK                         _______ _______ _______ _____ _____    ______ ____
ROOT
ATOM      1  C   UNL     1       8.370   5.309  19.798  0.00  0.00    +0.000 C 
ATOM      2  N   UNL     1       7.329   5.929  18.973  0.00  0.00    +0.000 NA
ATOM      3  C   UNL     1       6.007   5.509  19.461  0.00  0.00    +0.000 C 
ATOM      4  C   UNL     1       4.921   6.235  18.684  0.00  0.00    +0.000 C 
ATOM      5  C   UNL     1       4.978   5.962  17.182  0.00  0.00    +0.000 C 
ATOM      6  C   UNL     1       6.426   6.139  16.641  0.00  0.00    +0.000 C 
ATOM      7  C   UNL     1       7.488   5.523  17.569  0.00  0.00    +0.000 C 
ATOM      8  C   UNL     1       6.332   5.327  15.382  0.00  0.00    +0.000 A 
ATOM      9  C   UNL     1       7.172   5.327  14.279  0.00  0.00    +0.000 A 
ATOM     10  C   UNL     1       6.914   4.410  13.260  0.00  0.00    +0.000 A 
ATOM     11  C   UNL     1       5.833   3.521  13.359  0.00  0.00    +0.000 A 
ATOM     12  C   UNL     1       5.000   3.532  14.483  0.00  0.00    +0.000 A 
ATOM     13  C   UNL     1       5.261   4.432  15.503  0.00  0.00    +0.000 A 
ATOM     14  N   UNL     1       4.557   4.605  16.729  0.00  0.00    +0.000 N 
ENDROOT
BRANCH  14  15
ATOM     15  C   UNL     1       3.545   3.827  17.272  0.00  0.00    +0.000 A 
ATOM     16  C   UNL     1       3.830   2.531  17.737  0.00  0.00    +0.000 A 
ATOM     17  C   UNL     1       2.855   1.727  18.332  0.00  0.00    +0.000 A 
ATOM     18  C   UNL     1       1.561   2.211  18.483  0.00  0.00    +0.000 A 
ATOM     19  C   UNL     1       1.246   3.485  18.024  0.00  0.00    +0.000 A 
ATOM     20  C   UNL     1       2.227   4.276  17.413  0.00  0.00    +0.000 A 
ENDBRANCH  14  15
TORSDOF 1
ENDMDL
MODEL 8
REMARK VINA RESULT:      -6.5      2.396      4.602
REMARK  Name = 
REMARK  2 active torsions:
REMARK  status: ('A' for Active; 'I' for Inactive)
REMARK    1  A    between atoms: C_1  and  N_2
REMARK    2  A    between atoms: N_14  and  C_15
REMARK                            x       y       z     vdW  Elec       q    Type
REMARK                         _______ _______ _______ _____ _____    ______ ____
ROOT
ATOM      1  C   UNL     1       8.491   5.293  19.753  0.00  0.00    +0.000 C 
ATOM      2  N   UNL     1       7.429   5.916  18.956  0.00  0.00    +0.000 NA
ATOM      3  C   UNL     1       6.120   5.496  19.476  0.00  0.00    +0.000 C 
ATOM      4  C   UNL     1       5.015   6.225  18.729  0.00  0.00    +0.000 C 
ATOM      5  C   UNL     1       5.033   5.955  17.226  0.00  0.00    +0.000 C 
ATOM      6  C   UNL     1       6.467   6.132  16.648  0.00  0.00    +0.000 C 
ATOM      7  C   UNL     1       7.552   5.513  17.547  0.00  0.00    +0.000 C 
ATOM      8  C   UNL     1       6.340   5.323  15.390  0.00  0.00    +0.000 A 
ATOM      9  C   UNL     1       7.152   5.324  14.266  0.00  0.00    +0.000 A 
ATOM     10  C   UNL     1       6.867   4.410  13.252  0.00  0.00    +0.000 A 
ATOM     11  C   UNL     1       5.788   3.522  13.377  0.00  0.00    +0.000 A 
ATOM     12  C   UNL     1       4.984   3.531  14.522  0.00  0.00    +0.000 A 
ATOM     13  C   UNL     1       5.271   4.429  15.536  0.00  0.00    +0.000 A 
ATOM     14  N   UNL     1       4.600   4.600  16.781  0.00  0.00    +0.000 N 
ENDROOT
BRANCH  14  15
ATOM     15  C   UNL     1       3.601   3.821  17.348  0.00  0.00    +0.000 A 
ATOM     16  C   UNL     1       2.303   4.344  17.492  0.00  0.00    +0.000 A 
ATOM     17  C   UNL     1       1.255   3.584  18.016  0.00  0.00    +0.000 A 
ATOM     18  C   UNL     1       1.482   2.269  18.403  0.00  0.00    +0.000 A 
ATOM     19  C   UNL     1       2.757   1.728  18.281  0.00  0.00    +0.000 A 
ATOM     20  C   UNL     1       3.806   2.504  17.771  0.00  0.00    +0.000 A 
ENDBRANCH  14  15
TORSDOF 1
ENDMDL
MODEL 9
REMARK VINA RESULT:      -6.5      1.922      5.278
REMARK  Name = 
REMARK  2 active torsions:
REMARK  status: ('A' for Active; 'I' for Inactive)
REMARK    1  A    between atoms: C_1  and  N_2
REMARK    2  A    between atoms: N_14  and  C_15
REMARK                            x       y       z     vdW  Elec       q    Type
REMARK                         _______ _______ _______ _____ _____    ______ ____
ROOT
ATOM      1  C   UNL     1       3.430   2.131  21.417  0.00  0.00    +0.000 C 
ATOM      2  N   UNL     1       2.812   2.511  20.143  0.00  0.00    +0.000 NA
ATOM      3  C   UNL     1       3.724   2.174  19.040  0.00  0.00    +0.000 C 
ATOM      4  C   UNL     1       3.046   2.460  17.711  0.00  0.00    +0.000 C 
ATOM      5  C   UNL     1       2.636   3.923  17.553  0.00  0.00    +0.000 C 
ATOM      6  C   UNL     1       1.880   4.427  18.816  0.00  0.00    +0.000 C 
ATOM      7  C   UNL     1       2.532   3.955  20.128  0.00  0.00    +0.000 C 
ATOM      8  C   UNL     1       2.079   5.907  18.664  0.00  0.00    +0.000 A 
ATOM      9  C   UNL     1       1.399   6.947  19.277  0.00  0.00    +0.000 A 
ATOM     10  C   UNL     1       1.833   8.249  19.031  0.00  0.00    +0.000 A 
ATOM     11  C   UNL     1       2.927   8.487  18.185  0.00  0.00    +0.000 A 
ATOM     12  C   UNL     1       3.606   7.423  17.580  0.00  0.00    +0.000 A 
ATOM     13  C   UNL     1       3.186   6.128  17.832  0.00  0.00    +0.000 A 
ATOM     14  N   UNL     1       3.733   4.910  17.338  0.00  0.00    +0.000 N 
ENDROOT
BRANCH  14  15
ATOM     15  C   UNL     1       4.900   4.707  16.615  0.00  0.00    +0.000 A 
ATOM     16  C   UNL     1       4.833   4.455  15.233  0.00  0.00    +0.000 A 
ATOM     17  C   UNL     1       5.981   4.289  14.456  0.00  0.00    +0.000 A 
ATOM     18  C   UNL     1       7.235   4.380  15.048  0.00  0.00    +0.000 A 
ATOM     19  C   UNL     1       7.333   4.620  16.414  0.00  0.00    +0.000 A 
ATOM     20  C   UNL     1       6.175   4.767  17.189  0.00  0.00    +0.000 A 
ENDBRANCH  14  15
TORSDOF 1
ENDMDL
