MODEL 1
REMARK VINA RESULT:      -8.8      0.000      0.000
REMARK  Name = 
REMARK  6 active torsions:
REMARK  status: ('A' for Active; 'I' for Inactive)
REMARK    1  A    between atoms: C_1  and  C_2
REMARK    2  A    between atoms: C_5  and  C_6
REMARK    3  A    between atoms: C_7  and  C_8
REMARK    4  A    between atoms: C_13  and  C_15
REMARK    5  A    between atoms: C_18  and  S_19
REMARK    6  A    between atoms: S_19  and  C_20
REMARK                            x       y       z     vdW  Elec       q    Type
REMARK                         _______ _______ _______ _____ _____    ______ ____
ROOT
ATOM      1  C   UNL     1       4.544   4.653  17.605  0.00  0.00    +0.000 A 
ATOM      2  C   UNL     1       4.205   3.530  18.343  0.00  0.00    +0.000 A 
ATOM      3  S   UNL     1       3.241   3.990  19.700  0.00  0.00    +0.000 S 
ATOM      4  C   UNL     1       3.285   5.604  19.153  0.00  0.00    +0.000 A 
ATOM      5  N   UNL     1       2.533   6.501  19.863  0.00  0.00    +0.000 N 
ATOM      6  C   UNL     1       2.251   7.749  19.336  0.00  0.00    +0.000 C 
ATOM      7  O   UNL     1       2.559   8.174  18.233  0.00  0.00    +0.000 OA
ATOM      8  N   UNL     1       4.025   5.828  18.107  0.00  0.00    +0.000 NA
ATOM      9  H   UNL     1       2.071   6.163  20.690  0.00  0.00    +0.000 HD
ENDROOT
BRANCH   1  16
ATOM     10  C   UNL     1       5.091   3.490  12.776  0.00  0.00    +0.000 C 
ATOM     11  C   UNL     1       5.654   4.086  14.032  0.00  0.00    +0.000 A 
ATOM     12  C   UNL     1       6.965   4.560  14.072  0.00  0.00    +0.000 A 
ATOM     13  C   UNL     1       7.487   5.080  15.255  0.00  0.00    +0.000 A 
ATOM     14  C   UNL     1       6.711   5.138  16.426  0.00  0.00    +0.000 A 
ATOM     15  C   UNL     1       7.361   5.690  17.670  0.00  0.00    +0.000 C 
ATOM     16  C   UNL     1       5.376   4.666  16.399  0.00  0.00    +0.000 A 
ATOM     17  C   UNL     1       4.867   4.148  15.193  0.00  0.00    +0.000 A 
ENDBRANCH   1  16
BRANCH   6  18
ATOM     18  C   UNL     1       1.411   8.632  20.194  0.00  0.00    +0.000 A 
ATOM     19  C   UNL     1       0.751   9.759  19.694  0.00  0.00    +0.000 A 
ATOM     20  C   UNL     1      -0.083  10.521  20.533  0.00  0.00    +0.000 A 
ATOM     21  C   UNL     1      -0.281  10.169  21.873  0.00  0.00    +0.000 A 
ATOM     22  C   UNL     1       0.410   9.051  22.366  0.00  0.00    +0.000 A 
ATOM     23  C   UNL     1       1.236   8.280  21.532  0.00  0.00    +0.000 A 
BRANCH  21  24
ATOM     24  S   UNL     1      -1.314  11.057  23.050  0.00  0.00    +0.000 S 
BRANCH  24  25
ATOM     25  C   UNL     1      -1.980  12.523  22.142  0.00  0.00    +0.000 C 
ATOM     26  C   UNL     1      -3.475  12.752  22.390  0.00  0.00    +0.000 C 
ATOM     27  C   UNL     1      -3.812  13.291  23.781  0.00  0.00    +0.000 C 
ATOM     28  C   UNL     1      -2.982  14.502  24.193  0.00  0.00    +0.000 C 
ATOM     29  C   UNL     1      -1.492  14.371  23.890  0.00  0.00    +0.000 C 
ATOM     30  C   UNL     1      -1.199  13.801  22.503  0.00  0.00    +0.000 C 
ENDBRANCH  24  25
ENDBRANCH  21  24
ENDBRANCH   6  18
TORSDOF 4
ENDMDL
MODEL 2
REMARK VINA RESULT:      -8.7      1.044      1.327
REMARK  Name = 
REMARK  6 active torsions:
REMARK  status: ('A' for Active; 'I' for Inactive)
REMARK    1  A    between atoms: C_1  and  C_2
REMARK    2  A    between atoms: C_5  and  C_6
REMARK    3  A    between atoms: C_7  and  C_8
REMARK    4  A    between atoms: C_13  and  C_15
REMARK    5  A    between atoms: C_18  and  S_19
REMARK    6  A    between atoms: S_19  and  C_20
REMARK                            x       y       z     vdW  Elec       q    Type
REMARK                         _______ _______ _______ _____ _____    ______ ____
ROOT
ATOM      1  C   UNL     1       4.085   4.841  18.636  0.00  0.00    +0.000 A 
ATOM      2  C   UNL     1       3.524   3.755  19.289  0.00  0.00    +0.000 A 
ATOM      3  S   UNL     1       2.383   4.303  20.464  0.00  0.00    +0.000 S 
ATOM      4  C   UNL     1       2.665   5.905  19.955  0.00  0.00    +0.000 A 
ATOM      5  N   UNL     1       1.884   6.868  20.535  0.00  0.00    +0.000 N 
ATOM      6  C   UNL     1       1.809   8.135  19.984  0.00  0.00    +0.000 C 
ATOM      7  O   UNL     1       2.342   8.528  18.958  0.00  0.00    +0.000 OA
ATOM      8  N   UNL     1       3.592   6.060  19.057  0.00  0.00    +0.000 NA
ATOM      9  H   UNL     1       1.257   6.575  21.265  0.00  0.00    +0.000 HD
ENDROOT
BRANCH   1  16
ATOM     10  C   UNL     1       5.293   3.907  13.879  0.00  0.00    +0.000 C 
ATOM     11  C   UNL     1       5.712   4.307  15.262  0.00  0.00    +0.000 A 
ATOM     12  C   UNL     1       7.056   4.527  15.567  0.00  0.00    +0.000 A 
ATOM     13  C   UNL     1       7.435   4.865  16.864  0.00  0.00    +0.000 A 
ATOM     14  C   UNL     1       6.480   4.991  17.889  0.00  0.00    +0.000 A 
ATOM     15  C   UNL     1       6.978   5.333  19.271  0.00  0.00    +0.000 C 
ATOM     16  C   UNL     1       5.112   4.777  17.594  0.00  0.00    +0.000 A 
ATOM     17  C   UNL     1       4.750   4.441  16.276  0.00  0.00    +0.000 A 
ENDBRANCH   1  16
BRANCH   6  18
ATOM     18  C   UNL     1       0.915   9.092  20.696  0.00  0.00    +0.000 A 
ATOM     19  C   UNL     1       0.369  10.217  20.070  0.00  0.00    +0.000 A 
ATOM     20  C   UNL     1      -0.523  11.052  20.769  0.00  0.00    +0.000 A 
ATOM     21  C   UNL     1      -0.892  10.776  22.089  0.00  0.00    +0.000 A 
ATOM     22  C   UNL     1      -0.315   9.658  22.711  0.00  0.00    +0.000 A 
ATOM     23  C   UNL     1       0.568   8.814  22.018  0.00  0.00    +0.000 A 
BRANCH  21  24
ATOM     24  S   UNL     1      -2.016  11.760  23.094  0.00  0.00    +0.000 S 
BRANCH  24  25
ATOM     25  C   UNL     1      -2.602  13.136  22.006  0.00  0.00    +0.000 C 
ATOM     26  C   UNL     1      -3.949  12.838  21.339  0.00  0.00    +0.000 C 
ATOM     27  C   UNL     1      -5.151  12.894  22.284  0.00  0.00    +0.000 C 
ATOM     28  C   UNL     1      -5.211  14.158  23.134  0.00  0.00    +0.000 C 
ATOM     29  C   UNL     1      -3.876  14.557  23.756  0.00  0.00    +0.000 C 
ATOM     30  C   UNL     1      -2.698  14.459  22.788  0.00  0.00    +0.000 C 
ENDBRANCH  24  25
ENDBRANCH  21  24
ENDBRANCH   6  18
TORSDOF 4
ENDMDL
MODEL 3
REMARK VINA RESULT:      -8.7      0.935      1.653
REMARK  Name = 
REMARK  6 active torsions:
REMARK  status: ('A' for Active; 'I' for Inactive)
REMARK    1  A    between atoms: C_1  and  C_2
REMARK    2  A    between atoms: C_5  and  C_6
REMARK    3  A    between atoms: C_7  and  C_8
REMARK    4  A    between atoms: C_13  and  C_15
REMARK    5  A    between atoms: C_18  and  S_19
REMARK    6  A    between atoms: S_19  and  C_20
REMARK                            x       y       z     vdW  Elec       q    Type
REMARK                         _______ _______ _______ _____ _____    ______ ____
ROOT
ATOM      1  C   UNL     1       4.521   5.201  17.578  0.00  0.00    +0.000 A 
ATOM      2  C   UNL     1       4.211   4.206  18.491  0.00  0.00    +0.000 A 
ATOM      3  S   UNL     1       3.155   4.834  19.705  0.00  0.00    +0.000 S 
ATOM      4  C   UNL     1       3.134   6.325  18.880  0.00  0.00    +0.000 A 
ATOM      5  N   UNL     1       2.298   7.283  19.388  0.00  0.00    +0.000 N 
ATOM      6  C   UNL     1       1.971   8.398  18.636  0.00  0.00    +0.000 C 
ATOM      7  O   UNL     1       2.310   8.640  17.488  0.00  0.00    +0.000 OA
ATOM      8  N   UNL     1       3.911   6.410  17.841  0.00  0.00    +0.000 NA
ATOM      9  H   UNL     1       1.815   7.067  20.244  0.00  0.00    +0.000 HD
ENDROOT
BRANCH   1  16
ATOM     10  C   UNL     1       5.228   3.579  12.906  0.00  0.00    +0.000 C 
ATOM     11  C   UNL     1       5.766   4.249  14.134  0.00  0.00    +0.000 A 
ATOM     12  C   UNL     1       7.102   4.646  14.204  0.00  0.00    +0.000 A 
ATOM     13  C   UNL     1       7.598   5.237  15.364  0.00  0.00    +0.000 A 
ATOM     14  C   UNL     1       6.771   5.446  16.482  0.00  0.00    +0.000 A 
ATOM     15  C   UNL     1       7.394   6.068  17.707  0.00  0.00    +0.000 C 
ATOM     16  C   UNL     1       5.411   5.056  16.423  0.00  0.00    +0.000 A 
ATOM     17  C   UNL     1       4.929   4.463  15.240  0.00  0.00    +0.000 A 
ENDBRANCH   1  16
BRANCH   6  18
ATOM     18  C   UNL     1       1.041   9.361  19.289  0.00  0.00    +0.000 A 
ATOM     19  C   UNL     1       0.903   9.448  20.678  0.00  0.00    +0.000 A 
ATOM     20  C   UNL     1       0.059  10.421  21.246  0.00  0.00    +0.000 A 
ATOM     21  C   UNL     1      -0.648  11.325  20.445  0.00  0.00    +0.000 A 
ATOM     22  C   UNL     1      -0.519  11.207  19.053  0.00  0.00    +0.000 A 
ATOM     23  C   UNL     1       0.329  10.245  18.479  0.00  0.00    +0.000 A 
BRANCH  21  24
ATOM     24  S   UNL     1      -1.759  12.610  21.041  0.00  0.00    +0.000 S 
BRANCH  24  25
ATOM     25  C   UNL     1      -1.644  12.569  22.887  0.00  0.00    +0.000 C 
ATOM     26  C   UNL     1      -1.263  13.925  23.492  0.00  0.00    +0.000 C 
ATOM     27  C   UNL     1      -2.376  14.973  23.450  0.00  0.00    +0.000 C 
ATOM     28  C   UNL     1      -3.716  14.475  23.983  0.00  0.00    +0.000 C 
ATOM     29  C   UNL     1      -4.110  13.089  23.483  0.00  0.00    +0.000 C 
ATOM     30  C   UNL     1      -2.963  12.080  23.513  0.00  0.00    +0.000 C 
ENDBRANCH  24  25
ENDBRANCH  21  24
ENDBRANCH   6  18
TORSDOF 4
ENDMDL
MODEL 4
REMARK VINA RESULT:      -8.6      0.718      1.101
REMARK  Name = 
REMARK  6 active torsions:
REMARK  status: ('A' for Active; 'I' for Inactive)
REMARK    1  A    between atoms: C_1  and  C_2
REMARK    2  A    between atoms: C_5  and  C_6
REMARK    3  A    between atoms: C_7  and  C_8
REMARK    4  A    between atoms: C_13  and  C_15
REMARK    5  A    between atoms: C_18  and  S_19
REMARK    6  A    between atoms: S_19  and  C_20
REMARK                            x       y       z     vdW  Elec       q    Type
REMARK                         _______ _______ _______ _____ _____    ______ ____
ROOT
ATOM      1  C   UNL     1       4.490   4.807  17.931  0.00  0.00    +0.000 A 
ATOM      2  C   UNL     1       4.117   3.710  18.690  0.00  0.00    +0.000 A 
ATOM      3  S   UNL     1       3.095   4.215  19.987  0.00  0.00    +0.000 S 
ATOM      4  C   UNL     1       3.166   5.809  19.390  0.00  0.00    +0.000 A 
ATOM      5  N   UNL     1       2.386   6.730  20.036  0.00  0.00    +0.000 N 
ATOM      6  C   UNL     1       2.129   7.961  19.457  0.00  0.00    +0.000 C 
ATOM      7  O   UNL     1       2.487   8.348  18.355  0.00  0.00    +0.000 OA
ATOM      8  N   UNL     1       3.952   5.999  18.371  0.00  0.00    +0.000 NA
ATOM      9  H   UNL     1       1.887   6.420  20.853  0.00  0.00    +0.000 HD
ENDROOT
BRANCH   1  16
ATOM     10  C   UNL     1       5.136   3.794  13.081  0.00  0.00    +0.000 C 
ATOM     11  C   UNL     1       5.700   4.272  14.386  0.00  0.00    +0.000 A 
ATOM     12  C   UNL     1       7.051   4.599  14.503  0.00  0.00    +0.000 A 
ATOM     13  C   UNL     1       7.569   5.009  15.730  0.00  0.00    +0.000 A 
ATOM     14  C   UNL     1       6.749   5.102  16.869  0.00  0.00    +0.000 A 
ATOM     15  C   UNL     1       7.396   5.528  18.163  0.00  0.00    +0.000 C 
ATOM     16  C   UNL     1       5.375   4.780  16.763  0.00  0.00    +0.000 A 
ATOM     17  C   UNL     1       4.870   4.372  15.514  0.00  0.00    +0.000 A 
ENDBRANCH   1  16
BRANCH   6  18
ATOM     18  C   UNL     1       1.255   8.872  20.247  0.00  0.00    +0.000 A 
ATOM     19  C   UNL     1       0.434   9.833  19.648  0.00  0.00    +0.000 A 
ATOM     20  C   UNL     1      -0.422  10.623  20.438  0.00  0.00    +0.000 A 
ATOM     21  C   UNL     1      -0.483  10.463  21.826  0.00  0.00    +0.000 A 
ATOM     22  C   UNL     1       0.366   9.512  22.414  0.00  0.00    +0.000 A 
ATOM     23  C   UNL     1       1.216   8.713  21.633  0.00  0.00    +0.000 A 
BRANCH  21  24
ATOM     24  S   UNL     1      -1.528  11.407  22.948  0.00  0.00    +0.000 S 
BRANCH  24  25
ATOM     25  C   UNL     1      -0.974  13.166  22.803  0.00  0.00    +0.000 C 
ATOM     26  C   UNL     1      -1.047  13.699  21.368  0.00  0.00    +0.000 C 
ATOM     27  C   UNL     1      -2.465  13.963  20.861  0.00  0.00    +0.000 C 
ATOM     28  C   UNL     1      -3.319  14.793  21.814  0.00  0.00    +0.000 C 
ATOM     29  C   UNL     1      -3.221  14.365  23.275  0.00  0.00    +0.000 C 
ATOM     30  C   UNL     1      -1.790  14.082  23.733  0.00  0.00    +0.000 C 
ENDBRANCH  24  25
ENDBRANCH  21  24
ENDBRANCH   6  18
TORSDOF 4
ENDMDL
MODEL 5
REMARK VINA RESULT:      -8.5      1.540      2.010
REMARK  Name = 
REMARK  6 active torsions:
REMARK  status: ('A' for Active; 'I' for Inactive)
REMARK    1  A    between atoms: C_1  and  C_2
REMARK    2  A    between atoms: C_5  and  C_6
REMARK    3  A    between atoms: C_7  and  C_8
REMARK    4  A    between atoms: C_13  and  C_15
REMARK    5  A    between atoms: C_18  and  S_19
REMARK    6  A    between atoms: S_19  and  C_20
REMARK                            x       y       z     vdW  Elec       q    Type
REMARK                         _______ _______ _______ _____ _____    ______ ____
ROOT
ATOM      1  C   UNL     1       4.050   5.472  18.405  0.00  0.00    +0.000 A 
ATOM      2  C   UNL     1       3.479   4.600  19.318  0.00  0.00    +0.000 A 
ATOM      3  S   UNL     1       2.255   5.417  20.221  0.00  0.00    +0.000 S 
ATOM      4  C   UNL     1       2.525   6.812  19.280  0.00  0.00    +0.000 A 
ATOM      5  N   UNL     1       1.686   7.868  19.513  0.00  0.00    +0.000 N 
ATOM      6  C   UNL     1       1.612   8.916  18.613  0.00  0.00    +0.000 C 
ATOM      7  O   UNL     1       2.196   9.015  17.545  0.00  0.00    +0.000 OA
ATOM      8  N   UNL     1       3.502   6.738  18.425  0.00  0.00    +0.000 NA
ATOM      9  H   UNL     1       1.023   7.773  20.264  0.00  0.00    +0.000 HD
ENDROOT
BRANCH   1  16
ATOM     10  C   UNL     1       5.503   3.997  13.858  0.00  0.00    +0.000 C 
ATOM     11  C   UNL     1       5.858   4.415  15.253  0.00  0.00    +0.000 A 
ATOM     12  C   UNL     1       7.185   4.415  15.684  0.00  0.00    +0.000 A 
ATOM     13  C   UNL     1       7.498   4.773  16.994  0.00  0.00    +0.000 A 
ATOM     14  C   UNL     1       6.492   5.140  17.905  0.00  0.00    +0.000 A 
ATOM     15  C   UNL     1       6.913   5.487  19.311  0.00  0.00    +0.000 C 
ATOM     16  C   UNL     1       5.141   5.151  17.480  0.00  0.00    +0.000 A 
ATOM     17  C   UNL     1       4.847   4.790  16.152  0.00  0.00    +0.000 A 
ENDBRANCH   1  16
BRANCH   6  18
ATOM     18  C   UNL     1       0.652   9.999  18.966  0.00  0.00    +0.000 A 
ATOM     19  C   UNL     1      -0.527  10.222  18.247  0.00  0.00    +0.000 A 
ATOM     20  C   UNL     1      -1.431  11.216  18.664  0.00  0.00    +0.000 A 
ATOM     21  C   UNL     1      -1.186  11.991  19.802  0.00  0.00    +0.000 A 
ATOM     22  C   UNL     1       0.014  11.772  20.498  0.00  0.00    +0.000 A 
ATOM     23  C   UNL     1       0.918  10.776  20.094  0.00  0.00    +0.000 A 
BRANCH  21  24
ATOM     24  S   UNL     1      -2.255  13.292  20.439  0.00  0.00    +0.000 S 
BRANCH  24  25
ATOM     25  C   UNL     1      -3.212  12.532  21.827  0.00  0.00    +0.000 C 
ATOM     26  C   UNL     1      -2.443  12.532  23.153  0.00  0.00    +0.000 C 
ATOM     27  C   UNL     1      -2.316  13.905  23.814  0.00  0.00    +0.000 C 
ATOM     28  C   UNL     1      -3.636  14.661  23.929  0.00  0.00    +0.000 C 
ATOM     29  C   UNL     1      -4.489  14.624  22.665  0.00  0.00    +0.000 C 
ATOM     30  C   UNL     1      -4.566  13.240  22.020  0.00  0.00    +0.000 C 
ENDBRANCH  24  25
ENDBRANCH  21  24
ENDBRANCH   6  18
TORSDOF 4
ENDMDL
MODEL 6
REMARK VINA RESULT:      -8.5      1.687      2.026
REMARK  Name = 
REMARK  6 active torsions:
REMARK  status: ('A' for Active; 'I' for Inactive)
REMARK    1  A    between atoms: C_1  and  C_2
REMARK    2  A    between atoms: C_5  and  C_6
REMARK    3  A    between atoms: C_7  and  C_8
REMARK    4  A    between atoms: C_13  and  C_15
REMARK    5  A    between atoms: C_18  and  S_19
REMARK    6  A    between atoms: S_19  and  C_20
REMARK                            x       y       z     vdW  Elec       q    Type
REMARK                         _______ _______ _______ _____ _____    ______ ____
ROOT
ATOM      1  C   UNL     1       4.107   5.549  18.114  0.00  0.00    +0.000 A 
ATOM      2  C   UNL     1       3.509   4.676  19.008  0.00  0.00    +0.000 A 
ATOM      3  S   UNL     1       2.320   5.514  19.940  0.00  0.00    +0.000 S 
ATOM      4  C   UNL     1       2.636   6.921  19.032  0.00  0.00    +0.000 A 
ATOM      5  N   UNL     1       1.837   8.001  19.296  0.00  0.00    +0.000 N 
ATOM      6  C   UNL     1       1.797   9.073  18.423  0.00  0.00    +0.000 C 
ATOM      7  O   UNL     1       2.378   9.178  17.354  0.00  0.00    +0.000 OA
ATOM      8  N   UNL     1       3.605   6.833  18.169  0.00  0.00    +0.000 NA
ATOM      9  H   UNL     1       1.176   7.911  20.049  0.00  0.00    +0.000 HD
ENDROOT
BRANCH   1  16
ATOM     10  C   UNL     1       5.473   3.921  13.592  0.00  0.00    +0.000 C 
ATOM     11  C   UNL     1       5.855   4.402  14.960  0.00  0.00    +0.000 A 
ATOM     12  C   UNL     1       7.193   4.443  15.356  0.00  0.00    +0.000 A 
ATOM     13  C   UNL     1       7.531   4.859  16.642  0.00  0.00    +0.000 A 
ATOM     14  C   UNL     1       6.541   5.243  17.564  0.00  0.00    +0.000 A 
ATOM     15  C   UNL     1       6.991   5.654  18.944  0.00  0.00    +0.000 C 
ATOM     16  C   UNL     1       5.180   5.213  17.174  0.00  0.00    +0.000 A 
ATOM     17  C   UNL     1       4.859   4.793  15.870  0.00  0.00    +0.000 A 
ENDBRANCH   1  16
BRANCH   6  18
ATOM     18  C   UNL     1       0.879  10.181  18.809  0.00  0.00    +0.000 A 
ATOM     19  C   UNL     1      -0.514  10.048  18.778  0.00  0.00    +0.000 A 
ATOM     20  C   UNL     1      -1.334  11.104  19.217  0.00  0.00    +0.000 A 
ATOM     21  C   UNL     1      -0.787  12.296  19.702  0.00  0.00    +0.000 A 
ATOM     22  C   UNL     1       0.611  12.423  19.702  0.00  0.00    +0.000 A 
ATOM     23  C   UNL     1       1.438  11.371  19.275  0.00  0.00    +0.000 A 
BRANCH  21  24
ATOM     24  S   UNL     1      -1.721  13.719  20.288  0.00  0.00    +0.000 S 
BRANCH  24  25
ATOM     25  C   UNL     1      -1.222  13.966  22.052  0.00  0.00    +0.000 C 
ATOM     26  C   UNL     1      -2.155  14.918  22.809  0.00  0.00    +0.000 C 
ATOM     27  C   UNL     1      -3.528  14.332  23.138  0.00  0.00    +0.000 C 
ATOM     28  C   UNL     1      -3.473  12.957  23.796  0.00  0.00    +0.000 C 
ATOM     29  C   UNL     1      -2.494  11.989  23.139  0.00  0.00    +0.000 C 
ATOM     30  C   UNL     1      -1.145  12.621  22.799  0.00  0.00    +0.000 C 
ENDBRANCH  24  25
ENDBRANCH  21  24
ENDBRANCH   6  18
TORSDOF 4
ENDMDL
MODEL 7
REMARK VINA RESULT:      -8.4      0.760      1.217
REMARK  Name = 
REMARK  6 active torsions:
REMARK  status: ('A' for Active; 'I' for Inactive)
REMARK    1  A    between atoms: C_1  and  C_2
REMARK    2  A    between atoms: C_5  and  C_6
REMARK    3  A    between atoms: C_7  and  C_8
REMARK    4  A    between atoms: C_13  and  C_15
REMARK    5  A    between atoms: C_18  and  S_19
REMARK    6  A    between atoms: S_19  and  C_20
REMARK                            x       y       z     vdW  Elec       q    Type
REMARK                         _______ _______ _______ _____ _____    ______ ____
ROOT
ATOM      1  C   UNL     1       4.469   4.742  18.127  0.00  0.00    +0.000 A 
ATOM      2  C   UNL     1       4.108   3.607  18.834  0.00  0.00    +0.000 A 
ATOM      3  S   UNL     1       3.069   4.039  20.145  0.00  0.00    +0.000 S 
ATOM      4  C   UNL     1       3.120   5.659  19.619  0.00  0.00    +0.000 A 
ATOM      5  N   UNL     1       2.321   6.539  20.299  0.00  0.00    +0.000 N 
ATOM      6  C   UNL     1       2.050   7.790  19.772  0.00  0.00    +0.000 C 
ATOM      7  O   UNL     1       2.409   8.231  18.692  0.00  0.00    +0.000 OA
ATOM      8  N   UNL     1       3.910   5.905  18.615  0.00  0.00    +0.000 NA
ATOM      9  H   UNL     1       1.822   6.186  21.097  0.00  0.00    +0.000 HD
ENDROOT
BRANCH   1  16
ATOM     10  C   UNL     1       5.254   3.702  13.304  0.00  0.00    +0.000 C 
ATOM     11  C   UNL     1       5.757   4.260  14.602  0.00  0.00    +0.000 A 
ATOM     12  C   UNL     1       7.068   4.722  14.721  0.00  0.00    +0.000 A 
ATOM     13  C   UNL     1       7.532   5.206  15.943  0.00  0.00    +0.000 A 
ATOM     14  C   UNL     1       6.697   5.240  17.074  0.00  0.00    +0.000 A 
ATOM     15  C   UNL     1       7.287   5.754  18.363  0.00  0.00    +0.000 C 
ATOM     16  C   UNL     1       5.362   4.780  16.966  0.00  0.00    +0.000 A 
ATOM     17  C   UNL     1       4.912   4.299  15.722  0.00  0.00    +0.000 A 
ENDBRANCH   1  16
BRANCH   6  18
ATOM     18  C   UNL     1       1.156   8.652  20.595  0.00  0.00    +0.000 A 
ATOM     19  C   UNL     1       1.149   8.607  21.994  0.00  0.00    +0.000 A 
ATOM     20  C   UNL     1       0.333   9.490  22.725  0.00  0.00    +0.000 A 
ATOM     21  C   UNL     1      -0.476  10.433  22.082  0.00  0.00    +0.000 A 
ATOM     22  C   UNL     1      -0.478  10.446  20.678  0.00  0.00    +0.000 A 
ATOM     23  C   UNL     1       0.341   9.575  19.941  0.00  0.00    +0.000 A 
BRANCH  21  24
ATOM     24  S   UNL     1      -1.565  11.613  22.895  0.00  0.00    +0.000 S 
BRANCH  24  25
ATOM     25  C   UNL     1      -1.842  12.977  21.678  0.00  0.00    +0.000 C 
ATOM     26  C   UNL     1      -3.064  13.838  22.013  0.00  0.00    +0.000 C 
ATOM     27  C   UNL     1      -2.876  14.767  23.213  0.00  0.00    +0.000 C 
ATOM     28  C   UNL     1      -1.599  15.599  23.158  0.00  0.00    +0.000 C 
ATOM     29  C   UNL     1      -0.359  14.813  22.744  0.00  0.00    +0.000 C 
ATOM     30  C   UNL     1      -0.597  13.876  21.560  0.00  0.00    +0.000 C 
ENDBRANCH  24  25
ENDBRANCH  21  24
ENDBRANCH   6  18
TORSDOF 4
ENDMDL
MODEL 8
REMARK VINA RESULT:      -8.2      1.768      2.354
REMARK  Name = 
REMARK  6 active torsions:
REMARK  status: ('A' for Active; 'I' for Inactive)
REMARK    1  A    between atoms: C_1  and  C_2
REMARK    2  A    between atoms: C_5  and  C_6
REMARK    3  A    between atoms: C_7  and  C_8
REMARK    4  A    between atoms: C_13  and  C_15
REMARK    5  A    between atoms: C_18  and  S_19
REMARK    6  A    between atoms: S_19  and  C_20
REMARK                            x       y       z     vdW  Elec       q    Type
REMARK                         _______ _______ _______ _____ _____    ______ ____
ROOT
ATOM      1  C   UNL     1       4.016   5.510  18.319  0.00  0.00    +0.000 A 
ATOM      2  C   UNL     1       3.429   4.639  19.223  0.00  0.00    +0.000 A 
ATOM      3  S   UNL     1       2.217   5.468  20.132  0.00  0.00    +0.000 S 
ATOM      4  C   UNL     1       2.512   6.867  19.205  0.00  0.00    +0.000 A 
ATOM      5  N   UNL     1       1.690   7.935  19.446  0.00  0.00    +0.000 N 
ATOM      6  C   UNL     1       1.636   8.992  18.555  0.00  0.00    +0.000 C 
ATOM      7  O   UNL     1       2.223   9.092  17.490  0.00  0.00    +0.000 OA
ATOM      8  N   UNL     1       3.489   6.785  18.350  0.00  0.00    +0.000 NA
ATOM      9  H   UNL     1       1.025   7.844  20.195  0.00  0.00    +0.000 HD
ENDROOT
BRANCH   1  16
ATOM     10  C   UNL     1       5.450   3.997  13.779  0.00  0.00    +0.000 C 
ATOM     11  C   UNL     1       5.811   4.425  15.169  0.00  0.00    +0.000 A 
ATOM     12  C   UNL     1       7.140   4.425  15.595  0.00  0.00    +0.000 A 
ATOM     13  C   UNL     1       7.457   4.792  16.902  0.00  0.00    +0.000 A 
ATOM     14  C   UNL     1       6.455   5.168  17.813  0.00  0.00    +0.000 A 
ATOM     15  C   UNL     1       6.882   5.525  19.215  0.00  0.00    +0.000 C 
ATOM     16  C   UNL     1       5.103   5.180  17.393  0.00  0.00    +0.000 A 
ATOM     17  C   UNL     1       4.803   4.809  16.069  0.00  0.00    +0.000 A 
ENDBRANCH   1  16
BRANCH   6  18
ATOM     18  C   UNL     1       0.693  10.088  18.918  0.00  0.00    +0.000 A 
ATOM     19  C   UNL     1      -0.500  10.313  18.223  0.00  0.00    +0.000 A 
ATOM     20  C   UNL     1      -1.386  11.320  18.648  0.00  0.00    +0.000 A 
ATOM     21  C   UNL     1      -1.108  12.106  19.771  0.00  0.00    +0.000 A 
ATOM     22  C   UNL     1       0.105  11.885  20.442  0.00  0.00    +0.000 A 
ATOM     23  C   UNL     1       0.991  10.876  20.030  0.00  0.00    +0.000 A 
BRANCH  21  24
ATOM     24  S   UNL     1      -2.151  13.423  20.417  0.00  0.00    +0.000 S 
BRANCH  24  25
ATOM     25  C   UNL     1      -3.578  12.586  21.243  0.00  0.00    +0.000 C 
ATOM     26  C   UNL     1      -3.903  13.178  22.619  0.00  0.00    +0.000 C 
ATOM     27  C   UNL     1      -4.563  14.557  22.577  0.00  0.00    +0.000 C 
ATOM     28  C   UNL     1      -5.756  14.644  21.631  0.00  0.00    +0.000 C 
ATOM     29  C   UNL     1      -5.524  13.993  20.271  0.00  0.00    +0.000 C 
ATOM     30  C   UNL     1      -4.836  12.631  20.356  0.00  0.00    +0.000 C 
ENDBRANCH  24  25
ENDBRANCH  21  24
ENDBRANCH   6  18
TORSDOF 4
ENDMDL
MODEL 9
REMARK VINA RESULT:      -8.1      1.596      2.050
REMARK  Name = 
REMARK  6 active torsions:
REMARK  status: ('A' for Active; 'I' for Inactive)
REMARK    1  A    between atoms: C_1  and  C_2
REMARK    2  A    between atoms: C_5  and  C_6
REMARK    3  A    between atoms: C_7  and  C_8
REMARK    4  A    between atoms: C_13  and  C_15
REMARK    5  A    between atoms: C_18  and  S_19
REMARK    6  A    between atoms: S_19  and  C_20
REMARK                            x       y       z     vdW  Elec       q    Type
REMARK                         _______ _______ _______ _____ _____    ______ ____
ROOT
ATOM      1  C   UNL     1       4.448   5.267  17.619  0.00  0.00    +0.000 A 
ATOM      2  C   UNL     1       4.109   4.294  18.544  0.00  0.00    +0.000 A 
ATOM      3  S   UNL     1       3.014   4.948  19.708  0.00  0.00    +0.000 S 
ATOM      4  C   UNL     1       3.018   6.420  18.849  0.00  0.00    +0.000 A 
ATOM      5  N   UNL     1       2.166   7.388  19.307  0.00  0.00    +0.000 N 
ATOM      6  C   UNL     1       1.863   8.484  18.519  0.00  0.00    +0.000 C 
ATOM      7  O   UNL     1       2.238   8.701  17.377  0.00  0.00    +0.000 OA
ATOM      8  N   UNL     1       3.829   6.481  17.834  0.00  0.00    +0.000 NA
ATOM      9  H   UNL     1       1.656   7.191  20.151  0.00  0.00    +0.000 HD
ENDROOT
BRANCH   1  16
ATOM     10  C   UNL     1       5.294   3.579  12.993  0.00  0.00    +0.000 C 
ATOM     11  C   UNL     1       5.798   4.258  14.231  0.00  0.00    +0.000 A 
ATOM     12  C   UNL     1       7.136   4.638  14.343  0.00  0.00    +0.000 A 
ATOM     13  C   UNL     1       7.600   5.237  15.513  0.00  0.00    +0.000 A 
ATOM     14  C   UNL     1       6.737   5.471  16.598  0.00  0.00    +0.000 A 
ATOM     15  C   UNL     1       7.326   6.099  17.837  0.00  0.00    +0.000 C 
ATOM     16  C   UNL     1       5.375   5.097  16.497  0.00  0.00    +0.000 A 
ATOM     17  C   UNL     1       4.926   4.497  15.305  0.00  0.00    +0.000 A 
ENDBRANCH   1  16
BRANCH   6  18
ATOM     18  C   UNL     1       0.911   9.461  19.119  0.00  0.00    +0.000 A 
ATOM     19  C   UNL     1       0.876   9.730  20.491  0.00  0.00    +0.000 A 
ATOM     20  C   UNL     1       0.002  10.711  20.997  0.00  0.00    +0.000 A 
ATOM     21  C   UNL     1      -0.836  11.443  20.150  0.00  0.00    +0.000 A 
ATOM     22  C   UNL     1      -0.808  11.143  18.779  0.00  0.00    +0.000 A 
ATOM     23  C   UNL     1       0.068  10.173  18.265  0.00  0.00    +0.000 A 
BRANCH  21  24
ATOM     24  S   UNL     1      -1.998  12.717  20.667  0.00  0.00    +0.000 S 
BRANCH  24  25
ATOM     25  C   UNL     1      -1.237  14.331  20.180  0.00  0.00    +0.000 C 
ATOM     26  C   UNL     1      -1.825  15.523  20.942  0.00  0.00    +0.000 C 
ATOM     27  C   UNL     1      -1.400  15.612  22.408  0.00  0.00    +0.000 C 
ATOM     28  C   UNL     1       0.105  15.493  22.624  0.00  0.00    +0.000 C 
ATOM     29  C   UNL     1       0.765  14.376  21.822  0.00  0.00    +0.000 C 
ATOM     30  C   UNL     1       0.291  14.303  20.371  0.00  0.00    +0.000 C 
ENDBRANCH  24  25
ENDBRANCH  21  24
ENDBRANCH   6  18
TORSDOF 4
ENDMDL
