MODEL 1
REMARK VINA RESULT:      -7.2      0.000      0.000
REMARK  Name = 
REMARK  11 active torsions:
REMARK  status: ('A' for Active; 'I' for Inactive)
REMARK    1  A    between atoms: C_1  and  C_2
REMARK    2  A    between atoms: C_2  and  N_3
REMARK    3  A    between atoms: N_3  and  C_4
REMARK    4  A    between atoms: C_9  and  N_10
REMARK    5  A    between atoms: N_13  and  C_14
REMARK    6  A    between atoms: C_14  and  C_15
REMARK    7  A    between atoms: C_15  and  C_16
REMARK    8  A    between atoms: C_20  and  C_21
REMARK    9  A    between atoms: C_22  and  O_23
REMARK   10  A    between atoms: C_24  and  C_25
REMARK   11  A    between atoms: C_26  and  C_27
REMARK                            x       y       z     vdW  Elec       q    Type
REMARK                         _______ _______ _______ _____ _____    ______ ____
ROOT
ATOM      1  C   UNL     1       1.760   9.073  19.944  0.00  0.00    +0.000 C 
ENDROOT
BRANCH   1   2
ATOM      2  C   UNL     1       0.824  10.340  19.904  0.00  0.00    +0.000 C 
ATOM      3  C   UNL     1       1.600  11.532  19.313  0.00  0.00    +0.000 C 
ATOM      4  C   UNL     1       0.366  10.584  21.346  0.00  0.00    +0.000 C 
ATOM      5  C   UNL     1      -0.583  11.763  21.428  0.00  0.00    +0.000 C 
ATOM      6  C   UNL     1      -1.636  11.711  20.350  0.00  0.00    +0.000 A 
ATOM      7  C   UNL     1      -2.795  12.517  20.422  0.00  0.00    +0.000 A 
ATOM      8  C   UNL     1      -3.043  13.445  21.585  0.00  0.00    +0.000 C 
ATOM      9  C   UNL     1      -3.740  12.436  19.378  0.00  0.00    +0.000 A 
ATOM     10  C   UNL     1      -3.561  11.588  18.270  0.00  0.00    +0.000 A 
ATOM     11  C   UNL     1      -4.597  11.547  17.173  0.00  0.00    +0.000 C 
ATOM     12  C   UNL     1      -2.401  10.789  18.204  0.00  0.00    +0.000 A 
ATOM     13  C   UNL     1      -2.151   9.846  17.052  0.00  0.00    +0.000 C 
ATOM     14  C   UNL     1      -1.443  10.868  19.239  0.00  0.00    +0.000 A 
ATOM     15  O   UNL     1      -0.338  10.055  19.101  0.00  0.00    +0.000 OA
BRANCH   9  16
ATOM     16  O   UNL     1      -4.888  13.187  19.402  0.00  0.00    +0.000 OA
ATOM     17  H   UNL     1      -5.365  13.104  18.564  0.00  0.00    +0.000 HD
ENDBRANCH   9  16
ENDBRANCH   1   2
BRANCH   1  21
ATOM     18  N   UNL     1       3.810   6.629  18.057  0.00  0.00    +0.000 N 
ATOM     19  C   UNL     1       3.394   7.894  17.444  0.00  0.00    +0.000 C 
ATOM     20  C   UNL     1       1.864   8.075  17.709  0.00  0.00    +0.000 C 
ATOM     21  N   UNL     1       1.404   7.893  19.125  0.00  0.00    +0.000 NA
ATOM     22  C   UNL     1       2.002   6.635  19.636  0.00  0.00    +0.000 C 
ATOM     23  C   UNL     1       3.545   6.577  19.496  0.00  0.00    +0.000 C 
BRANCH  18  29
ATOM     24  C   UNL     1       4.698   4.597  17.046  0.00  0.00    +0.000 A 
ATOM     25  C   UNL     1       5.808   3.949  16.485  0.00  0.00    +0.000 A 
ATOM     26  C   UNL     1       7.030   4.597  16.397  0.00  0.00    +0.000 A 
ATOM     27  C   UNL     1       7.110   5.890  16.872  0.00  0.00    +0.000 A 
ATOM     28  N   UNL     1       6.082   6.566  17.427  0.00  0.00    +0.000 NA
ATOM     29  C   UNL     1       4.888   5.931  17.524  0.00  0.00    +0.000 A 
BRANCH  24  30
ATOM     30  N   UNL     1       3.409   4.031  16.937  0.00  0.00    +0.000 N 
ATOM     31  H   UNL     1       2.739   4.728  16.656  0.00  0.00    +0.000 HD
BRANCH  30  33
ATOM     32  C   UNL     1       1.483   3.314  18.241  0.00  0.00    +0.000 C 
ATOM     33  C   UNL     1       2.954   3.088  17.943  0.00  0.00    +0.000 C 
ENDBRANCH  30  33
ENDBRANCH  24  30
ENDBRANCH  18  29
ENDBRANCH   1  21
TORSDOF 6
ENDMDL
MODEL 2
REMARK VINA RESULT:      -7.2      2.213      3.588
REMARK  Name = 
REMARK  11 active torsions:
REMARK  status: ('A' for Active; 'I' for Inactive)
REMARK    1  A    between atoms: C_1  and  C_2
REMARK    2  A    between atoms: C_2  and  N_3
REMARK    3  A    between atoms: N_3  and  C_4
REMARK    4  A    between atoms: C_9  and  N_10
REMARK    5  A    between atoms: N_13  and  C_14
REMARK    6  A    between atoms: C_14  and  C_15
REMARK    7  A    between atoms: C_15  and  C_16
REMARK    8  A    between atoms: C_20  and  C_21
REMARK    9  A    between atoms: C_22  and  O_23
REMARK   10  A    between atoms: C_24  and  C_25
REMARK   11  A    between atoms: C_26  and  C_27
REMARK                            x       y       z     vdW  Elec       q    Type
REMARK                         _______ _______ _______ _____ _____    ______ ____
ROOT
ATOM      1  C   UNL     1      -0.119  11.645  19.792  0.00  0.00    +0.000 C 
ENDROOT
BRANCH   1   2
ATOM      2  C   UNL     1      -0.972  12.633  20.675  0.00  0.00    +0.000 C 
ATOM      3  C   UNL     1      -0.738  14.078  20.198  0.00  0.00    +0.000 C 
ATOM      4  C   UNL     1      -0.533  12.406  22.125  0.00  0.00    +0.000 C 
ATOM      5  C   UNL     1      -1.323  13.278  23.081  0.00  0.00    +0.000 C 
ATOM      6  C   UNL     1      -2.799  13.250  22.775  0.00  0.00    +0.000 A 
ATOM      7  C   UNL     1      -3.747  13.725  23.710  0.00  0.00    +0.000 A 
ATOM      8  C   UNL     1      -3.330  14.258  25.058  0.00  0.00    +0.000 C 
ATOM      9  C   UNL     1      -5.114  13.685  23.365  0.00  0.00    +0.000 A 
ATOM     10  C   UNL     1      -5.559  13.198  22.123  0.00  0.00    +0.000 A 
ATOM     11  C   UNL     1      -7.033  13.189  21.797  0.00  0.00    +0.000 C 
ATOM     12  C   UNL     1      -4.607  12.728  21.195  0.00  0.00    +0.000 A 
ATOM     13  C   UNL     1      -5.015  12.178  19.849  0.00  0.00    +0.000 C 
ATOM     14  C   UNL     1      -3.235  12.771  21.525  0.00  0.00    +0.000 A 
ATOM     15  O   UNL     1      -2.368  12.293  20.565  0.00  0.00    +0.000 OA
BRANCH   9  16
ATOM     16  O   UNL     1      -6.077  14.123  24.238  0.00  0.00    +0.000 OA
ATOM     17  H   UNL     1      -6.416  14.987  23.965  0.00  0.00    +0.000 HD
ENDBRANCH   9  16
ENDBRANCH   1   2
BRANCH   1  21
ATOM     18  N   UNL     1       1.656   8.503  18.949  0.00  0.00    +0.000 N 
ATOM     19  C   UNL     1       1.166   9.395  17.895  0.00  0.00    +0.000 C 
ATOM     20  C   UNL     1      -0.315   9.766  18.232  0.00  0.00    +0.000 C 
ATOM     21  N   UNL     1      -0.584  10.250  19.626  0.00  0.00    +0.000 NA
ATOM     22  C   UNL     1       0.074   9.307  20.565  0.00  0.00    +0.000 C 
ATOM     23  C   UNL     1       1.585   9.100  20.283  0.00  0.00    +0.000 C 
BRANCH  18  29
ATOM     24  C   UNL     1       2.830   6.439  19.502  0.00  0.00    +0.000 A 
ATOM     25  C   UNL     1       3.824   5.517  19.144  0.00  0.00    +0.000 A 
ATOM     26  C   UNL     1       4.588   5.716  18.003  0.00  0.00    +0.000 A 
ATOM     27  C   UNL     1       4.331   6.837  17.242  0.00  0.00    +0.000 A 
ATOM     28  N   UNL     1       3.394   7.763  17.536  0.00  0.00    +0.000 NA
ATOM     29  C   UNL     1       2.653   7.578  18.656  0.00  0.00    +0.000 A 
BRANCH  24  30
ATOM     30  N   UNL     1       1.908   6.134  20.528  0.00  0.00    +0.000 N 
ATOM     31  H   UNL     1       2.252   6.453  21.419  0.00  0.00    +0.000 HD
BRANCH  30  33
ATOM     32  C   UNL     1       1.984   3.882  21.447  0.00  0.00    +0.000 C 
ATOM     33  C   UNL     1       1.246   4.843  20.533  0.00  0.00    +0.000 C 
ENDBRANCH  30  33
ENDBRANCH  24  30
ENDBRANCH  18  29
ENDBRANCH   1  21
TORSDOF 6
ENDMDL
MODEL 3
REMARK VINA RESULT:      -7.1      1.656      3.088
REMARK  Name = 
REMARK  11 active torsions:
REMARK  status: ('A' for Active; 'I' for Inactive)
REMARK    1  A    between atoms: C_1  and  C_2
REMARK    2  A    between atoms: C_2  and  N_3
REMARK    3  A    between atoms: N_3  and  C_4
REMARK    4  A    between atoms: C_9  and  N_10
REMARK    5  A    between atoms: N_13  and  C_14
REMARK    6  A    between atoms: C_14  and  C_15
REMARK    7  A    between atoms: C_15  and  C_16
REMARK    8  A    between atoms: C_20  and  C_21
REMARK    9  A    between atoms: C_22  and  O_23
REMARK   10  A    between atoms: C_24  and  C_25
REMARK   11  A    between atoms: C_26  and  C_27
REMARK                            x       y       z     vdW  Elec       q    Type
REMARK                         _______ _______ _______ _____ _____    ______ ____
ROOT
ATOM      1  C   UNL     1      -0.220  10.042  18.746  0.00  0.00    +0.000 C 
ENDROOT
BRANCH   1   2
ATOM      2  C   UNL     1      -1.114  11.305  19.050  0.00  0.00    +0.000 C 
ATOM      3  C   UNL     1      -0.463  12.554  18.429  0.00  0.00    +0.000 C 
ATOM      4  C   UNL     1      -1.233  11.391  20.575  0.00  0.00    +0.000 C 
ATOM      5  C   UNL     1      -2.115  12.552  20.991  0.00  0.00    +0.000 C 
ATOM      6  C   UNL     1      -3.382  12.613  20.176  0.00  0.00    +0.000 A 
ATOM      7  C   UNL     1      -4.478  13.405  20.590  0.00  0.00    +0.000 A 
ATOM      8  C   UNL     1      -4.441  14.202  21.870  0.00  0.00    +0.000 C 
ATOM      9  C   UNL     1      -5.634  13.433  19.781  0.00  0.00    +0.000 A 
ATOM     10  C   UNL     1      -5.725  12.710  18.579  0.00  0.00    +0.000 A 
ATOM     11  C   UNL     1      -6.979  12.784  17.743  0.00  0.00    +0.000 C 
ATOM     12  C   UNL     1      -4.626  11.925  18.171  0.00  0.00    +0.000 A 
ATOM     13  C   UNL     1      -4.659  11.111  16.900  0.00  0.00    +0.000 C 
ATOM     14  C   UNL     1      -3.460  11.895  18.968  0.00  0.00    +0.000 A 
ATOM     15  O   UNL     1      -2.431  11.104  18.502  0.00  0.00    +0.000 OA
BRANCH   9  16
ATOM     16  O   UNL     1      -6.731  14.174  20.140  0.00  0.00    +0.000 OA
ATOM     17  H   UNL     1      -7.535  13.801  19.754  0.00  0.00    +0.000 HD
ENDBRANCH   9  16
ENDBRANCH   1   2
BRANCH   1  21
ATOM     18  N   UNL     1       2.371   7.418  19.111  0.00  0.00    +0.000 N 
ATOM     19  C   UNL     1       1.545   7.823  20.253  0.00  0.00    +0.000 C 
ATOM     20  C   UNL     1       1.545   9.385  20.313  0.00  0.00    +0.000 C 
ATOM     21  N   UNL     1       1.230  10.105  19.035  0.00  0.00    +0.000 NA
ATOM     22  C   UNL     1       2.058   9.501  17.962  0.00  0.00    +0.000 C 
ATOM     23  C   UNL     1       1.896   7.963  17.839  0.00  0.00    +0.000 C 
BRANCH  18  29
ATOM     24  C   UNL     1       4.168   5.979  18.309  0.00  0.00    +0.000 A 
ATOM     25  C   UNL     1       4.810   4.736  18.400  0.00  0.00    +0.000 A 
ATOM     26  C   UNL     1       4.343   3.765  19.273  0.00  0.00    +0.000 A 
ATOM     27  C   UNL     1       3.240   4.068  20.044  0.00  0.00    +0.000 A 
ATOM     28  N   UNL     1       2.575   5.241  20.000  0.00  0.00    +0.000 NA
ATOM     29  C   UNL     1       3.022   6.189  19.139  0.00  0.00    +0.000 A 
BRANCH  24  30
ATOM     30  N   UNL     1       4.762   7.041  17.593  0.00  0.00    +0.000 N 
ATOM     31  H   UNL     1       4.057   7.616  17.163  0.00  0.00    +0.000 HD
BRANCH  30  33
ATOM     32  C   UNL     1       7.168   7.384  17.468  0.00  0.00    +0.000 C 
ATOM     33  C   UNL     1       5.946   6.790  16.793  0.00  0.00    +0.000 C 
ENDBRANCH  30  33
ENDBRANCH  24  30
ENDBRANCH  18  29
ENDBRANCH   1  21
TORSDOF 6
ENDMDL
MODEL 4
REMARK VINA RESULT:      -7.1      1.515      2.065
REMARK  Name = 
REMARK  11 active torsions:
REMARK  status: ('A' for Active; 'I' for Inactive)
REMARK    1  A    between atoms: C_1  and  C_2
REMARK    2  A    between atoms: C_2  and  N_3
REMARK    3  A    between atoms: N_3  and  C_4
REMARK    4  A    between atoms: C_9  and  N_10
REMARK    5  A    between atoms: N_13  and  C_14
REMARK    6  A    between atoms: C_14  and  C_15
REMARK    7  A    between atoms: C_15  and  C_16
REMARK    8  A    between atoms: C_20  and  C_21
REMARK    9  A    between atoms: C_22  and  O_23
REMARK   10  A    between atoms: C_24  and  C_25
REMARK   11  A    between atoms: C_26  and  C_27
REMARK                            x       y       z     vdW  Elec       q    Type
REMARK                         _______ _______ _______ _____ _____    ______ ____
ROOT
ATOM      1  C   UNL     1       1.054  10.471  20.084  0.00  0.00    +0.000 C 
ENDROOT
BRANCH   1   2
ATOM      2  C   UNL     1       0.102  11.560  20.712  0.00  0.00    +0.000 C 
ATOM      3  C   UNL     1       0.740  12.952  20.552  0.00  0.00    +0.000 C 
ATOM      4  C   UNL     1      -0.100  11.162  22.178  0.00  0.00    +0.000 C 
ATOM      5  C   UNL     1      -1.042  12.119  22.881  0.00  0.00    +0.000 C 
ATOM      6  C   UNL     1      -2.267  12.412  22.051  0.00  0.00    +0.000 A 
ATOM      7  C   UNL     1      -3.409  13.015  22.624  0.00  0.00    +0.000 A 
ATOM      8  C   UNL     1      -3.466  13.372  24.089  0.00  0.00    +0.000 C 
ATOM      9  C   UNL     1      -4.521  13.276  21.797  0.00  0.00    +0.000 A 
ATOM     10  C   UNL     1      -4.525  12.964  20.426  0.00  0.00    +0.000 A 
ATOM     11  C   UNL     1      -5.736  13.275  19.581  0.00  0.00    +0.000 C 
ATOM     12  C   UNL     1      -3.379  12.365  19.861  0.00  0.00    +0.000 A 
ATOM     13  C   UNL     1      -3.318  11.990  18.399  0.00  0.00    +0.000 C 
ATOM     14  C   UNL     1      -2.256  12.106  20.676  0.00  0.00    +0.000 A 
ATOM     15  O   UNL     1      -1.178  11.519  20.051  0.00  0.00    +0.000 OA
BRANCH   9  16
ATOM     16  O   UNL     1      -5.661  13.849  22.302  0.00  0.00    +0.000 OA
ATOM     17  H   UNL     1      -5.764  13.632  23.239  0.00  0.00    +0.000 HD
ENDBRANCH   9  16
ENDBRANCH   1   2
BRANCH   1  21
ATOM     18  N   UNL     1       2.542   7.518  18.411  0.00  0.00    +0.000 N 
ATOM     19  C   UNL     1       2.354   8.778  17.685  0.00  0.00    +0.000 C 
ATOM     20  C   UNL     1       0.895   9.272  17.953  0.00  0.00    +0.000 C 
ATOM     21  N   UNL     1       0.454   9.312  19.386  0.00  0.00    +0.000 NA
ATOM     22  C   UNL     1       0.819   8.014  20.007  0.00  0.00    +0.000 C 
ATOM     23  C   UNL     1       2.318   7.649  19.851  0.00  0.00    +0.000 C 
BRANCH  18  29
ATOM     24  C   UNL     1       3.059   5.210  17.822  0.00  0.00    +0.000 A 
ATOM     25  C   UNL     1       3.999   4.310  17.300  0.00  0.00    +0.000 A 
ATOM     26  C   UNL     1       5.251   4.754  16.902  0.00  0.00    +0.000 A 
ATOM     27  C   UNL     1       5.530   6.099  17.033  0.00  0.00    +0.000 A 
ATOM     28  N   UNL     1       4.672   7.013  17.532  0.00  0.00    +0.000 NA
ATOM     29  C   UNL     1       3.451   6.581  17.932  0.00  0.00    +0.000 A 
BRANCH  24  30
ATOM     30  N   UNL     1       1.719   4.810  18.020  0.00  0.00    +0.000 N 
ATOM     31  H   UNL     1       1.134   5.609  18.204  0.00  0.00    +0.000 HD
BRANCH  30  33
ATOM     32  C   UNL     1       1.079   4.019  20.230  0.00  0.00    +0.000 C 
ATOM     33  C   UNL     1       1.435   3.625  18.809  0.00  0.00    +0.000 C 
ENDBRANCH  30  33
ENDBRANCH  24  30
ENDBRANCH  18  29
ENDBRANCH   1  21
TORSDOF 6
ENDMDL
MODEL 5
REMARK VINA RESULT:      -7.0      1.471      2.847
REMARK  Name = 
REMARK  11 active torsions:
REMARK  status: ('A' for Active; 'I' for Inactive)
REMARK    1  A    between atoms: C_1  and  C_2
REMARK    2  A    between atoms: C_2  and  N_3
REMARK    3  A    between atoms: N_3  and  C_4
REMARK    4  A    between atoms: C_9  and  N_10
REMARK    5  A    between atoms: N_13  and  C_14
REMARK    6  A    between atoms: C_14  and  C_15
REMARK    7  A    between atoms: C_15  and  C_16
REMARK    8  A    between atoms: C_20  and  C_21
REMARK    9  A    between atoms: C_22  and  O_23
REMARK   10  A    between atoms: C_24  and  C_25
REMARK   11  A    between atoms: C_26  and  C_27
REMARK                            x       y       z     vdW  Elec       q    Type
REMARK                         _______ _______ _______ _____ _____    ______ ____
ROOT
ATOM      1  C   UNL     1       1.429   8.564  17.937  0.00  0.00    +0.000 C 
ENDROOT
BRANCH   1   2
ATOM      2  C   UNL     1       0.628   9.855  18.356  0.00  0.00    +0.000 C 
ATOM      3  C   UNL     1       1.414  11.107  17.925  0.00  0.00    +0.000 C 
ATOM      4  C   UNL     1       0.432   9.768  19.873  0.00  0.00    +0.000 C 
ATOM      5  C   UNL     1      -0.371  10.945  20.391  0.00  0.00    +0.000 C 
ATOM      6  C   UNL     1      -1.582  11.217  19.534  0.00  0.00    +0.000 A 
ATOM      7  C   UNL     1      -2.629  12.048  19.994  0.00  0.00    +0.000 A 
ATOM      8  C   UNL     1      -2.596  12.678  21.364  0.00  0.00    +0.000 C 
ATOM      9  C   UNL     1      -3.732  12.276  19.145  0.00  0.00    +0.000 A 
ATOM     10  C   UNL     1      -3.816  11.714  17.859  0.00  0.00    +0.000 A 
ATOM     11  C   UNL     1      -5.012  12.000  16.984  0.00  0.00    +0.000 C 
ATOM     12  C   UNL     1      -2.766  10.889  17.406  0.00  0.00    +0.000 A 
ATOM     13  C   UNL     1      -2.797  10.240  16.043  0.00  0.00    +0.000 C 
ATOM     14  C   UNL     1      -1.652  10.659  18.243  0.00  0.00    +0.000 A 
ATOM     15  O   UNL     1      -0.669   9.841  17.729  0.00  0.00    +0.000 OA
BRANCH   9  16
ATOM     16  O   UNL     1      -4.781  13.064  19.544  0.00  0.00    +0.000 OA
ATOM     17  H   UNL     1      -5.026  13.686  18.844  0.00  0.00    +0.000 HD
ENDBRANCH   9  16
ENDBRANCH   1   2
BRANCH   1  21
ATOM     18  N   UNL     1       2.958   5.286  18.743  0.00  0.00    +0.000 N 
ATOM     19  C   UNL     1       1.898   5.848  19.585  0.00  0.00    +0.000 C 
ATOM     20  C   UNL     1       2.266   7.338  19.886  0.00  0.00    +0.000 C 
ATOM     21  N   UNL     1       2.635   8.188  18.707  0.00  0.00    +0.000 NA
ATOM     22  C   UNL     1       3.623   7.431  17.898  0.00  0.00    +0.000 C 
ATOM     23  C   UNL     1       3.140   6.016  17.488  0.00  0.00    +0.000 C 
BRANCH  18  29
ATOM     24  C   UNL     1       4.555   3.472  19.066  0.00  0.00    +0.000 A 
ATOM     25  C   UNL     1       4.765   2.089  19.145  0.00  0.00    +0.000 A 
ATOM     26  C   UNL     1       3.709   1.207  18.976  0.00  0.00    +0.000 A 
ATOM     27  C   UNL     1       2.458   1.737  18.736  0.00  0.00    +0.000 A 
ATOM     28  N   UNL     1       2.192   3.057  18.642  0.00  0.00    +0.000 NA
ATOM     29  C   UNL     1       3.224   3.922  18.796  0.00  0.00    +0.000 A 
BRANCH  24  30
ATOM     30  N   UNL     1       5.571   4.373  19.454  0.00  0.00    +0.000 N 
ATOM     31  H   UNL     1       5.211   5.056  20.100  0.00  0.00    +0.000 HD
BRANCH  30  33
ATOM     32  C   UNL     1       7.612   5.660  19.131  0.00  0.00    +0.000 C 
ATOM     33  C   UNL     1       6.500   4.877  18.458  0.00  0.00    +0.000 C 
ENDBRANCH  30  33
ENDBRANCH  24  30
ENDBRANCH  18  29
ENDBRANCH   1  21
TORSDOF 6
ENDMDL
MODEL 6
REMARK VINA RESULT:      -7.0      1.868      2.809
REMARK  Name = 
REMARK  11 active torsions:
REMARK  status: ('A' for Active; 'I' for Inactive)
REMARK    1  A    between atoms: C_1  and  C_2
REMARK    2  A    between atoms: C_2  and  N_3
REMARK    3  A    between atoms: N_3  and  C_4
REMARK    4  A    between atoms: C_9  and  N_10
REMARK    5  A    between atoms: N_13  and  C_14
REMARK    6  A    between atoms: C_14  and  C_15
REMARK    7  A    between atoms: C_15  and  C_16
REMARK    8  A    between atoms: C_20  and  C_21
REMARK    9  A    between atoms: C_22  and  O_23
REMARK   10  A    between atoms: C_24  and  C_25
REMARK   11  A    between atoms: C_26  and  C_27
REMARK                            x       y       z     vdW  Elec       q    Type
REMARK                         _______ _______ _______ _____ _____    ______ ____
ROOT
ATOM      1  C   UNL     1       0.597  10.928  20.119  0.00  0.00    +0.000 C 
ENDROOT
BRANCH   1   2
ATOM      2  C   UNL     1      -0.384  11.947  20.815  0.00  0.00    +0.000 C 
ATOM      3  C   UNL     1       0.125  13.383  20.590  0.00  0.00    +0.000 C 
ATOM      4  C   UNL     1      -0.431  11.557  22.296  0.00  0.00    +0.000 C 
ATOM      5  C   UNL     1      -1.386  12.448  23.067  0.00  0.00    +0.000 C 
ATOM      6  C   UNL     1      -2.694  12.629  22.340  0.00  0.00    +0.000 A 
ATOM      7  C   UNL     1      -3.830  13.149  23.001  0.00  0.00    +0.000 A 
ATOM      8  C   UNL     1      -3.794  13.522  24.462  0.00  0.00    +0.000 C 
ATOM      9  C   UNL     1      -5.024  13.308  22.267  0.00  0.00    +0.000 A 
ATOM     10  C   UNL     1      -5.116  12.976  20.904  0.00  0.00    +0.000 A 
ATOM     11  C   UNL     1      -6.414  13.178  20.160  0.00  0.00    +0.000 C 
ATOM     12  C   UNL     1      -3.976  12.461  20.250  0.00  0.00    +0.000 A 
ATOM     13  C   UNL     1      -4.006  12.070  18.792  0.00  0.00    +0.000 C 
ATOM     14  C   UNL     1      -2.773  12.305  20.971  0.00  0.00    +0.000 A 
ATOM     15  O   UNL     1      -1.706  11.795  20.263  0.00  0.00    +0.000 OA
BRANCH   9  16
ATOM     16  O   UNL     1      -6.160  13.797  22.860  0.00  0.00    +0.000 OA
ATOM     17  H   UNL     1      -6.139  13.641  23.815  0.00  0.00    +0.000 HD
ENDBRANCH   9  16
ENDBRANCH   1   2
BRANCH   1  21
ATOM     18  N   UNL     1       2.190   7.750  19.071  0.00  0.00    +0.000 N 
ATOM     19  C   UNL     1       2.087   8.881  18.144  0.00  0.00    +0.000 C 
ATOM     20  C   UNL     1       0.616   9.411  18.196  0.00  0.00    +0.000 C 
ATOM     21  N   UNL     1       0.047   9.674  19.558  0.00  0.00    +0.000 NA
ATOM     22  C   UNL     1       0.336   8.489  20.404  0.00  0.00    +0.000 C 
ATOM     23  C   UNL     1       1.838   8.105  20.446  0.00  0.00    +0.000 C 
BRANCH  18  29
ATOM     24  C   UNL     1       3.175   5.608  19.690  0.00  0.00    +0.000 A 
ATOM     25  C   UNL     1       4.112   4.611  19.384  0.00  0.00    +0.000 A 
ATOM     26  C   UNL     1       4.941   4.740  18.280  0.00  0.00    +0.000 A 
ATOM     27  C   UNL     1       4.807   5.871  17.502  0.00  0.00    +0.000 A 
ATOM     28  N   UNL     1       3.931   6.868  17.745  0.00  0.00    +0.000 NA
ATOM     29  C   UNL     1       3.125   6.750  18.830  0.00  0.00    +0.000 A 
BRANCH  24  30
ATOM     30  N   UNL     1       2.185   5.383  20.672  0.00  0.00    +0.000 N 
ATOM     31  H   UNL     1       2.590   5.404  21.594  0.00  0.00    +0.000 HD
BRANCH  30  33
ATOM     32  C   UNL     1       1.456   3.155  21.322  0.00  0.00    +0.000 C 
ATOM     33  C   UNL     1       1.176   4.365  20.450  0.00  0.00    +0.000 C 
ENDBRANCH  30  33
ENDBRANCH  24  30
ENDBRANCH  18  29
ENDBRANCH   1  21
TORSDOF 6
ENDMDL
MODEL 7
REMARK VINA RESULT:      -7.0      2.245      4.111
REMARK  Name = 
REMARK  11 active torsions:
REMARK  status: ('A' for Active; 'I' for Inactive)
REMARK    1  A    between atoms: C_1  and  C_2
REMARK    2  A    between atoms: C_2  and  N_3
REMARK    3  A    between atoms: N_3  and  C_4
REMARK    4  A    between atoms: C_9  and  N_10
REMARK    5  A    between atoms: N_13  and  C_14
REMARK    6  A    between atoms: C_14  and  C_15
REMARK    7  A    between atoms: C_15  and  C_16
REMARK    8  A    between atoms: C_20  and  C_21
REMARK    9  A    between atoms: C_22  and  O_23
REMARK   10  A    between atoms: C_24  and  C_25
REMARK   11  A    between atoms: C_26  and  C_27
REMARK                            x       y       z     vdW  Elec       q    Type
REMARK                         _______ _______ _______ _____ _____    ______ ____
ROOT
ATOM      1  C   UNL     1       0.546   9.195  18.948  0.00  0.00    +0.000 C 
ENDROOT
BRANCH   1   2
ATOM      2  C   UNL     1       0.042  10.681  19.092  0.00  0.00    +0.000 C 
ATOM      3  C   UNL     1      -1.274  10.853  18.312  0.00  0.00    +0.000 C 
ATOM      4  C   UNL     1       1.170  11.572  18.561  0.00  0.00    +0.000 C 
ATOM      5  C   UNL     1       0.815  13.040  18.690  0.00  0.00    +0.000 C 
ATOM      6  C   UNL     1       0.237  13.361  20.045  0.00  0.00    +0.000 A 
ATOM      7  C   UNL     1       0.130  14.697  20.496  0.00  0.00    +0.000 A 
ATOM      8  C   UNL     1       0.607  15.856  19.656  0.00  0.00    +0.000 C 
ATOM      9  C   UNL     1      -0.430  14.937  21.768  0.00  0.00    +0.000 A 
ATOM     10  C   UNL     1      -0.891  13.896  22.593  0.00  0.00    +0.000 A 
ATOM     11  C   UNL     1      -1.494  14.207  23.941  0.00  0.00    +0.000 C 
ATOM     12  C   UNL     1      -0.783  12.566  22.135  0.00  0.00    +0.000 A 
ATOM     13  C   UNL     1      -1.244  11.398  22.973  0.00  0.00    +0.000 C 
ATOM     14  C   UNL     1      -0.232  12.312  20.859  0.00  0.00    +0.000 A 
ATOM     15  O   UNL     1      -0.161  10.988  20.485  0.00  0.00    +0.000 OA
BRANCH   9  16
ATOM     16  O   UNL     1      -0.548  16.212  22.260  0.00  0.00    +0.000 OA
ATOM     17  H   UNL     1       0.205  16.754  21.984  0.00  0.00    +0.000 HD
ENDBRANCH   9  16
ENDBRANCH   1   2
BRANCH   1  21
ATOM     18  N   UNL     1       2.393   5.989  19.169  0.00  0.00    +0.000 N 
ATOM     19  C   UNL     1       1.578   6.466  20.290  0.00  0.00    +0.000 C 
ATOM     20  C   UNL     1       1.942   7.966  20.543  0.00  0.00    +0.000 C 
ATOM     21  N   UNL     1       1.934   8.868  19.345  0.00  0.00    +0.000 NA
ATOM     22  C   UNL     1       2.697   8.192  18.266  0.00  0.00    +0.000 C 
ATOM     23  C   UNL     1       2.188   6.763  17.944  0.00  0.00    +0.000 C 
BRANCH  18  29
ATOM     24  C   UNL     1       4.104   4.253  19.133  0.00  0.00    +0.000 A 
ATOM     25  C   UNL     1       4.389   2.882  19.086  0.00  0.00    +0.000 A 
ATOM     26  C   UNL     1       3.362   1.953  19.013  0.00  0.00    +0.000 A 
ATOM     27  C   UNL     1       2.066   2.424  18.994  0.00  0.00    +0.000 A 
ATOM     28  N   UNL     1       1.727   3.730  19.029  0.00  0.00    +0.000 NA
ATOM     29  C   UNL     1       2.728   4.642  19.090  0.00  0.00    +0.000 A 
BRANCH  24  30
ATOM     30  N   UNL     1       5.123   5.186  19.429  0.00  0.00    +0.000 N 
ATOM     31  H   UNL     1       4.765   5.930  20.005  0.00  0.00    +0.000 HD
BRANCH  30  33
ATOM     32  C   UNL     1       7.460   5.663  18.948  0.00  0.00    +0.000 C 
ATOM     33  C   UNL     1       6.052   5.586  18.388  0.00  0.00    +0.000 C 
ENDBRANCH  30  33
ENDBRANCH  24  30
ENDBRANCH  18  29
ENDBRANCH   1  21
TORSDOF 6
ENDMDL
MODEL 8
REMARK VINA RESULT:      -6.9      1.700      2.632
REMARK  Name = 
REMARK  11 active torsions:
REMARK  status: ('A' for Active; 'I' for Inactive)
REMARK    1  A    between atoms: C_1  and  C_2
REMARK    2  A    between atoms: C_2  and  N_3
REMARK    3  A    between atoms: N_3  and  C_4
REMARK    4  A    between atoms: C_9  and  N_10
REMARK    5  A    between atoms: N_13  and  C_14
REMARK    6  A    between atoms: C_14  and  C_15
REMARK    7  A    between atoms: C_15  and  C_16
REMARK    8  A    between atoms: C_20  and  C_21
REMARK    9  A    between atoms: C_22  and  O_23
REMARK   10  A    between atoms: C_24  and  C_25
REMARK   11  A    between atoms: C_26  and  C_27
REMARK                            x       y       z     vdW  Elec       q    Type
REMARK                         _______ _______ _______ _____ _____    ______ ____
ROOT
ATOM      1  C   UNL     1      -0.261  10.147  18.932  0.00  0.00    +0.000 C 
ENDROOT
BRANCH   1   2
ATOM      2  C   UNL     1      -1.209  11.385  19.161  0.00  0.00    +0.000 C 
ATOM      3  C   UNL     1      -0.574  12.640  18.536  0.00  0.00    +0.000 C 
ATOM      4  C   UNL     1      -1.402  11.507  20.676  0.00  0.00    +0.000 C 
ATOM      5  C   UNL     1      -2.340  12.646  21.020  0.00  0.00    +0.000 C 
ATOM      6  C   UNL     1      -3.570  12.643  20.148  0.00  0.00    +0.000 A 
ATOM      7  C   UNL     1      -4.710  13.406  20.490  0.00  0.00    +0.000 A 
ATOM      8  C   UNL     1      -4.758  14.236  21.748  0.00  0.00    +0.000 C 
ATOM      9  C   UNL     1      -5.827  13.373  19.630  0.00  0.00    +0.000 A 
ATOM     10  C   UNL     1      -5.838  12.616  18.445  0.00  0.00    +0.000 A 
ATOM     11  C   UNL     1      -7.055  12.625  17.551  0.00  0.00    +0.000 C 
ATOM     12  C   UNL     1      -4.696  11.860  18.108  0.00  0.00    +0.000 A 
ATOM     13  C   UNL     1      -4.644  11.013  16.859  0.00  0.00    +0.000 C 
ATOM     14  C   UNL     1      -3.568  11.891  18.957  0.00  0.00    +0.000 A 
ATOM     15  O   UNL     1      -2.493  11.125  18.560  0.00  0.00    +0.000 OA
BRANCH   9  16
ATOM     16  O   UNL     1      -6.964  14.085  19.918  0.00  0.00    +0.000 OA
ATOM     17  H   UNL     1      -7.395  13.731  20.708  0.00  0.00    +0.000 HD
ENDBRANCH   9  16
ENDBRANCH   1   2
BRANCH   1  21
ATOM     18  N   UNL     1       2.569   7.762  18.741  0.00  0.00    +0.000 N 
ATOM     19  C   UNL     1       1.700   7.804  19.920  0.00  0.00    +0.000 C 
ATOM     20  C   UNL     1       1.548   9.299  20.351  0.00  0.00    +0.000 C 
ATOM     21  N   UNL     1       1.174  10.272  19.272  0.00  0.00    +0.000 NA
ATOM     22  C   UNL     1       2.065  10.022  18.111  0.00  0.00    +0.000 C 
ATOM     23  C   UNL     1       2.053   8.551  17.622  0.00  0.00    +0.000 C 
BRANCH  18  29
ATOM     24  C   UNL     1       3.315   5.546  19.431  0.00  0.00    +0.000 A 
ATOM     25  C   UNL     1       4.077   4.411  19.121  0.00  0.00    +0.000 A 
ATOM     26  C   UNL     1       4.807   4.354  17.943  0.00  0.00    +0.000 A 
ATOM     27  C   UNL     1       4.750   5.442  17.096  0.00  0.00    +0.000 A 
ATOM     28  N   UNL     1       4.042   6.565  17.340  0.00  0.00    +0.000 NA
ATOM     29  C   UNL     1       3.336   6.628  18.495  0.00  0.00    +0.000 A 
BRANCH  24  30
ATOM     30  N   UNL     1       2.403   5.523  20.509  0.00  0.00    +0.000 N 
ATOM     31  H   UNL     1       2.490   6.358  21.064  0.00  0.00    +0.000 HD
BRANCH  30  33
ATOM     32  C   UNL     1       1.054   3.502  20.648  0.00  0.00    +0.000 C 
ATOM     33  C   UNL     1       2.202   4.291  21.250  0.00  0.00    +0.000 C 
ENDBRANCH  30  33
ENDBRANCH  24  30
ENDBRANCH  18  29
ENDBRANCH   1  21
TORSDOF 6
ENDMDL
MODEL 9
REMARK VINA RESULT:      -6.8      1.564      2.898
REMARK  Name = 
REMARK  11 active torsions:
REMARK  status: ('A' for Active; 'I' for Inactive)
REMARK    1  A    between atoms: C_1  and  C_2
REMARK    2  A    between atoms: C_2  and  N_3
REMARK    3  A    between atoms: N_3  and  C_4
REMARK    4  A    between atoms: C_9  and  N_10
REMARK    5  A    between atoms: N_13  and  C_14
REMARK    6  A    between atoms: C_14  and  C_15
REMARK    7  A    between atoms: C_15  and  C_16
REMARK    8  A    between atoms: C_20  and  C_21
REMARK    9  A    between atoms: C_22  and  O_23
REMARK   10  A    between atoms: C_24  and  C_25
REMARK   11  A    between atoms: C_26  and  C_27
REMARK                            x       y       z     vdW  Elec       q    Type
REMARK                         _______ _______ _______ _____ _____    ______ ____
ROOT
ATOM      1  C   UNL     1       0.411   9.212  18.617  0.00  0.00    +0.000 C 
ENDROOT
BRANCH   1   2
ATOM      2  C   UNL     1      -0.371  10.533  18.973  0.00  0.00    +0.000 C 
ATOM      3  C   UNL     1       0.402  11.749  18.429  0.00  0.00    +0.000 C 
ATOM      4  C   UNL     1      -0.513  10.552  20.499  0.00  0.00    +0.000 C 
ATOM      5  C   UNL     1      -1.295  11.766  20.962  0.00  0.00    +0.000 C 
ATOM      6  C   UNL     1      -2.534  11.984  20.132  0.00  0.00    +0.000 A 
ATOM      7  C   UNL     1      -3.562  12.850  20.570  0.00  0.00    +0.000 A 
ATOM      8  C   UNL     1      -3.478  13.574  21.891  0.00  0.00    +0.000 C 
ATOM      9  C   UNL     1      -4.694  13.025  19.747  0.00  0.00    +0.000 A 
ATOM     10  C   UNL     1      -4.826  12.376  18.507  0.00  0.00    +0.000 A 
ATOM     11  C   UNL     1      -6.052  12.606  17.657  0.00  0.00    +0.000 C 
ATOM     12  C   UNL     1      -3.794  11.516  18.075  0.00  0.00    +0.000 A 
ATOM     13  C   UNL     1      -3.876  10.774  16.762  0.00  0.00    +0.000 C 
ATOM     14  C   UNL     1      -2.652  11.339  18.886  0.00  0.00    +0.000 A 
ATOM     15  O   UNL     1      -1.690  10.482  18.396  0.00  0.00    +0.000 OA
BRANCH   9  16
ATOM     16  O   UNL     1      -5.727  13.844  20.127  0.00  0.00    +0.000 OA
ATOM     17  H   UNL     1      -6.359  13.952  19.403  0.00  0.00    +0.000 HD
ENDBRANCH   9  16
ENDBRANCH   1   2
BRANCH   1  21
ATOM     18  N   UNL     1       2.492   6.218  19.282  0.00  0.00    +0.000 N 
ATOM     19  C   UNL     1       1.592   6.751  20.309  0.00  0.00    +0.000 C 
ATOM     20  C   UNL     1       1.825   8.295  20.395  0.00  0.00    +0.000 C 
ATOM     21  N   UNL     1       1.800   9.050  19.099  0.00  0.00    +0.000 NA
ATOM     22  C   UNL     1       2.663   8.320  18.136  0.00  0.00    +0.000 C 
ATOM     23  C   UNL     1       2.283   6.826  17.967  0.00  0.00    +0.000 C 
BRANCH  18  29
ATOM     24  C   UNL     1       4.333   4.621  19.264  0.00  0.00    +0.000 A 
ATOM     25  C   UNL     1       4.734   3.285  19.401  0.00  0.00    +0.000 A 
ATOM     26  C   UNL     1       3.798   2.292  19.646  0.00  0.00    +0.000 A 
ATOM     27  C   UNL     1       2.475   2.666  19.754  0.00  0.00    +0.000 A 
ATOM     28  N   UNL     1       2.024   3.932  19.626  0.00  0.00    +0.000 NA
ATOM     29  C   UNL     1       2.936   4.904  19.376  0.00  0.00    +0.000 A 
BRANCH  24  30
ATOM     30  N   UNL     1       5.293   5.657  19.236  0.00  0.00    +0.000 N 
ATOM     31  H   UNL     1       4.846   6.556  19.311  0.00  0.00    +0.000 HD
BRANCH  30  33
ATOM     32  C   UNL     1       7.697   5.958  19.001  0.00  0.00    +0.000 C 
ATOM     33  C   UNL     1       6.403   5.580  18.304  0.00  0.00    +0.000 C 
ENDBRANCH  30  33
ENDBRANCH  24  30
ENDBRANCH  18  29
ENDBRANCH   1  21
TORSDOF 6
ENDMDL
