MODEL 1
REMARK VINA RESULT:      -8.1      0.000      0.000
REMARK  Name = 
REMARK  8 active torsions:
REMARK  status: ('A' for Active; 'I' for Inactive)
REMARK    1  A    between atoms: C_1  and  O_2
REMARK    2  A    between atoms: O_2  and  C_3
REMARK    3  A    between atoms: C_3  and  C_5
REMARK    4  A    between atoms: C_5  and  C_6
REMARK    5  A    between atoms: C_6  and  C_7
REMARK    6  A    between atoms: C_7  and  C_8
REMARK    7  A    between atoms: N_19  and  C_20
REMARK    8  A    between atoms: C_20  and  C_21
REMARK                            x       y       z     vdW  Elec       q    Type
REMARK                         _______ _______ _______ _____ _____    ______ ____
ROOT
ATOM      1  C   UNL     1      -0.255   9.990  19.170  0.00  0.00    +0.000 C 
ATOM      2  C   UNL     1      -0.904  10.635  20.426  0.00  0.00    +0.000 C 
ATOM      3  C   UNL     1      -0.233  10.199  21.743  0.00  0.00    +0.000 C 
ATOM      4  C   UNL     1      -0.856  10.930  22.931  0.00  0.00    +0.000 C 
ATOM      5  C   UNL     1      -0.855  12.451  22.742  0.00  0.00    +0.000 C 
ATOM      6  N   UNL     1      -1.485  12.827  21.473  0.00  0.00    +0.000 NA
ATOM      7  C   UNL     1      -1.599  14.275  21.282  0.00  0.00    +0.000 C 
ATOM      8  C   UNL     1      -0.451  14.994  20.549  0.00  0.00    +0.000 C 
ATOM      9  C   UNL     1       0.313  14.161  19.518  0.00  0.00    +0.000 C 
ATOM     10  C   UNL     1       0.508  12.714  19.987  0.00  0.00    +0.000 C 
ATOM     11  C   UNL     1       1.308  11.884  18.955  0.00  0.00    +0.000 C 
ATOM     12  N   UNL     1       1.165  10.423  19.086  0.00  0.00    +0.000 NA
ATOM     13  C   UNL     1      -0.891  12.161  20.299  0.00  0.00    +0.000 C 
ENDROOT
BRANCH   1  14
ATOM     14  C   UNL     1      -1.067  10.231  17.850  0.00  0.00    +0.000 C 
BRANCH  14  15
ATOM     15  C   UNL     1      -2.587  10.280  18.048  0.00  0.00    +0.000 C 
BRANCH  15  16
ATOM     16  C   UNL     1      -3.352   9.794  16.815  0.00  0.00    +0.000 C 
BRANCH  16  17
ATOM     17  C   UNL     1      -3.966  10.983  16.101  0.00  0.00    +0.000 C 
ATOM     18  O   UNL     1      -4.859  11.668  16.569  0.00  0.00    +0.000 OA
BRANCH  17  20
ATOM     19  C   UNL     1      -3.058  10.001  14.187  0.00  0.00    +0.000 C 
ATOM     20  O   UNL     1      -3.334  11.199  14.918  0.00  0.00    +0.000 OA
ENDBRANCH  17  20
ENDBRANCH  16  17
ENDBRANCH  15  16
ENDBRANCH  14  15
ENDBRANCH   1  14
BRANCH  12  21
ATOM     21  C   UNL     1       1.895   9.697  18.027  0.00  0.00    +0.000 C 
BRANCH  21  22
ATOM     22  C   UNL     1       2.342   8.289  18.370  0.00  0.00    +0.000 A 
ATOM     23  C   UNL     1       1.973   7.723  19.598  0.00  0.00    +0.000 A 
ATOM     24  C   UNL     1       2.425   6.455  19.970  0.00  0.00    +0.000 A 
ATOM     25  C   UNL     1       3.255   5.714  19.121  0.00  0.00    +0.000 A 
ATOM     26  C   UNL     1       3.708   4.433  19.483  0.00  0.00    +0.000 A 
ATOM     27  C   UNL     1       4.520   3.693  18.624  0.00  0.00    +0.000 A 
ATOM     28  C   UNL     1       4.896   4.229  17.396  0.00  0.00    +0.000 A 
ATOM     29  C   UNL     1       4.468   5.509  17.030  0.00  0.00    +0.000 A 
ATOM     30  C   UNL     1       3.642   6.267  17.878  0.00  0.00    +0.000 A 
ATOM     31  C   UNL     1       3.190   7.555  17.525  0.00  0.00    +0.000 A 
ENDBRANCH  21  22
ENDBRANCH  12  21
TORSDOF 7
ENDMDL
MODEL 2
REMARK VINA RESULT:      -8.0      0.617      1.531
REMARK  Name = 
REMARK  8 active torsions:
REMARK  status: ('A' for Active; 'I' for Inactive)
REMARK    1  A    between atoms: C_1  and  O_2
REMARK    2  A    between atoms: O_2  and  C_3
REMARK    3  A    between atoms: C_3  and  C_5
REMARK    4  A    between atoms: C_5  and  C_6
REMARK    5  A    between atoms: C_6  and  C_7
REMARK    6  A    between atoms: C_7  and  C_8
REMARK    7  A    between atoms: N_19  and  C_20
REMARK    8  A    between atoms: C_20  and  C_21
REMARK                            x       y       z     vdW  Elec       q    Type
REMARK                         _______ _______ _______ _____ _____    ______ ____
ROOT
ATOM      1  C   UNL     1      -0.116   9.813  19.052  0.00  0.00    +0.000 C 
ATOM      2  C   UNL     1      -0.783  10.465  20.295  0.00  0.00    +0.000 C 
ATOM      3  C   UNL     1      -0.148  10.016  21.625  0.00  0.00    +0.000 C 
ATOM      4  C   UNL     1      -0.788  10.753  22.801  0.00  0.00    +0.000 C 
ATOM      5  C   UNL     1      -0.761  12.274  22.616  0.00  0.00    +0.000 C 
ATOM      6  N   UNL     1      -1.357  12.662  21.335  0.00  0.00    +0.000 NA
ATOM      7  C   UNL     1      -1.446  14.112  21.145  0.00  0.00    +0.000 C 
ATOM      8  C   UNL     1      -0.272  14.817  20.440  0.00  0.00    +0.000 C 
ATOM      9  C   UNL     1       0.504  13.975  19.424  0.00  0.00    +0.000 C 
ATOM     10  C   UNL     1       0.668  12.524  19.893  0.00  0.00    +0.000 C 
ATOM     11  C   UNL     1       1.478  11.686  18.877  0.00  0.00    +0.000 C 
ATOM     12  N   UNL     1       1.312  10.226  19.001  0.00  0.00    +0.000 NA
ATOM     13  C   UNL     1      -0.746  11.991  20.172  0.00  0.00    +0.000 C 
ENDROOT
BRANCH   1  14
ATOM     14  C   UNL     1      -0.894  10.069  17.715  0.00  0.00    +0.000 C 
BRANCH  14  15
ATOM     15  C   UNL     1      -2.262  10.737  17.902  0.00  0.00    +0.000 C 
BRANCH  15  16
ATOM     16  C   UNL     1      -3.362  10.051  17.087  0.00  0.00    +0.000 C 
BRANCH  16  17
ATOM     17  C   UNL     1      -4.098  11.089  16.261  0.00  0.00    +0.000 C 
ATOM     18  O   UNL     1      -5.081  11.695  16.651  0.00  0.00    +0.000 OA
BRANCH  17  20
ATOM     19  C   UNL     1      -3.205  10.069  14.359  0.00  0.00    +0.000 C 
ATOM     20  O   UNL     1      -3.464  11.280  15.074  0.00  0.00    +0.000 OA
ENDBRANCH  17  20
ENDBRANCH  16  17
ENDBRANCH  15  16
ENDBRANCH  14  15
ENDBRANCH   1  14
BRANCH  12  21
ATOM     21  C   UNL     1       2.055   9.493  17.957  0.00  0.00    +0.000 C 
BRANCH  21  22
ATOM     22  C   UNL     1       2.500   8.087  18.316  0.00  0.00    +0.000 A 
ATOM     23  C   UNL     1       3.422   7.420  17.498  0.00  0.00    +0.000 A 
ATOM     24  C   UNL     1       3.799   6.103  17.766  0.00  0.00    +0.000 A 
ATOM     25  C   UNL     1       3.268   5.416  18.864  0.00  0.00    +0.000 A 
ATOM     26  C   UNL     1       3.648   4.092  19.147  0.00  0.00    +0.000 A 
ATOM     27  C   UNL     1       3.128   3.421  20.254  0.00  0.00    +0.000 A 
ATOM     28  C   UNL     1       2.215   4.062  21.086  0.00  0.00    +0.000 A 
ATOM     29  C   UNL     1       1.816   5.373  20.807  0.00  0.00    +0.000 A 
ATOM     30  C   UNL     1       2.334   6.069  19.702  0.00  0.00    +0.000 A 
ATOM     31  C   UNL     1       1.952   7.394  19.408  0.00  0.00    +0.000 A 
ENDBRANCH  21  22
ENDBRANCH  12  21
TORSDOF 7
ENDMDL
MODEL 3
REMARK VINA RESULT:      -8.0      1.230      1.404
REMARK  Name = 
REMARK  8 active torsions:
REMARK  status: ('A' for Active; 'I' for Inactive)
REMARK    1  A    between atoms: C_1  and  O_2
REMARK    2  A    between atoms: O_2  and  C_3
REMARK    3  A    between atoms: C_3  and  C_5
REMARK    4  A    between atoms: C_5  and  C_6
REMARK    5  A    between atoms: C_6  and  C_7
REMARK    6  A    between atoms: C_7  and  C_8
REMARK    7  A    between atoms: N_19  and  C_20
REMARK    8  A    between atoms: C_20  and  C_21
REMARK                            x       y       z     vdW  Elec       q    Type
REMARK                         _______ _______ _______ _____ _____    ______ ____
ROOT
ATOM      1  C   UNL     1      -0.003   9.742  19.073  0.00  0.00    +0.000 C 
ATOM      2  C   UNL     1      -0.602  10.738  20.105  0.00  0.00    +0.000 C 
ATOM      3  C   UNL     1      -0.100  10.493  21.541  0.00  0.00    +0.000 C 
ATOM      4  C   UNL     1      -0.656  11.552  22.491  0.00  0.00    +0.000 C 
ATOM      5  C   UNL     1      -0.375  12.977  22.001  0.00  0.00    +0.000 C 
ATOM      6  N   UNL     1      -0.851  13.167  20.627  0.00  0.00    +0.000 NA
ATOM      7  C   UNL     1      -0.696  14.540  20.138  0.00  0.00    +0.000 C 
ATOM      8  C   UNL     1       0.604  14.892  19.390  0.00  0.00    +0.000 C 
ATOM      9  C   UNL     1       1.271  13.745  18.626  0.00  0.00    +0.000 C 
ATOM     10  C   UNL     1       1.179  12.420  19.394  0.00  0.00    +0.000 C 
ATOM     11  C   UNL     1       1.880  11.272  18.632  0.00  0.00    +0.000 C 
ATOM     12  N   UNL     1       1.474   9.915  19.041  0.00  0.00    +0.000 NA
ATOM     13  C   UNL     1      -0.313  12.178  19.674  0.00  0.00    +0.000 C 
ENDROOT
BRANCH   1  14
ATOM     14  C   UNL     1      -0.677   9.820  17.659  0.00  0.00    +0.000 C 
BRANCH  14  15
ATOM     15  C   UNL     1      -1.900  10.744  17.597  0.00  0.00    +0.000 C 
BRANCH  15  16
ATOM     16  C   UNL     1      -3.158  10.015  17.120  0.00  0.00    +0.000 C 
BRANCH  16  17
ATOM     17  C   UNL     1      -3.980  10.946  16.249  0.00  0.00    +0.000 C 
ATOM     18  O   UNL     1      -5.039  11.440  16.593  0.00  0.00    +0.000 OA
BRANCH  17  20
ATOM     19  C   UNL     1      -3.369  10.091  14.162  0.00  0.00    +0.000 C 
ATOM     20  O   UNL     1      -3.332  11.188  15.079  0.00  0.00    +0.000 OA
ENDBRANCH  17  20
ENDBRANCH  16  17
ENDBRANCH  15  16
ENDBRANCH  14  15
ENDBRANCH   1  14
BRANCH  12  21
ATOM     21  C   UNL     1       2.128   8.871  18.225  0.00  0.00    +0.000 C 
BRANCH  21  22
ATOM     22  C   UNL     1       2.028   7.452  18.752  0.00  0.00    +0.000 A 
ATOM     23  C   UNL     1       1.949   7.229  20.134  0.00  0.00    +0.000 A 
ATOM     24  C   UNL     1       1.924   5.932  20.651  0.00  0.00    +0.000 A 
ATOM     25  C   UNL     1       1.970   4.821  19.802  0.00  0.00    +0.000 A 
ATOM     26  C   UNL     1       1.936   3.512  20.313  0.00  0.00    +0.000 A 
ATOM     27  C   UNL     1       1.964   2.410  19.458  0.00  0.00    +0.000 A 
ATOM     28  C   UNL     1       2.036   2.604  18.082  0.00  0.00    +0.000 A 
ATOM     29  C   UNL     1       2.087   3.900  17.560  0.00  0.00    +0.000 A 
ATOM     30  C   UNL     1       2.052   5.024  18.404  0.00  0.00    +0.000 A 
ATOM     31  C   UNL     1       2.093   6.339  17.899  0.00  0.00    +0.000 A 
ENDBRANCH  21  22
ENDBRANCH  12  21
TORSDOF 7
ENDMDL
MODEL 4
REMARK VINA RESULT:      -8.0      4.162      9.007
REMARK  Name = 
REMARK  8 active torsions:
REMARK  status: ('A' for Active; 'I' for Inactive)
REMARK    1  A    between atoms: C_1  and  O_2
REMARK    2  A    between atoms: O_2  and  C_3
REMARK    3  A    between atoms: C_3  and  C_5
REMARK    4  A    between atoms: C_5  and  C_6
REMARK    5  A    between atoms: C_6  and  C_7
REMARK    6  A    between atoms: C_7  and  C_8
REMARK    7  A    between atoms: N_19  and  C_20
REMARK    8  A    between atoms: C_20  and  C_21
REMARK                            x       y       z     vdW  Elec       q    Type
REMARK                         _______ _______ _______ _____ _____    ______ ____
ROOT
ATOM      1  C   UNL     1       3.655   6.299  19.506  0.00  0.00    +0.000 C 
ATOM      2  C   UNL     1       3.518   4.902  20.172  0.00  0.00    +0.000 C 
ATOM      3  C   UNL     1       2.357   4.827  21.183  0.00  0.00    +0.000 C 
ATOM      4  C   UNL     1       2.220   3.410  21.739  0.00  0.00    +0.000 C 
ATOM      5  C   UNL     1       2.107   2.360  20.629  0.00  0.00    +0.000 C 
ATOM      6  N   UNL     1       3.217   2.472  19.679  0.00  0.00    +0.000 NA
ATOM      7  C   UNL     1       3.215   1.430  18.648  0.00  0.00    +0.000 C 
ATOM      8  C   UNL     1       2.483   1.731  17.327  0.00  0.00    +0.000 C 
ATOM      9  C   UNL     1       2.436   3.202  16.905  0.00  0.00    +0.000 C 
ATOM     10  C   UNL     1       2.233   4.133  18.107  0.00  0.00    +0.000 C 
ATOM     11  C   UNL     1       2.156   5.615  17.672  0.00  0.00    +0.000 C 
ATOM     12  N   UNL     1       2.411   6.593  18.745  0.00  0.00    +0.000 NA
ATOM     13  C   UNL     1       3.364   3.820  19.099  0.00  0.00    +0.000 C 
ENDROOT
BRANCH   1  14
ATOM     14  C   UNL     1       4.965   6.466  18.660  0.00  0.00    +0.000 C 
BRANCH  14  15
ATOM     15  C   UNL     1       6.144   5.619  19.155  0.00  0.00    +0.000 C 
BRANCH  15  16
ATOM     16  C   UNL     1       7.118   5.260  18.030  0.00  0.00    +0.000 C 
BRANCH  16  17
ATOM     17  C   UNL     1       7.153   6.388  17.016  0.00  0.00    +0.000 C 
ATOM     18  O   UNL     1       7.657   7.477  17.230  0.00  0.00    +0.000 OA
BRANCH  17  20
ATOM     19  C   UNL     1       6.918   4.626  15.501  0.00  0.00    +0.000 C 
ATOM     20  O   UNL     1       6.607   5.980  15.840  0.00  0.00    +0.000 OA
ENDBRANCH  17  20
ENDBRANCH  16  17
ENDBRANCH  15  16
ENDBRANCH  14  15
ENDBRANCH   1  14
BRANCH  12  21
ATOM     21  C   UNL     1       2.392   7.982  18.245  0.00  0.00    +0.000 C 
BRANCH  21  22
ATOM     22  C   UNL     1       1.563   8.969  19.046  0.00  0.00    +0.000 A 
ATOM     23  C   UNL     1       1.292  10.238  18.517  0.00  0.00    +0.000 A 
ATOM     24  C   UNL     1       0.589  11.190  19.258  0.00  0.00    +0.000 A 
ATOM     25  C   UNL     1       0.132  10.898  20.548  0.00  0.00    +0.000 A 
ATOM     26  C   UNL     1      -0.584  11.847  21.299  0.00  0.00    +0.000 A 
ATOM     27  C   UNL     1      -1.051  11.542  22.577  0.00  0.00    +0.000 A 
ATOM     28  C   UNL     1      -0.801  10.287  23.123  0.00  0.00    +0.000 A 
ATOM     29  C   UNL     1      -0.076   9.339  22.395  0.00  0.00    +0.000 A 
ATOM     30  C   UNL     1       0.397   9.624  21.103  0.00  0.00    +0.000 A 
ATOM     31  C   UNL     1       1.122   8.680  20.347  0.00  0.00    +0.000 A 
ENDBRANCH  21  22
ENDBRANCH  12  21
TORSDOF 7
ENDMDL
MODEL 5
REMARK VINA RESULT:      -7.9      1.139      2.071
REMARK  Name = 
REMARK  8 active torsions:
REMARK  status: ('A' for Active; 'I' for Inactive)
REMARK    1  A    between atoms: C_1  and  O_2
REMARK    2  A    between atoms: O_2  and  C_3
REMARK    3  A    between atoms: C_3  and  C_5
REMARK    4  A    between atoms: C_5  and  C_6
REMARK    5  A    between atoms: C_6  and  C_7
REMARK    6  A    between atoms: C_7  and  C_8
REMARK    7  A    between atoms: N_19  and  C_20
REMARK    8  A    between atoms: C_20  and  C_21
REMARK                            x       y       z     vdW  Elec       q    Type
REMARK                         _______ _______ _______ _____ _____    ______ ____
ROOT
ATOM      1  C   UNL     1      -0.224   9.972  18.973  0.00  0.00    +0.000 C 
ATOM      2  C   UNL     1      -0.863  10.662  20.211  0.00  0.00    +0.000 C 
ATOM      3  C   UNL     1      -0.270  10.173  21.547  0.00  0.00    +0.000 C 
ATOM      4  C   UNL     1      -0.875  10.947  22.717  0.00  0.00    +0.000 C 
ATOM      5  C   UNL     1      -0.754  12.464  22.535  0.00  0.00    +0.000 C 
ATOM      6  N   UNL     1      -1.312  12.889  21.248  0.00  0.00    +0.000 NA
ATOM      7  C   UNL     1      -1.311  14.342  21.060  0.00  0.00    +0.000 C 
ATOM      8  C   UNL     1      -0.088  14.974  20.368  0.00  0.00    +0.000 C 
ATOM      9  C   UNL     1       0.645  14.087  19.358  0.00  0.00    +0.000 C 
ATOM     10  C   UNL     1       0.715  12.629  19.827  0.00  0.00    +0.000 C 
ATOM     11  C   UNL     1       1.483  11.743  18.818  0.00  0.00    +0.000 C 
ATOM     12  N   UNL     1       1.227  10.297  18.938  0.00  0.00    +0.000 NA
ATOM     13  C   UNL     1      -0.731  12.182  20.091  0.00  0.00    +0.000 C 
ENDROOT
BRANCH   1  14
ATOM     14  C   UNL     1      -0.971  10.275  17.629  0.00  0.00    +0.000 C 
BRANCH  14  15
ATOM     15  C   UNL     1      -2.468   9.939  17.653  0.00  0.00    +0.000 C 
BRANCH  15  16
ATOM     16  C   UNL     1      -3.335  11.103  17.166  0.00  0.00    +0.000 C 
BRANCH  16  17
ATOM     17  C   UNL     1      -4.393  11.413  18.209  0.00  0.00    +0.000 C 
ATOM     18  O   UNL     1      -4.199  12.116  19.184  0.00  0.00    +0.000 OA
BRANCH  17  20
ATOM     19  C   UNL     1      -6.717  11.645  18.195  0.00  0.00    +0.000 C 
ATOM     20  O   UNL     1      -5.578  10.849  17.856  0.00  0.00    +0.000 OA
ENDBRANCH  17  20
ENDBRANCH  16  17
ENDBRANCH  15  16
ENDBRANCH  14  15
ENDBRANCH   1  14
BRANCH  12  21
ATOM     21  C   UNL     1       1.935   9.520  17.900  0.00  0.00    +0.000 C 
BRANCH  21  22
ATOM     22  C   UNL     1       2.425   8.145  18.314  0.00  0.00    +0.000 A 
ATOM     23  C   UNL     1       3.444   7.522  17.580  0.00  0.00    +0.000 A 
ATOM     24  C   UNL     1       3.870   6.230  17.896  0.00  0.00    +0.000 A 
ATOM     25  C   UNL     1       3.291   5.526  18.958  0.00  0.00    +0.000 A 
ATOM     26  C   UNL     1       3.719   4.228  19.289  0.00  0.00    +0.000 A 
ATOM     27  C   UNL     1       3.150   3.540  20.360  0.00  0.00    +0.000 A 
ATOM     28  C   UNL     1       2.141   4.138  21.109  0.00  0.00    +0.000 A 
ATOM     29  C   UNL     1       1.694   5.422  20.781  0.00  0.00    +0.000 A 
ATOM     30  C   UNL     1       2.260   6.135  19.710  0.00  0.00    +0.000 A 
ATOM     31  C   UNL     1       1.831   7.434  19.368  0.00  0.00    +0.000 A 
ENDBRANCH  21  22
ENDBRANCH  12  21
TORSDOF 7
ENDMDL
MODEL 6
REMARK VINA RESULT:      -7.9      4.300      9.097
REMARK  Name = 
REMARK  8 active torsions:
REMARK  status: ('A' for Active; 'I' for Inactive)
REMARK    1  A    between atoms: C_1  and  O_2
REMARK    2  A    between atoms: O_2  and  C_3
REMARK    3  A    between atoms: C_3  and  C_5
REMARK    4  A    between atoms: C_5  and  C_6
REMARK    5  A    between atoms: C_6  and  C_7
REMARK    6  A    between atoms: C_7  and  C_8
REMARK    7  A    between atoms: N_19  and  C_20
REMARK    8  A    between atoms: C_20  and  C_21
REMARK                            x       y       z     vdW  Elec       q    Type
REMARK                         _______ _______ _______ _____ _____    ______ ____
ROOT
ATOM      1  C   UNL     1       3.564   6.361  19.501  0.00  0.00    +0.000 C 
ATOM      2  C   UNL     1       3.446   4.965  20.175  0.00  0.00    +0.000 C 
ATOM      3  C   UNL     1       2.262   4.868  21.157  0.00  0.00    +0.000 C 
ATOM      4  C   UNL     1       2.148   3.452  21.720  0.00  0.00    +0.000 C 
ATOM      5  C   UNL     1       2.090   2.391  20.615  0.00  0.00    +0.000 C 
ATOM      6  N   UNL     1       3.221   2.525  19.693  0.00  0.00    +0.000 NA
ATOM      7  C   UNL     1       3.271   1.476  18.671  0.00  0.00    +0.000 C 
ATOM      8  C   UNL     1       2.566   1.749  17.329  0.00  0.00    +0.000 C 
ATOM      9  C   UNL     1       2.491   3.215  16.895  0.00  0.00    +0.000 C 
ATOM     10  C   UNL     1       2.235   4.149  18.084  0.00  0.00    +0.000 C 
ATOM     11  C   UNL     1       2.130   5.625  17.636  0.00  0.00    +0.000 C 
ATOM     12  N   UNL     1       2.332   6.617  18.707  0.00  0.00    +0.000 NA
ATOM     13  C   UNL     1       3.348   3.873  19.107  0.00  0.00    +0.000 C 
ENDROOT
BRANCH   1  14
ATOM     14  C   UNL     1       4.890   6.556  18.688  0.00  0.00    +0.000 C 
BRANCH  14  15
ATOM     15  C   UNL     1       5.851   5.362  18.757  0.00  0.00    +0.000 C 
BRANCH  15  16
ATOM     16  C   UNL     1       7.295   5.790  19.032  0.00  0.00    +0.000 C 
BRANCH  16  17
ATOM     17  C   UNL     1       7.754   6.740  17.942  0.00  0.00    +0.000 C 
ATOM     18  O   UNL     1       7.566   6.552  16.754  0.00  0.00    +0.000 OA
BRANCH  17  20
ATOM     19  C   UNL     1       8.028   9.057  17.808  0.00  0.00    +0.000 C 
ATOM     20  O   UNL     1       8.336   7.839  18.492  0.00  0.00    +0.000 OA
ENDBRANCH  17  20
ENDBRANCH  16  17
ENDBRANCH  15  16
ENDBRANCH  14  15
ENDBRANCH   1  14
BRANCH  12  21
ATOM     21  C   UNL     1       2.291   8.002  18.196  0.00  0.00    +0.000 C 
BRANCH  21  22
ATOM     22  C   UNL     1       1.520   9.001  19.038  0.00  0.00    +0.000 A 
ATOM     23  C   UNL     1       1.337  10.309  18.569  0.00  0.00    +0.000 A 
ATOM     24  C   UNL     1       0.691  11.269  19.351  0.00  0.00    +0.000 A 
ATOM     25  C   UNL     1       0.203  10.946  20.623  0.00  0.00    +0.000 A 
ATOM     26  C   UNL     1      -0.457  11.903  21.414  0.00  0.00    +0.000 A 
ATOM     27  C   UNL     1      -0.955  11.568  22.673  0.00  0.00    +0.000 A 
ATOM     28  C   UNL     1      -0.793  10.275  23.159  0.00  0.00    +0.000 A 
ATOM     29  C   UNL     1      -0.124   9.317  22.391  0.00  0.00    +0.000 A 
ATOM     30  C   UNL     1       0.379   9.632  21.117  0.00  0.00    +0.000 A 
ATOM     31  C   UNL     1       1.048   8.680  20.321  0.00  0.00    +0.000 A 
ENDBRANCH  21  22
ENDBRANCH  12  21
TORSDOF 7
ENDMDL
MODEL 7
REMARK VINA RESULT:      -7.9      0.846      1.305
REMARK  Name = 
REMARK  8 active torsions:
REMARK  status: ('A' for Active; 'I' for Inactive)
REMARK    1  A    between atoms: C_1  and  O_2
REMARK    2  A    between atoms: O_2  and  C_3
REMARK    3  A    between atoms: C_3  and  C_5
REMARK    4  A    between atoms: C_5  and  C_6
REMARK    5  A    between atoms: C_6  and  C_7
REMARK    6  A    between atoms: C_7  and  C_8
REMARK    7  A    between atoms: N_19  and  C_20
REMARK    8  A    between atoms: C_20  and  C_21
REMARK                            x       y       z     vdW  Elec       q    Type
REMARK                         _______ _______ _______ _____ _____    ______ ____
ROOT
ATOM      1  C   UNL     1      -0.338  10.133  19.053  0.00  0.00    +0.000 C 
ATOM      2  C   UNL     1      -0.963  10.823  20.298  0.00  0.00    +0.000 C 
ATOM      3  C   UNL     1      -0.355  10.335  21.627  0.00  0.00    +0.000 C 
ATOM      4  C   UNL     1      -0.947  11.109  22.804  0.00  0.00    +0.000 C 
ATOM      5  C   UNL     1      -0.828  12.626  22.620  0.00  0.00    +0.000 C 
ATOM      6  N   UNL     1      -1.401  13.051  21.339  0.00  0.00    +0.000 NA
ATOM      7  C   UNL     1      -1.403  14.504  21.151  0.00  0.00    +0.000 C 
ATOM      8  C   UNL     1      -0.188  15.136  20.445  0.00  0.00    +0.000 C 
ATOM      9  C   UNL     1       0.533  14.249  19.427  0.00  0.00    +0.000 C 
ATOM     10  C   UNL     1       0.610  12.791  19.895  0.00  0.00    +0.000 C 
ATOM     11  C   UNL     1       1.367  11.905  18.878  0.00  0.00    +0.000 C 
ATOM     12  N   UNL     1       1.112  10.459  19.001  0.00  0.00    +0.000 NA
ATOM     13  C   UNL     1      -0.834  12.344  20.176  0.00  0.00    +0.000 C 
ENDROOT
BRANCH   1  14
ATOM     14  C   UNL     1      -1.100  10.436  17.717  0.00  0.00    +0.000 C 
BRANCH  14  15
ATOM     15  C   UNL     1      -2.620  10.247  17.805  0.00  0.00    +0.000 C 
BRANCH  15  16
ATOM     16  C   UNL     1      -3.373  11.081  16.766  0.00  0.00    +0.000 C 
BRANCH  16  17
ATOM     17  C   UNL     1      -4.760  11.406  17.289  0.00  0.00    +0.000 C 
ATOM     18  O   UNL     1      -5.420  12.359  16.916  0.00  0.00    +0.000 OA
BRANCH  17  20
ATOM     19  C   UNL     1      -6.465  10.687  18.714  0.00  0.00    +0.000 C 
ATOM     20  O   UNL     1      -5.165  10.451  18.168  0.00  0.00    +0.000 OA
ENDBRANCH  17  20
ENDBRANCH  16  17
ENDBRANCH  15  16
ENDBRANCH  14  15
ENDBRANCH   1  14
BRANCH  12  21
ATOM     21  C   UNL     1       1.809   9.682  17.956  0.00  0.00    +0.000 C 
BRANCH  21  22
ATOM     22  C   UNL     1       2.274   8.294  18.354  0.00  0.00    +0.000 A 
ATOM     23  C   UNL     1       1.927   7.780  19.611  0.00  0.00    +0.000 A 
ATOM     24  C   UNL     1       2.397   6.534  20.032  0.00  0.00    +0.000 A 
ATOM     25  C   UNL     1       3.222   5.763  19.205  0.00  0.00    +0.000 A 
ATOM     26  C   UNL     1       3.692   4.504  19.616  0.00  0.00    +0.000 A 
ATOM     27  C   UNL     1       4.499   3.734  18.779  0.00  0.00    +0.000 A 
ATOM     28  C   UNL     1       4.852   4.218  17.523  0.00  0.00    +0.000 A 
ATOM     29  C   UNL     1       4.406   5.476  17.107  0.00  0.00    +0.000 A 
ATOM     30  C   UNL     1       3.586   6.264  17.933  0.00  0.00    +0.000 A 
ATOM     31  C   UNL     1       3.117   7.531  17.530  0.00  0.00    +0.000 A 
ENDBRANCH  21  22
ENDBRANCH  12  21
TORSDOF 7
ENDMDL
MODEL 8
REMARK VINA RESULT:      -7.7      1.242      1.976
REMARK  Name = 
REMARK  8 active torsions:
REMARK  status: ('A' for Active; 'I' for Inactive)
REMARK    1  A    between atoms: C_1  and  O_2
REMARK    2  A    between atoms: O_2  and  C_3
REMARK    3  A    between atoms: C_3  and  C_5
REMARK    4  A    between atoms: C_5  and  C_6
REMARK    5  A    between atoms: C_6  and  C_7
REMARK    6  A    between atoms: C_7  and  C_8
REMARK    7  A    between atoms: N_19  and  C_20
REMARK    8  A    between atoms: C_20  and  C_21
REMARK                            x       y       z     vdW  Elec       q    Type
REMARK                         _______ _______ _______ _____ _____    ______ ____
ROOT
ATOM      1  C   UNL     1      -0.025   9.416  18.951  0.00  0.00    +0.000 C 
ATOM      2  C   UNL     1      -0.656   9.679  20.347  0.00  0.00    +0.000 C 
ATOM      3  C   UNL     1      -0.046   8.804  21.459  0.00  0.00    +0.000 C 
ATOM      4  C   UNL     1      -0.644   9.167  22.817  0.00  0.00    +0.000 C 
ATOM      5  C   UNL     1      -0.535  10.667  23.116  0.00  0.00    +0.000 C 
ATOM      6  N   UNL     1      -1.109  11.467  22.031  0.00  0.00    +0.000 NA
ATOM      7  C   UNL     1      -1.120  12.906  22.306  0.00  0.00    +0.000 C 
ATOM      8  C   UNL     1       0.091  13.734  21.836  0.00  0.00    +0.000 C 
ATOM      9  C   UNL     1       0.820  13.214  20.594  0.00  0.00    +0.000 C 
ATOM     10  C   UNL     1       0.905  11.683  20.583  0.00  0.00    +0.000 C 
ATOM     11  C   UNL     1       1.668  11.164  19.342  0.00  0.00    +0.000 C 
ATOM     12  N   UNL     1       1.423   9.750  19.007  0.00  0.00    +0.000 NA
ATOM     13  C   UNL     1      -0.536  11.162  20.706  0.00  0.00    +0.000 C 
ENDROOT
BRANCH   1  14
ATOM     14  C   UNL     1      -0.789  10.117  17.774  0.00  0.00    +0.000 C 
BRANCH  14  15
ATOM     15  C   UNL     1      -2.313   9.950  17.827  0.00  0.00    +0.000 C 
BRANCH  15  16
ATOM     16  C   UNL     1      -3.051  11.283  17.679  0.00  0.00    +0.000 C 
BRANCH  16  17
ATOM     17  C   UNL     1      -3.895  11.254  16.419  0.00  0.00    +0.000 C 
ATOM     18  O   UNL     1      -3.433  11.169  15.294  0.00  0.00    +0.000 OA
BRANCH  17  20
ATOM     19  C   UNL     1      -5.557  12.247  17.726  0.00  0.00    +0.000 C 
ATOM     20  O   UNL     1      -5.216  11.270  16.738  0.00  0.00    +0.000 OA
ENDBRANCH  17  20
ENDBRANCH  16  17
ENDBRANCH  15  16
ENDBRANCH  14  15
ENDBRANCH   1  14
BRANCH  12  21
ATOM     21  C   UNL     1       2.125   9.343  17.773  0.00  0.00    +0.000 C 
BRANCH  21  22
ATOM     22  C   UNL     1       2.671   7.927  17.752  0.00  0.00    +0.000 A 
ATOM     23  C   UNL     1       3.993   7.700  17.346  0.00  0.00    +0.000 A 
ATOM     24  C   UNL     1       4.503   6.403  17.252  0.00  0.00    +0.000 A 
ATOM     25  C   UNL     1       3.706   5.296  17.567  0.00  0.00    +0.000 A 
ATOM     26  C   UNL     1       4.213   3.988  17.484  0.00  0.00    +0.000 A 
ATOM     27  C   UNL     1       3.418   2.891  17.818  0.00  0.00    +0.000 A 
ATOM     28  C   UNL     1       2.104   3.090  18.230  0.00  0.00    +0.000 A 
ATOM     29  C   UNL     1       1.581   4.385  18.301  0.00  0.00    +0.000 A 
ATOM     30  C   UNL     1       2.368   5.503  17.977  0.00  0.00    +0.000 A 
ATOM     31  C   UNL     1       1.864   6.818  18.051  0.00  0.00    +0.000 A 
ENDBRANCH  21  22
ENDBRANCH  12  21
TORSDOF 7
ENDMDL
MODEL 9
REMARK VINA RESULT:      -7.6      1.184      1.596
REMARK  Name = 
REMARK  8 active torsions:
REMARK  status: ('A' for Active; 'I' for Inactive)
REMARK    1  A    between atoms: C_1  and  O_2
REMARK    2  A    between atoms: O_2  and  C_3
REMARK    3  A    between atoms: C_3  and  C_5
REMARK    4  A    between atoms: C_5  and  C_6
REMARK    5  A    between atoms: C_6  and  C_7
REMARK    6  A    between atoms: C_7  and  C_8
REMARK    7  A    between atoms: N_19  and  C_20
REMARK    8  A    between atoms: C_20  and  C_21
REMARK                            x       y       z     vdW  Elec       q    Type
REMARK                         _______ _______ _______ _____ _____    ______ ____
ROOT
ATOM      1  C   UNL     1      -0.683  11.042  19.395  0.00  0.00    +0.000 C 
ATOM      2  C   UNL     1      -1.270  11.855  20.582  0.00  0.00    +0.000 C 
ATOM      3  C   UNL     1      -0.855  11.300  21.958  0.00  0.00    +0.000 C 
ATOM      4  C   UNL     1      -1.391  12.189  23.079  0.00  0.00    +0.000 C 
ATOM      5  C   UNL     1      -1.000  13.659  22.891  0.00  0.00    +0.000 C 
ATOM      6  N   UNL     1      -1.396  14.147  21.567  0.00  0.00    +0.000 NA
ATOM      7  C   UNL     1      -1.134  15.574  21.366  0.00  0.00    +0.000 C 
ATOM      8  C   UNL     1       0.219  15.975  20.749  0.00  0.00    +0.000 C 
ATOM      9  C   UNL     1       0.852  14.956  19.797  0.00  0.00    +0.000 C 
ATOM     10  C   UNL     1       0.642  13.517  20.283  0.00  0.00    +0.000 C 
ATOM     11  C   UNL     1       1.309  12.494  19.334  0.00  0.00    +0.000 C 
ATOM     12  N   UNL     1       0.802  11.114  19.451  0.00  0.00    +0.000 NA
ATOM     13  C   UNL     1      -0.873  13.329  20.456  0.00  0.00    +0.000 C 
ENDROOT
BRANCH   1  14
ATOM     14  C   UNL     1      -1.281  11.441  18.002  0.00  0.00    +0.000 C 
BRANCH  14  15
ATOM     15  C   UNL     1      -2.034  10.307  17.294  0.00  0.00    +0.000 C 
BRANCH  15  16
ATOM     16  C   UNL     1      -3.115  10.829  16.343  0.00  0.00    +0.000 C 
BRANCH  16  17
ATOM     17  C   UNL     1      -4.390  11.087  17.124  0.00  0.00    +0.000 C 
ATOM     18  O   UNL     1      -4.715  10.462  18.118  0.00  0.00    +0.000 OA
BRANCH  17  20
ATOM     19  C   UNL     1      -6.148  12.600  17.400  0.00  0.00    +0.000 C 
ATOM     20  O   UNL     1      -5.062  12.141  16.591  0.00  0.00    +0.000 OA
ENDBRANCH  17  20
ENDBRANCH  16  17
ENDBRANCH  15  16
ENDBRANCH  14  15
ENDBRANCH   1  14
BRANCH  12  21
ATOM     21  C   UNL     1       1.430  10.208  18.469  0.00  0.00    +0.000 C 
BRANCH  21  22
ATOM     22  C   UNL     1       1.695   8.791  18.942  0.00  0.00    +0.000 A 
ATOM     23  C   UNL     1       1.391   8.433  20.263  0.00  0.00    +0.000 A 
ATOM     24  C   UNL     1       1.686   7.156  20.747  0.00  0.00    +0.000 A 
ATOM     25  C   UNL     1       2.289   6.200  19.922  0.00  0.00    +0.000 A 
ATOM     26  C   UNL     1       2.581   4.909  20.397  0.00  0.00    +0.000 A 
ATOM     27  C   UNL     1       3.165   3.956  19.563  0.00  0.00    +0.000 A 
ATOM     28  C   UNL     1       3.471   4.284  18.246  0.00  0.00    +0.000 A 
ATOM     29  C   UNL     1       3.202   5.569  17.764  0.00  0.00    +0.000 A 
ATOM     30  C   UNL     1       2.606   6.541  18.586  0.00  0.00    +0.000 A 
ATOM     31  C   UNL     1       2.316   7.839  18.118  0.00  0.00    +0.000 A 
ENDBRANCH  21  22
ENDBRANCH  12  21
TORSDOF 7
ENDMDL
