MODEL 1
REMARK VINA RESULT:      -7.5      0.000      0.000
REMARK  Name = 
REMARK  5 active torsions:
REMARK  status: ('A' for Active; 'I' for Inactive)
REMARK    1  A    between atoms: C_2  and  O_3
REMARK    2  A    between atoms: C_2  and  C_4
REMARK    3  A    between atoms: C_10  and  C_11
REMARK    4  A    between atoms: N_13  and  C_14
REMARK    5  A    between atoms: C_14  and  C_15
REMARK                            x       y       z     vdW  Elec       q    Type
REMARK                         _______ _______ _______ _____ _____    ______ ____
ROOT
ATOM      1  C   UNL     1       2.687   6.534  19.537  0.00  0.00    +0.000 C 
ATOM      2  O   UNL     1       3.160   6.848  18.446  0.00  0.00    +0.000 OA
ATOM      3  N   UNL     1       1.871   7.350  20.277  0.00  0.00    +0.000 N 
ATOM      4  H   UNL     1       1.358   6.959  21.064  0.00  0.00    +0.000 HD
ENDROOT
BRANCH   1  11
ATOM      5  C   UNL     1       2.954   4.119  18.895  0.00  0.00    +0.000 C 
ATOM      6  C   UNL     1       1.867   3.123  19.310  0.00  0.00    +0.000 C 
ATOM      7  C   UNL     1       2.179   2.318  20.576  0.00  0.00    +0.000 C 
ATOM      8  C   UNL     1       2.089   3.374  21.674  0.00  0.00    +0.000 C 
ATOM      9  C   UNL     1       1.713   4.619  20.883  0.00  0.00    +0.000 C 
ATOM     10  O   UNL     1       0.873   4.049  19.842  0.00  0.00    +0.000 OA
ATOM     11  C   UNL     1       2.899   5.121  20.058  0.00  0.00    +0.000 C 
BRANCH   5  13
ATOM     12  O   UNL     1       5.290   3.684  19.362  0.00  0.00    +0.000 OA
ATOM     13  C   UNL     1       4.308   3.490  18.670  0.00  0.00    +0.000 C 
BRANCH  13  14
ATOM     14  O   UNL     1       4.317   2.600  17.649  0.00  0.00    +0.000 OA
ATOM     15  H   UNL     1       5.191   2.241  17.392  0.00  0.00    +0.000 HD
ENDBRANCH  13  14
ENDBRANCH   5  13
ENDBRANCH   1  11
BRANCH   3  16
ATOM     16  C   UNL     1       1.582   8.724  19.913  0.00  0.00    +0.000 C 
BRANCH  16  17
ATOM     17  C   UNL     1       0.694   9.413  20.922  0.00  0.00    +0.000 A 
ATOM     18  C   UNL     1       0.671   8.916  22.240  0.00  0.00    +0.000 A 
ATOM     19  C   UNL     1      -0.082   9.543  23.239  0.00  0.00    +0.000 A 
ATOM     20  C   UNL     1      -0.837  10.671  22.939  0.00  0.00    +0.000 A 
ATOM     21  C   UNL     1      -0.852  11.163  21.637  0.00  0.00    +0.000 A 
ATOM     22  C   UNL     1      -0.097  10.538  20.632  0.00  0.00    +0.000 A 
ATOM     23 BR   UNL     1      -0.195  11.291  18.890  0.00  0.00    +0.000 Br
ENDBRANCH  16  17
ENDBRANCH   3  16
TORSDOF 5
ENDMDL
MODEL 2
REMARK VINA RESULT:      -7.4      1.856      3.267
REMARK  Name = 
REMARK  5 active torsions:
REMARK  status: ('A' for Active; 'I' for Inactive)
REMARK    1  A    between atoms: C_2  and  O_3
REMARK    2  A    between atoms: C_2  and  C_4
REMARK    3  A    between atoms: C_10  and  C_11
REMARK    4  A    between atoms: N_13  and  C_14
REMARK    5  A    between atoms: C_14  and  C_15
REMARK                            x       y       z     vdW  Elec       q    Type
REMARK                         _______ _______ _______ _____ _____    ______ ____
ROOT
ATOM      1  C   UNL     1       2.169   5.410  19.774  0.00  0.00    +0.000 C 
ATOM      2  O   UNL     1       1.291   4.787  20.371  0.00  0.00    +0.000 OA
ATOM      3  N   UNL     1       2.485   6.718  20.035  0.00  0.00    +0.000 N 
ATOM      4  H   UNL     1       3.342   7.108  19.651  0.00  0.00    +0.000 HD
ENDROOT
BRANCH   1  11
ATOM      5  C   UNL     1       4.172   3.916  19.504  0.00  0.00    +0.000 C 
ATOM      6  C   UNL     1       5.412   4.471  18.798  0.00  0.00    +0.000 C 
ATOM      7  C   UNL     1       5.536   4.092  17.319  0.00  0.00    +0.000 C 
ATOM      8  C   UNL     1       4.408   4.892  16.673  0.00  0.00    +0.000 C 
ATOM      9  C   UNL     1       3.824   5.632  17.868  0.00  0.00    +0.000 C 
ATOM     10  O   UNL     1       5.016   5.869  18.664  0.00  0.00    +0.000 OA
ATOM     11  C   UNL     1       3.051   4.676  18.777  0.00  0.00    +0.000 C 
BRANCH   5  13
ATOM     12  O   UNL     1       3.162   1.805  18.882  0.00  0.00    +0.000 OA
ATOM     13  C   UNL     1       4.053   2.413  19.445  0.00  0.00    +0.000 C 
BRANCH  13  14
ATOM     14  O   UNL     1       5.100   1.775  20.020  0.00  0.00    +0.000 OA
ATOM     15  H   UNL     1       5.990   2.136  19.828  0.00  0.00    +0.000 HD
ENDBRANCH  13  14
ENDBRANCH   5  13
ENDBRANCH   1  11
BRANCH   3  16
ATOM     16  C   UNL     1       1.730   7.549  20.953  0.00  0.00    +0.000 C 
BRANCH  16  17
ATOM     17  C   UNL     1       1.089   8.733  20.266  0.00  0.00    +0.000 A 
ATOM     18  C   UNL     1       1.399   8.965  18.912  0.00  0.00    +0.000 A 
ATOM     19  C   UNL     1       0.794  10.006  18.198  0.00  0.00    +0.000 A 
ATOM     20  C   UNL     1      -0.121  10.843  18.826  0.00  0.00    +0.000 A 
ATOM     21  C   UNL     1      -0.420  10.650  20.172  0.00  0.00    +0.000 A 
ATOM     22  C   UNL     1       0.183   9.606  20.892  0.00  0.00    +0.000 A 
ATOM     23 BR   UNL     1      -0.295   9.436  22.723  0.00  0.00    +0.000 Br
ENDBRANCH  16  17
ENDBRANCH   3  16
TORSDOF 5
ENDMDL
MODEL 3
REMARK VINA RESULT:      -7.3      0.731      1.054
REMARK  Name = 
REMARK  5 active torsions:
REMARK  status: ('A' for Active; 'I' for Inactive)
REMARK    1  A    between atoms: C_2  and  O_3
REMARK    2  A    between atoms: C_2  and  C_4
REMARK    3  A    between atoms: C_10  and  C_11
REMARK    4  A    between atoms: N_13  and  C_14
REMARK    5  A    between atoms: C_14  and  C_15
REMARK                            x       y       z     vdW  Elec       q    Type
REMARK                         _______ _______ _______ _____ _____    ______ ____
ROOT
ATOM      1  C   UNL     1       2.532   6.461  19.333  0.00  0.00    +0.000 C 
ATOM      2  O   UNL     1       2.934   6.804  18.222  0.00  0.00    +0.000 OA
ATOM      3  N   UNL     1       1.869   7.296  20.194  0.00  0.00    +0.000 N 
ATOM      4  H   UNL     1       1.393   6.900  21.002  0.00  0.00    +0.000 HD
ENDROOT
BRANCH   1  11
ATOM      5  C   UNL     1       1.894   4.098  18.761  0.00  0.00    +0.000 C 
ATOM      6  C   UNL     1       0.966   3.337  19.713  0.00  0.00    +0.000 C 
ATOM      7  C   UNL     1       1.677   2.395  20.691  0.00  0.00    +0.000 C 
ATOM      8  C   UNL     1       2.385   3.364  21.633  0.00  0.00    +0.000 C 
ATOM      9  C   UNL     1       1.956   4.715  21.077  0.00  0.00    +0.000 C 
ATOM     10  O   UNL     1       0.606   4.417  20.625  0.00  0.00    +0.000 OA
ATOM     11  C   UNL     1       2.652   5.002  19.746  0.00  0.00    +0.000 C 
BRANCH   5  13
ATOM     12  O   UNL     1       2.374   2.377  17.126  0.00  0.00    +0.000 OA
ATOM     13  C   UNL     1       2.776   3.206  17.921  0.00  0.00    +0.000 C 
BRANCH  13  14
ATOM     14  O   UNL     1       4.096   3.470  18.073  0.00  0.00    +0.000 OA
ATOM     15  H   UNL     1       4.389   4.374  17.839  0.00  0.00    +0.000 HD
ENDBRANCH  13  14
ENDBRANCH   5  13
ENDBRANCH   1  11
BRANCH   3  16
ATOM     16  C   UNL     1       1.684   8.712  19.942  0.00  0.00    +0.000 C 
BRANCH  16  17
ATOM     17  C   UNL     1       0.760   9.361  20.947  0.00  0.00    +0.000 A 
ATOM     18  C   UNL     1       0.848   8.954  22.292  0.00  0.00    +0.000 A 
ATOM     19  C   UNL     1       0.066   9.556  23.284  0.00  0.00    +0.000 A 
ATOM     20  C   UNL     1      -0.828  10.566  22.950  0.00  0.00    +0.000 A 
ATOM     21  C   UNL     1      -0.953  10.965  21.621  0.00  0.00    +0.000 A 
ATOM     22  C   UNL     1      -0.169  10.364  20.623  0.00  0.00    +0.000 A 
ATOM     23 BR   UNL     1      -0.423  10.981  18.844  0.00  0.00    +0.000 Br
ENDBRANCH  16  17
ENDBRANCH   3  16
TORSDOF 5
ENDMDL
MODEL 4
REMARK VINA RESULT:      -7.2      1.675      3.036
REMARK  Name = 
REMARK  5 active torsions:
REMARK  status: ('A' for Active; 'I' for Inactive)
REMARK    1  A    between atoms: C_2  and  O_3
REMARK    2  A    between atoms: C_2  and  C_4
REMARK    3  A    between atoms: C_10  and  C_11
REMARK    4  A    between atoms: N_13  and  C_14
REMARK    5  A    between atoms: C_14  and  C_15
REMARK                            x       y       z     vdW  Elec       q    Type
REMARK                         _______ _______ _______ _____ _____    ______ ____
ROOT
ATOM      1  C   UNL     1       2.544   6.104  19.513  0.00  0.00    +0.000 C 
ATOM      2  O   UNL     1       3.370   6.709  18.831  0.00  0.00    +0.000 OA
ATOM      3  N   UNL     1       1.781   6.695  20.487  0.00  0.00    +0.000 N 
ATOM      4  H   UNL     1       0.986   6.190  20.870  0.00  0.00    +0.000 HD
ENDROOT
BRANCH   1  11
ATOM      5  C   UNL     1       2.671   3.739  20.353  0.00  0.00    +0.000 C 
ATOM      6  C   UNL     1       3.591   2.751  19.630  0.00  0.00    +0.000 C 
ATOM      7  C   UNL     1       2.889   1.840  18.616  0.00  0.00    +0.000 C 
ATOM      8  C   UNL     1       2.511   2.810  17.500  0.00  0.00    +0.000 C 
ATOM      9  C   UNL     1       3.075   4.125  18.022  0.00  0.00    +0.000 C 
ATOM     10  O   UNL     1       4.267   3.665  18.716  0.00  0.00    +0.000 OA
ATOM     11  C   UNL     1       2.241   4.649  19.192  0.00  0.00    +0.000 C 
BRANCH   5  13
ATOM     12  O   UNL     1       1.611   2.593  22.205  0.00  0.00    +0.000 OA
ATOM     13  C   UNL     1       1.530   3.085  21.094  0.00  0.00    +0.000 C 
BRANCH  13  14
ATOM     14  O   UNL     1       0.352   3.165  20.432  0.00  0.00    +0.000 OA
ATOM     15  H   UNL     1      -0.124   2.322  20.287  0.00  0.00    +0.000 HD
ENDBRANCH  13  14
ENDBRANCH   5  13
ENDBRANCH   1  11
BRANCH   3  16
ATOM     16  C   UNL     1       1.959   8.072  20.908  0.00  0.00    +0.000 C 
BRANCH  16  17
ATOM     17  C   UNL     1       1.007   9.016  20.211  0.00  0.00    +0.000 A 
ATOM     18  C   UNL     1       1.152   9.204  18.822  0.00  0.00    +0.000 A 
ATOM     19  C   UNL     1       0.268  10.015  18.104  0.00  0.00    +0.000 A 
ATOM     20  C   UNL     1      -0.771  10.666  18.760  0.00  0.00    +0.000 A 
ATOM     21  C   UNL     1      -0.916  10.518  20.137  0.00  0.00    +0.000 A 
ATOM     22  C   UNL     1      -0.031   9.703  20.861  0.00  0.00    +0.000 A 
ATOM     23 BR   UNL     1      -0.320   9.576  22.735  0.00  0.00    +0.000 Br
ENDBRANCH  16  17
ENDBRANCH   3  16
TORSDOF 5
ENDMDL
MODEL 5
REMARK VINA RESULT:      -7.2      1.858      3.046
REMARK  Name = 
REMARK  5 active torsions:
REMARK  status: ('A' for Active; 'I' for Inactive)
REMARK    1  A    between atoms: C_2  and  O_3
REMARK    2  A    between atoms: C_2  and  C_4
REMARK    3  A    between atoms: C_10  and  C_11
REMARK    4  A    between atoms: N_13  and  C_14
REMARK    5  A    between atoms: C_14  and  C_15
REMARK                            x       y       z     vdW  Elec       q    Type
REMARK                         _______ _______ _______ _____ _____    ______ ____
ROOT
ATOM      1  C   UNL     1       2.338   5.453  20.382  0.00  0.00    +0.000 C 
ATOM      2  O   UNL     1       1.966   4.838  21.381  0.00  0.00    +0.000 OA
ATOM      3  N   UNL     1       2.188   6.806  20.222  0.00  0.00    +0.000 N 
ATOM      4  H   UNL     1       2.690   7.276  19.473  0.00  0.00    +0.000 HD
ENDROOT
BRANCH   1  11
ATOM      5  C   UNL     1       4.440   5.452  19.004  0.00  0.00    +0.000 C 
ATOM      6  C   UNL     1       4.324   5.647  17.489  0.00  0.00    +0.000 C 
ATOM      7  C   UNL     1       4.363   4.353  16.668  0.00  0.00    +0.000 C 
ATOM      8  C   UNL     1       3.028   3.698  17.014  0.00  0.00    +0.000 C 
ATOM      9  C   UNL     1       2.411   4.721  17.957  0.00  0.00    +0.000 C 
ATOM     10  O   UNL     1       2.904   5.964  17.387  0.00  0.00    +0.000 OA
ATOM     11  C   UNL     1       3.126   4.717  19.310  0.00  0.00    +0.000 C 
BRANCH   5  13
ATOM     12  O   UNL     1       6.730   5.248  19.762  0.00  0.00    +0.000 OA
ATOM     13  C   UNL     1       5.686   4.717  19.434  0.00  0.00    +0.000 C 
BRANCH  13  14
ATOM     14  O   UNL     1       5.513   3.376  19.504  0.00  0.00    +0.000 OA
ATOM     15  H   UNL     1       6.187   2.875  20.007  0.00  0.00    +0.000 HD
ENDBRANCH  13  14
ENDBRANCH   5  13
ENDBRANCH   1  11
BRANCH   3  16
ATOM     16  C   UNL     1       1.455   7.639  21.156  0.00  0.00    +0.000 C 
BRANCH  16  17
ATOM     17  C   UNL     1       0.963   8.920  20.522  0.00  0.00    +0.000 A 
ATOM     18  C   UNL     1       1.286   9.163  19.173  0.00  0.00    +0.000 A 
ATOM     19  C   UNL     1       0.812  10.299  18.507  0.00  0.00    +0.000 A 
ATOM     20  C   UNL     1       0.017  11.220  19.178  0.00  0.00    +0.000 A 
ATOM     21  C   UNL     1      -0.292  11.015  20.521  0.00  0.00    +0.000 A 
ATOM     22  C   UNL     1       0.181   9.876  21.192  0.00  0.00    +0.000 A 
ATOM     23 BR   UNL     1      -0.297   9.698  23.023  0.00  0.00    +0.000 Br
ENDBRANCH  16  17
ENDBRANCH   3  16
TORSDOF 5
ENDMDL
MODEL 6
REMARK VINA RESULT:      -7.1      4.403      6.470
REMARK  Name = 
REMARK  5 active torsions:
REMARK  status: ('A' for Active; 'I' for Inactive)
REMARK    1  A    between atoms: C_2  and  O_3
REMARK    2  A    between atoms: C_2  and  C_4
REMARK    3  A    between atoms: C_10  and  C_11
REMARK    4  A    between atoms: N_13  and  C_14
REMARK    5  A    between atoms: C_14  and  C_15
REMARK                            x       y       z     vdW  Elec       q    Type
REMARK                         _______ _______ _______ _____ _____    ______ ____
ROOT
ATOM      1  C   UNL     1       4.142   4.510  18.954  0.00  0.00    +0.000 C 
ATOM      2  O   UNL     1       5.350   4.477  19.184  0.00  0.00    +0.000 OA
ATOM      3  N   UNL     1       3.574   5.290  17.980  0.00  0.00    +0.000 N 
ATOM      4  H   UNL     1       2.607   5.123  17.712  0.00  0.00    +0.000 HD
ENDROOT
BRANCH   1  11
ATOM      5  C   UNL     1       1.802   3.604  19.102  0.00  0.00    +0.000 C 
ATOM      6  C   UNL     1       0.974   3.909  20.354  0.00  0.00    +0.000 C 
ATOM      7  C   UNL     1       0.954   2.791  21.401  0.00  0.00    +0.000 C 
ATOM      8  C   UNL     1       2.382   2.814  21.942  0.00  0.00    +0.000 C 
ATOM      9  C   UNL     1       3.000   3.956  21.148  0.00  0.00    +0.000 C 
ATOM     10  O   UNL     1       1.865   4.855  21.016  0.00  0.00    +0.000 OA
ATOM     11  C   UNL     1       3.221   3.550  19.690  0.00  0.00    +0.000 C 
BRANCH   5  13
ATOM     12  O   UNL     1       0.222   2.001  18.209  0.00  0.00    +0.000 OA
ATOM     13  C   UNL     1       1.375   2.353  18.374  0.00  0.00    +0.000 C 
BRANCH  13  14
ATOM     14  O   UNL     1       2.415   1.674  17.832  0.00  0.00    +0.000 OA
ATOM     15  H   UNL     1       2.487   1.694  16.856  0.00  0.00    +0.000 HD
ENDBRANCH  13  14
ENDBRANCH   5  13
ENDBRANCH   1  11
BRANCH   3  16
ATOM     16  C   UNL     1       4.322   6.258  17.202  0.00  0.00    +0.000 C 
BRANCH  16  17
ATOM     17  C   UNL     1       5.292   5.604  16.245  0.00  0.00    +0.000 A 
ATOM     18  C   UNL     1       4.776   4.731  15.267  0.00  0.00    +0.000 A 
ATOM     19  C   UNL     1       5.610   4.139  14.312  0.00  0.00    +0.000 A 
ATOM     20  C   UNL     1       6.976   4.396  14.323  0.00  0.00    +0.000 A 
ATOM     21  C   UNL     1       7.512   5.233  15.299  0.00  0.00    +0.000 A 
ATOM     22  C   UNL     1       6.678   5.830  16.258  0.00  0.00    +0.000 A 
ATOM     23 BR   UNL     1       7.515   6.950  17.545  0.00  0.00    +0.000 Br
ENDBRANCH  16  17
ENDBRANCH   3  16
TORSDOF 5
ENDMDL
MODEL 7
REMARK VINA RESULT:      -7.1      1.869      3.190
REMARK  Name = 
REMARK  5 active torsions:
REMARK  status: ('A' for Active; 'I' for Inactive)
REMARK    1  A    between atoms: C_2  and  O_3
REMARK    2  A    between atoms: C_2  and  C_4
REMARK    3  A    between atoms: C_10  and  C_11
REMARK    4  A    between atoms: N_13  and  C_14
REMARK    5  A    between atoms: C_14  and  C_15
REMARK                            x       y       z     vdW  Elec       q    Type
REMARK                         _______ _______ _______ _____ _____    ______ ____
ROOT
ATOM      1  C   UNL     1       2.136   5.715  19.645  0.00  0.00    +0.000 C 
ATOM      2  O   UNL     1       1.460   4.961  20.344  0.00  0.00    +0.000 OA
ATOM      3  N   UNL     1       2.294   7.052  19.903  0.00  0.00    +0.000 N 
ATOM      4  H   UNL     1       3.017   7.570  19.409  0.00  0.00    +0.000 HD
ENDROOT
BRANCH   1  11
ATOM      5  C   UNL     1       3.615   3.814  18.927  0.00  0.00    +0.000 C 
ATOM      6  C   UNL     1       5.085   4.107  18.612  0.00  0.00    +0.000 C 
ATOM      7  C   UNL     1       5.403   4.278  17.122  0.00  0.00    +0.000 C 
ATOM      8  C   UNL     1       4.728   5.606  16.788  0.00  0.00    +0.000 C 
ATOM      9  C   UNL     1       4.149   6.013  18.135  0.00  0.00    +0.000 C 
ATOM     10  O   UNL     1       5.159   5.498  19.044  0.00  0.00    +0.000 OA
ATOM     11  C   UNL     1       2.952   5.134  18.502  0.00  0.00    +0.000 C 
BRANCH   5  13
ATOM     12  O   UNL     1       3.427   1.445  18.462  0.00  0.00    +0.000 OA
ATOM     13  C   UNL     1       3.072   2.587  18.237  0.00  0.00    +0.000 C 
BRANCH  13  14
ATOM     14  O   UNL     1       2.066   2.866  17.374  0.00  0.00    +0.000 OA
ATOM     15  H   UNL     1       1.963   3.804  17.112  0.00  0.00    +0.000 HD
ENDBRANCH  13  14
ENDBRANCH   5  13
ENDBRANCH   1  11
BRANCH   3  16
ATOM     16  C   UNL     1       1.577   7.749  20.953  0.00  0.00    +0.000 C 
BRANCH  16  17
ATOM     17  C   UNL     1       0.947   9.034  20.467  0.00  0.00    +0.000 A 
ATOM     18  C   UNL     1       1.139   9.402  19.121  0.00  0.00    +0.000 A 
ATOM     19  C   UNL     1       0.534  10.546  18.589  0.00  0.00    +0.000 A 
ATOM     20  C   UNL     1      -0.262  11.353  19.394  0.00  0.00    +0.000 A 
ATOM     21  C   UNL     1      -0.442  11.024  20.735  0.00  0.00    +0.000 A 
ATOM     22  C   UNL     1       0.162   9.876  21.272  0.00  0.00    +0.000 A 
ATOM     23 BR   UNL     1      -0.147   9.525  23.114  0.00  0.00    +0.000 Br
ENDBRANCH  16  17
ENDBRANCH   3  16
TORSDOF 5
ENDMDL
MODEL 8
REMARK VINA RESULT:      -7.1      4.227      6.337
REMARK  Name = 
REMARK  5 active torsions:
REMARK  status: ('A' for Active; 'I' for Inactive)
REMARK    1  A    between atoms: C_2  and  O_3
REMARK    2  A    between atoms: C_2  and  C_4
REMARK    3  A    between atoms: C_10  and  C_11
REMARK    4  A    between atoms: N_13  and  C_14
REMARK    5  A    between atoms: C_14  and  C_15
REMARK                            x       y       z     vdW  Elec       q    Type
REMARK                         _______ _______ _______ _____ _____    ______ ____
ROOT
ATOM      1  C   UNL     1       4.178   5.351  19.063  0.00  0.00    +0.000 C 
ATOM      2  O   UNL     1       5.357   5.442  19.402  0.00  0.00    +0.000 OA
ATOM      3  N   UNL     1       3.673   5.900  17.912  0.00  0.00    +0.000 N 
ATOM      4  H   UNL     1       2.748   5.621  17.594  0.00  0.00    +0.000 HD
ENDROOT
BRANCH   1  11
ATOM      5  C   UNL     1       3.445   2.995  19.543  0.00  0.00    +0.000 C 
ATOM      6  C   UNL     1       2.022   2.577  19.160  0.00  0.00    +0.000 C 
ATOM      7  C   UNL     1       1.008   2.611  20.309  0.00  0.00    +0.000 C 
ATOM      8  C   UNL     1       0.848   4.107  20.568  0.00  0.00    +0.000 C 
ATOM      9  C   UNL     1       1.769   4.709  19.515  0.00  0.00    +0.000 C 
ATOM     10  O   UNL     1       1.604   3.764  18.423  0.00  0.00    +0.000 OA
ATOM     11  C   UNL     1       3.237   4.480  19.879  0.00  0.00    +0.000 C 
BRANCH   5  13
ATOM     12  O   UNL     1       3.534   2.002  21.750  0.00  0.00    +0.000 OA
ATOM     13  C   UNL     1       4.045   2.176  20.659  0.00  0.00    +0.000 C 
BRANCH  13  14
ATOM     14  O   UNL     1       5.202   1.566  20.307  0.00  0.00    +0.000 OA
ATOM     15  H   UNL     1       5.186   0.588  20.275  0.00  0.00    +0.000 HD
ENDBRANCH  13  14
ENDBRANCH   5  13
ENDBRANCH   1  11
BRANCH   3  16
ATOM     16  C   UNL     1       4.447   6.759  17.036  0.00  0.00    +0.000 C 
BRANCH  16  17
ATOM     17  C   UNL     1       5.418   5.982  16.178  0.00  0.00    +0.000 A 
ATOM     18  C   UNL     1       4.896   5.099  15.213  0.00  0.00    +0.000 A 
ATOM     19  C   UNL     1       5.737   4.395  14.344  0.00  0.00    +0.000 A 
ATOM     20  C   UNL     1       7.116   4.549  14.431  0.00  0.00    +0.000 A 
ATOM     21  C   UNL     1       7.656   5.395  15.397  0.00  0.00    +0.000 A 
ATOM     22  C   UNL     1       6.815   6.104  16.269  0.00  0.00    +0.000 A 
ATOM     23 BR   UNL     1       7.658   7.227  17.550  0.00  0.00    +0.000 Br
ENDBRANCH  16  17
ENDBRANCH   3  16
TORSDOF 5
ENDMDL
MODEL 9
REMARK VINA RESULT:      -7.0      3.975      5.996
REMARK  Name = 
REMARK  5 active torsions:
REMARK  status: ('A' for Active; 'I' for Inactive)
REMARK    1  A    between atoms: C_2  and  O_3
REMARK    2  A    between atoms: C_2  and  C_4
REMARK    3  A    between atoms: C_10  and  C_11
REMARK    4  A    between atoms: N_13  and  C_14
REMARK    5  A    between atoms: C_14  and  C_15
REMARK                            x       y       z     vdW  Elec       q    Type
REMARK                         _______ _______ _______ _____ _____    ______ ____
ROOT
ATOM      1  C   UNL     1       4.204   3.414  17.078  0.00  0.00    +0.000 C 
ATOM      2  O   UNL     1       4.119   2.312  17.618  0.00  0.00    +0.000 OA
ATOM      3  N   UNL     1       3.181   4.327  17.046  0.00  0.00    +0.000 N 
ATOM      4  H   UNL     1       3.378   5.284  16.764  0.00  0.00    +0.000 HD
ENDROOT
BRANCH   1  11
ATOM      5  C   UNL     1       6.066   5.089  17.291  0.00  0.00    +0.000 C 
ATOM      6  C   UNL     1       6.294   6.083  16.148  0.00  0.00    +0.000 C 
ATOM      7  C   UNL     1       7.407   5.694  15.169  0.00  0.00    +0.000 C 
ATOM      8  C   UNL     1       6.808   4.494  14.442  0.00  0.00    +0.000 C 
ATOM      9  C   UNL     1       5.434   4.387  15.088  0.00  0.00    +0.000 C 
ATOM     10  O   UNL     1       5.125   5.788  15.326  0.00  0.00    +0.000 OA
ATOM     11  C   UNL     1       5.545   3.866  16.521  0.00  0.00    +0.000 C 
BRANCH   5  13
ATOM     12  O   UNL     1       7.483   5.277  19.246  0.00  0.00    +0.000 OA
ATOM     13  C   UNL     1       7.292   4.828  18.131  0.00  0.00    +0.000 C 
BRANCH  13  14
ATOM     14  O   UNL     1       8.155   3.959  17.553  0.00  0.00    +0.000 OA
ATOM     15  H   UNL     1       9.099   4.219  17.551  0.00  0.00    +0.000 HD
ENDBRANCH  13  14
ENDBRANCH   5  13
ENDBRANCH   1  11
BRANCH   3  16
ATOM     16  C   UNL     1       1.845   4.038  17.531  0.00  0.00    +0.000 C 
BRANCH  16  17
ATOM     17  C   UNL     1       1.803   3.852  19.030  0.00  0.00    +0.000 A 
ATOM     18  C   UNL     1       1.432   2.590  19.535  0.00  0.00    +0.000 A 
ATOM     19  C   UNL     1       1.432   2.331  20.909  0.00  0.00    +0.000 A 
ATOM     20  C   UNL     1       1.789   3.329  21.808  0.00  0.00    +0.000 A 
ATOM     21  C   UNL     1       2.131   4.593  21.333  0.00  0.00    +0.000 A 
ATOM     22  C   UNL     1       2.134   4.857  19.955  0.00  0.00    +0.000 A 
ATOM     23 BR   UNL     1       2.614   6.616  19.418  0.00  0.00    +0.000 Br
ENDBRANCH  16  17
ENDBRANCH   3  16
TORSDOF 5
ENDMDL
