MODEL 1
REMARK VINA RESULT:      -7.7      0.000      0.000
REMARK  Name = 
REMARK  10 active torsions:
REMARK  status: ('A' for Active; 'I' for Inactive)
REMARK    1  A    between atoms: C_1  and  O_2
REMARK    2  A    between atoms: O_2  and  C_3
REMARK    3  A    between atoms: C_3  and  C_4
REMARK    4  A    between atoms: C_4  and  N_5
REMARK    5  A    between atoms: C_9  and  C_10
REMARK    6  A    between atoms: C_9  and  C_26
REMARK    7  A    between atoms: C_10  and  C_11
REMARK    8  A    between atoms: N_16  and  C_17
REMARK    9  A    between atoms: C_17  and  C_18
REMARK   10  A    between atoms: C_31  and  C_32
REMARK                            x       y       z     vdW  Elec       q    Type
REMARK                         _______ _______ _______ _____ _____    ______ ____
ROOT
ATOM      1  N   UNL     1       3.900   2.877  18.582  0.00  0.00    +0.000 N 
ATOM      2  C   UNL     1       2.786   3.203  17.855  0.00  0.00    +0.000 C 
ATOM      3  O   UNL     1       1.682   2.684  17.917  0.00  0.00    +0.000 OA
ATOM      4  C   UNL     1       3.110   4.362  16.962  0.00  0.00    +0.000 C 
ATOM      5  C   UNL     1       4.520   4.826  17.396  0.00  0.00    +0.000 C 
ATOM      6  C   UNL     1       4.848   3.856  18.522  0.00  0.00    +0.000 C 
ATOM      7  O   UNL     1       5.766   4.009  19.322  0.00  0.00    +0.000 OA
ENDROOT
BRANCH   5   8
ATOM      8  C   UNL     1       5.451   4.833  16.157  0.00  0.00    +0.000 A 
ATOM      9  C   UNL     1       4.980   4.119  15.017  0.00  0.00    +0.000 A 
ATOM     10  C   UNL     1       5.717   4.014  13.835  0.00  0.00    +0.000 A 
ATOM     11  C   UNL     1       6.956   4.619  13.744  0.00  0.00    +0.000 A 
ATOM     12  C   UNL     1       7.452   5.323  14.837  0.00  0.00    +0.000 A 
ATOM     13  C   UNL     1       6.725   5.437  16.046  0.00  0.00    +0.000 A 
ATOM     14  C   UNL     1       7.400   6.240  17.126  0.00  0.00    +0.000 C 
ENDBRANCH   5   8
BRANCH   1  15
ATOM     15  C   UNL     1       3.872   1.893  19.648  0.00  0.00    +0.000 C 
BRANCH  15  16
ATOM     16  C   UNL     1       3.451   2.478  20.993  0.00  0.00    +0.000 C 
BRANCH  16  18
ATOM     17  C   UNL     1       1.274   3.330  21.232  0.00  0.00    +0.000 C 
ATOM     18  O   UNL     1       2.077   2.158  21.232  0.00  0.00    +0.000 OA
ENDBRANCH  16  18
ENDBRANCH  15  16
ENDBRANCH   1  15
BRANCH   5  19
ATOM     19  C   UNL     1       4.489   6.242  18.045  0.00  0.00    +0.000 C 
BRANCH  19  20
ATOM     20  C   UNL     1       3.363   6.444  19.057  0.00  0.00    +0.000 C 
ATOM     21  O   UNL     1       3.354   5.846  20.133  0.00  0.00    +0.000 OA
ATOM     22  N   UNL     1       2.319   7.275  18.708  0.00  0.00    +0.000 N 
ATOM     23  C   UNL     1       1.295   7.561  19.721  0.00  0.00    +0.000 C 
ATOM     24  C   UNL     1       1.293   9.061  20.091  0.00  0.00    +0.000 C 
ATOM     25  N   UNL     1       1.186   9.969  18.917  0.00  0.00    +0.000 NA
ATOM     26  C   UNL     1       2.294   9.629  17.987  0.00  0.00    +0.000 C 
ATOM     27  C   UNL     1       2.288   8.156  17.536  0.00  0.00    +0.000 C 
BRANCH  25  28
ATOM     28  C   UNL     1      -0.156   9.843  18.315  0.00  0.00    +0.000 C 
BRANCH  28  29
ATOM     29  C   UNL     1      -1.193  10.804  18.847  0.00  0.00    +0.000 A 
ATOM     30  C   UNL     1      -2.436  10.942  18.217  0.00  0.00    +0.000 A 
ATOM     31  C   UNL     1      -3.359  11.827  18.751  0.00  0.00    +0.000 A 
ATOM     32  N   UNL     1      -3.141  12.553  19.867  0.00  0.00    +0.000 NA
ATOM     33  C   UNL     1      -1.945  12.390  20.472  0.00  0.00    +0.000 A 
ATOM     34  C   UNL     1      -0.952  11.544  20.006  0.00  0.00    +0.000 A 
ENDBRANCH  28  29
ENDBRANCH  25  28
ENDBRANCH  19  20
ENDBRANCH   5  19
TORSDOF 8
ENDMDL
MODEL 2
REMARK VINA RESULT:      -7.3      1.860      4.722
REMARK  Name = 
REMARK  10 active torsions:
REMARK  status: ('A' for Active; 'I' for Inactive)
REMARK    1  A    between atoms: C_1  and  O_2
REMARK    2  A    between atoms: O_2  and  C_3
REMARK    3  A    between atoms: C_3  and  C_4
REMARK    4  A    between atoms: C_4  and  N_5
REMARK    5  A    between atoms: C_9  and  C_10
REMARK    6  A    between atoms: C_9  and  C_26
REMARK    7  A    between atoms: C_10  and  C_11
REMARK    8  A    between atoms: N_16  and  C_17
REMARK    9  A    between atoms: C_17  and  C_18
REMARK   10  A    between atoms: C_31  and  C_32
REMARK                            x       y       z     vdW  Elec       q    Type
REMARK                         _______ _______ _______ _____ _____    ______ ____
ROOT
ATOM      1  N   UNL     1       5.889   4.683  17.768  0.00  0.00    +0.000 N 
ATOM      2  C   UNL     1       6.237   5.256  18.962  0.00  0.00    +0.000 C 
ATOM      3  O   UNL     1       7.363   5.481  19.376  0.00  0.00    +0.000 OA
ATOM      4  C   UNL     1       4.990   5.621  19.708  0.00  0.00    +0.000 C 
ATOM      5  C   UNL     1       3.834   5.376  18.710  0.00  0.00    +0.000 C 
ATOM      6  C   UNL     1       4.573   4.889  17.472  0.00  0.00    +0.000 C 
ATOM      7  O   UNL     1       4.073   4.810  16.354  0.00  0.00    +0.000 OA
ENDROOT
BRANCH   5   8
ATOM      8  C   UNL     1       2.804   4.415  19.358  0.00  0.00    +0.000 A 
ATOM      9  C   UNL     1       3.107   3.975  20.679  0.00  0.00    +0.000 A 
ATOM     10  C   UNL     1       2.289   3.089  21.385  0.00  0.00    +0.000 A 
ATOM     11  C   UNL     1       1.133   2.608  20.798  0.00  0.00    +0.000 A 
ATOM     12  C   UNL     1       0.806   3.013  19.509  0.00  0.00    +0.000 A 
ATOM     13  C   UNL     1       1.623   3.904  18.773  0.00  0.00    +0.000 A 
ATOM     14  C   UNL     1       1.119   4.247  17.396  0.00  0.00    +0.000 C 
ENDBRANCH   5   8
BRANCH   1  15
ATOM     15  C   UNL     1       6.867   4.354  16.749  0.00  0.00    +0.000 C 
BRANCH  15  16
ATOM     16  C   UNL     1       7.361   5.574  15.977  0.00  0.00    +0.000 C 
BRANCH  16  18
ATOM     17  C   UNL     1       6.608   4.191  14.232  0.00  0.00    +0.000 C 
ATOM     18  O   UNL     1       7.512   5.225  14.597  0.00  0.00    +0.000 OA
ENDBRANCH  16  18
ENDBRANCH  15  16
ENDBRANCH   1  15
BRANCH   5  19
ATOM     19  C   UNL     1       3.133   6.705  18.297  0.00  0.00    +0.000 C 
BRANCH  19  20
ATOM     20  C   UNL     1       2.301   7.346  19.405  0.00  0.00    +0.000 C 
ATOM     21  O   UNL     1       2.309   6.901  20.552  0.00  0.00    +0.000 OA
ATOM     22  N   UNL     1       1.488   8.410  19.071  0.00  0.00    +0.000 N 
ATOM     23  C   UNL     1       0.775   9.100  20.154  0.00  0.00    +0.000 C 
ATOM     24  C   UNL     1       1.257  10.562  20.284  0.00  0.00    +0.000 C 
ATOM     25  N   UNL     1       1.210  11.326  19.007  0.00  0.00    +0.000 NA
ATOM     26  C   UNL     1       2.000  10.568  18.003  0.00  0.00    +0.000 C 
ATOM     27  C   UNL     1       1.504   9.125  17.791  0.00  0.00    +0.000 C 
BRANCH  25  28
ATOM     28  C   UNL     1      -0.197  11.545  18.615  0.00  0.00    +0.000 C 
BRANCH  28  29
ATOM     29  C   UNL     1      -0.924  12.615  19.395  0.00  0.00    +0.000 A 
ATOM     30  C   UNL     1      -0.418  13.919  19.469  0.00  0.00    +0.000 A 
ATOM     31  C   UNL     1      -1.130  14.868  20.185  0.00  0.00    +0.000 A 
ATOM     32  N   UNL     1      -2.304  14.618  20.801  0.00  0.00    +0.000 NA
ATOM     33  C   UNL     1      -2.785  13.360  20.699  0.00  0.00    +0.000 A 
ATOM     34  C   UNL     1      -2.140  12.338  20.022  0.00  0.00    +0.000 A 
ENDBRANCH  28  29
ENDBRANCH  25  28
ENDBRANCH  19  20
ENDBRANCH   5  19
TORSDOF 8
ENDMDL
MODEL 3
REMARK VINA RESULT:      -6.9      1.234      1.500
REMARK  Name = 
REMARK  10 active torsions:
REMARK  status: ('A' for Active; 'I' for Inactive)
REMARK    1  A    between atoms: C_1  and  O_2
REMARK    2  A    between atoms: O_2  and  C_3
REMARK    3  A    between atoms: C_3  and  C_4
REMARK    4  A    between atoms: C_4  and  N_5
REMARK    5  A    between atoms: C_9  and  C_10
REMARK    6  A    between atoms: C_9  and  C_26
REMARK    7  A    between atoms: C_10  and  C_11
REMARK    8  A    between atoms: N_16  and  C_17
REMARK    9  A    between atoms: C_17  and  C_18
REMARK   10  A    between atoms: C_31  and  C_32
REMARK                            x       y       z     vdW  Elec       q    Type
REMARK                         _______ _______ _______ _____ _____    ______ ____
ROOT
ATOM      1  N   UNL     1       3.852   3.427  19.297  0.00  0.00    +0.000 N 
ATOM      2  C   UNL     1       2.717   3.461  18.531  0.00  0.00    +0.000 C 
ATOM      3  O   UNL     1       1.683   2.837  18.709  0.00  0.00    +0.000 OA
ATOM      4  C   UNL     1       2.912   4.446  17.418  0.00  0.00    +0.000 C 
ATOM      5  C   UNL     1       4.249   5.155  17.734  0.00  0.00    +0.000 C 
ATOM      6  C   UNL     1       4.676   4.480  19.029  0.00  0.00    +0.000 C 
ATOM      7  O   UNL     1       5.557   4.902  19.772  0.00  0.00    +0.000 OA
ENDROOT
BRANCH   5   8
ATOM      8  C   UNL     1       5.190   5.023  16.509  0.00  0.00    +0.000 A 
ATOM      9  C   UNL     1       4.695   4.248  15.421  0.00  0.00    +0.000 A 
ATOM     10  C   UNL     1       5.436   4.018  14.259  0.00  0.00    +0.000 A 
ATOM     11  C   UNL     1       6.704   4.555  14.138  0.00  0.00    +0.000 A 
ATOM     12  C   UNL     1       7.224   5.314  15.181  0.00  0.00    +0.000 A 
ATOM     13  C   UNL     1       6.494   5.555  16.369  0.00  0.00    +0.000 A 
ATOM     14  C   UNL     1       7.198   6.404  17.393  0.00  0.00    +0.000 C 
ENDBRANCH   5   8
BRANCH   1  15
ATOM     15  C   UNL     1       3.928   2.684  20.541  0.00  0.00    +0.000 C 
BRANCH  15  16
ATOM     16  C   UNL     1       4.904   1.513  20.480  0.00  0.00    +0.000 C 
BRANCH  16  18
ATOM     17  C   UNL     1       6.044   0.101  21.974  0.00  0.00    +0.000 C 
ATOM     18  O   UNL     1       5.614   1.431  21.721  0.00  0.00    +0.000 OA
ENDBRANCH  16  18
ENDBRANCH  15  16
ENDBRANCH   1  15
BRANCH   5  19
ATOM     19  C   UNL     1       4.039   6.659  18.082  0.00  0.00    +0.000 C 
BRANCH  19  20
ATOM     20  C   UNL     1       2.888   6.924  19.051  0.00  0.00    +0.000 C 
ATOM     21  O   UNL     1       2.713   6.222  20.046  0.00  0.00    +0.000 OA
ATOM     22  N   UNL     1       2.008   7.942  18.747  0.00  0.00    +0.000 N 
ATOM     23  C   UNL     1       0.969   8.273  19.733  0.00  0.00    +0.000 C 
ATOM     24  C   UNL     1       1.166   9.705  20.277  0.00  0.00    +0.000 C 
ATOM     25  N   UNL     1       1.281  10.742  19.215  0.00  0.00    +0.000 NA
ATOM     26  C   UNL     1       2.387  10.335  18.311  0.00  0.00    +0.000 C 
ATOM     27  C   UNL     1       2.192   8.939  17.688  0.00  0.00    +0.000 C 
BRANCH  25  28
ATOM     28  C   UNL     1      -0.020  10.895  18.533  0.00  0.00    +0.000 C 
BRANCH  28  29
ATOM     29  C   UNL     1      -0.965  11.891  19.163  0.00  0.00    +0.000 A 
ATOM     30  C   UNL     1      -2.307  11.564  19.391  0.00  0.00    +0.000 A 
ATOM     31  C   UNL     1      -3.130  12.508  19.985  0.00  0.00    +0.000 A 
ATOM     32  N   UNL     1      -2.708  13.725  20.384  0.00  0.00    +0.000 NA
ATOM     33  C   UNL     1      -1.405  14.012  20.175  0.00  0.00    +0.000 A 
ATOM     34  C   UNL     1      -0.508  13.145  19.574  0.00  0.00    +0.000 A 
ENDBRANCH  28  29
ENDBRANCH  25  28
ENDBRANCH  19  20
ENDBRANCH   5  19
TORSDOF 8
ENDMDL
MODEL 4
REMARK VINA RESULT:      -6.8      1.924      4.483
REMARK  Name = 
REMARK  10 active torsions:
REMARK  status: ('A' for Active; 'I' for Inactive)
REMARK    1  A    between atoms: C_1  and  O_2
REMARK    2  A    between atoms: O_2  and  C_3
REMARK    3  A    between atoms: C_3  and  C_4
REMARK    4  A    between atoms: C_4  and  N_5
REMARK    5  A    between atoms: C_9  and  C_10
REMARK    6  A    between atoms: C_9  and  C_26
REMARK    7  A    between atoms: C_10  and  C_11
REMARK    8  A    between atoms: N_16  and  C_17
REMARK    9  A    between atoms: C_17  and  C_18
REMARK   10  A    between atoms: C_31  and  C_32
REMARK                            x       y       z     vdW  Elec       q    Type
REMARK                         _______ _______ _______ _____ _____    ______ ____
ROOT
ATOM      1  N   UNL     1       6.208   4.998  17.847  0.00  0.00    +0.000 N 
ATOM      2  C   UNL     1       6.204   5.316  19.179  0.00  0.00    +0.000 C 
ATOM      3  O   UNL     1       7.171   5.522  19.896  0.00  0.00    +0.000 OA
ATOM      4  C   UNL     1       4.785   5.423  19.650  0.00  0.00    +0.000 C 
ATOM      5  C   UNL     1       3.925   5.324  18.369  0.00  0.00    +0.000 C 
ATOM      6  C   UNL     1       4.978   5.173  17.281  0.00  0.00    +0.000 C 
ATOM      7  O   UNL     1       4.760   5.308  16.081  0.00  0.00    +0.000 OA
ENDROOT
BRANCH   5   8
ATOM      8  C   UNL     1       2.897   4.177  18.539  0.00  0.00    +0.000 A 
ATOM      9  C   UNL     1       1.605   4.408  17.983  0.00  0.00    +0.000 A 
ATOM     10  C   UNL     1       0.566   3.479  18.078  0.00  0.00    +0.000 A 
ATOM     11  C   UNL     1       0.776   2.280  18.733  0.00  0.00    +0.000 A 
ATOM     12  C   UNL     1       2.023   2.020  19.292  0.00  0.00    +0.000 A 
ATOM     13  C   UNL     1       3.088   2.948  19.213  0.00  0.00    +0.000 A 
ATOM     14  C   UNL     1       4.372   2.507  19.862  0.00  0.00    +0.000 C 
ENDBRANCH   5   8
BRANCH   1  15
ATOM     15  C   UNL     1       7.424   4.969  17.058  0.00  0.00    +0.000 C 
BRANCH  15  16
ATOM     16  C   UNL     1       7.233   4.332  15.685  0.00  0.00    +0.000 C 
BRANCH  16  18
ATOM     17  C   UNL     1       7.213   4.864  13.396  0.00  0.00    +0.000 C 
ATOM     18  O   UNL     1       7.690   5.244  14.680  0.00  0.00    +0.000 OA
ENDBRANCH  16  18
ENDBRANCH  15  16
ENDBRANCH   1  15
BRANCH   5  19
ATOM     19  C   UNL     1       3.183   6.661  18.064  0.00  0.00    +0.000 C 
BRANCH  19  20
ATOM     20  C   UNL     1       2.382   7.215  19.240  0.00  0.00    +0.000 C 
ATOM     21  O   UNL     1       2.430   6.691  20.352  0.00  0.00    +0.000 OA
ATOM     22  N   UNL     1       1.550   8.291  19.007  0.00  0.00    +0.000 N 
ATOM     23  C   UNL     1       0.867   8.897  20.158  0.00  0.00    +0.000 C 
ATOM     24  C   UNL     1       1.342  10.351  20.375  0.00  0.00    +0.000 C 
ATOM     25  N   UNL     1       1.248  11.202  19.157  0.00  0.00    +0.000 NA
ATOM     26  C   UNL     1       2.012  10.524  18.078  0.00  0.00    +0.000 C 
ATOM     27  C   UNL     1       1.520   9.094  17.781  0.00  0.00    +0.000 C 
BRANCH  25  28
ATOM     28  C   UNL     1      -0.172  11.434  18.825  0.00  0.00    +0.000 C 
BRANCH  28  29
ATOM     29  C   UNL     1      -0.817  12.599  19.537  0.00  0.00    +0.000 A 
ATOM     30  C   UNL     1      -1.843  12.394  20.468  0.00  0.00    +0.000 A 
ATOM     31  C   UNL     1      -2.394  13.495  21.105  0.00  0.00    +0.000 A 
ATOM     32  N   UNL     1      -1.981  14.763  20.900  0.00  0.00    +0.000 NA
ATOM     33  C   UNL     1      -0.976  14.937  20.016  0.00  0.00    +0.000 A 
ATOM     34  C   UNL     1      -0.374  13.905  19.316  0.00  0.00    +0.000 A 
ENDBRANCH  28  29
ENDBRANCH  25  28
ENDBRANCH  19  20
ENDBRANCH   5  19
TORSDOF 8
ENDMDL
MODEL 5
REMARK VINA RESULT:      -6.7      2.003      4.663
REMARK  Name = 
REMARK  10 active torsions:
REMARK  status: ('A' for Active; 'I' for Inactive)
REMARK    1  A    between atoms: C_1  and  O_2
REMARK    2  A    between atoms: O_2  and  C_3
REMARK    3  A    between atoms: C_3  and  C_4
REMARK    4  A    between atoms: C_4  and  N_5
REMARK    5  A    between atoms: C_9  and  C_10
REMARK    6  A    between atoms: C_9  and  C_26
REMARK    7  A    between atoms: C_10  and  C_11
REMARK    8  A    between atoms: N_16  and  C_17
REMARK    9  A    between atoms: C_17  and  C_18
REMARK   10  A    between atoms: C_31  and  C_32
REMARK                            x       y       z     vdW  Elec       q    Type
REMARK                         _______ _______ _______ _____ _____    ______ ____
ROOT
ATOM      1  N   UNL     1       5.888   4.728  17.966  0.00  0.00    +0.000 N 
ATOM      2  C   UNL     1       6.080   5.219  19.230  0.00  0.00    +0.000 C 
ATOM      3  O   UNL     1       7.144   5.448  19.784  0.00  0.00    +0.000 OA
ATOM      4  C   UNL     1       4.745   5.488  19.855  0.00  0.00    +0.000 C 
ATOM      5  C   UNL     1       3.717   5.283  18.718  0.00  0.00    +0.000 C 
ATOM      6  C   UNL     1       4.606   4.915  17.539  0.00  0.00    +0.000 C 
ATOM      7  O   UNL     1       4.236   4.907  16.369  0.00  0.00    +0.000 OA
ENDROOT
BRANCH   5   8
ATOM      8  C   UNL     1       2.661   4.245  19.175  0.00  0.00    +0.000 A 
ATOM      9  C   UNL     1       2.897   3.627  20.437  0.00  0.00    +0.000 A 
ATOM     10  C   UNL     1       2.049   2.654  20.972  0.00  0.00    +0.000 A 
ATOM     11  C   UNL     1       0.928   2.260  20.266  0.00  0.00    +0.000 A 
ATOM     12  C   UNL     1       0.665   2.838  19.029  0.00  0.00    +0.000 A 
ATOM     13  C   UNL     1       1.513   3.820  18.465  0.00  0.00    +0.000 A 
ATOM     14  C   UNL     1       1.079   4.349  17.124  0.00  0.00    +0.000 C 
ENDBRANCH   5   8
BRANCH   1  15
ATOM     15  C   UNL     1       6.985   4.509  17.043  0.00  0.00    +0.000 C 
BRANCH  15  16
ATOM     16  C   UNL     1       7.194   5.670  16.074  0.00  0.00    +0.000 C 
BRANCH  16  18
ATOM     17  C   UNL     1       7.108   7.741  17.182  0.00  0.00    +0.000 C 
ATOM     18  O   UNL     1       7.953   6.693  16.727  0.00  0.00    +0.000 OA
ENDBRANCH  16  18
ENDBRANCH  15  16
ENDBRANCH   1  15
BRANCH   5  19
ATOM     19  C   UNL     1       3.014   6.618  18.325  0.00  0.00    +0.000 C 
BRANCH  19  20
ATOM     20  C   UNL     1       2.227   7.269  19.460  0.00  0.00    +0.000 C 
ATOM     21  O   UNL     1       2.230   6.797  20.596  0.00  0.00    +0.000 OA
ATOM     22  N   UNL     1       1.459   8.377  19.162  0.00  0.00    +0.000 N 
ATOM     23  C   UNL     1       0.792   9.072  20.272  0.00  0.00    +0.000 C 
ATOM     24  C   UNL     1       1.342  10.508  20.428  0.00  0.00    +0.000 C 
ATOM     25  N   UNL     1       1.313  11.303  19.170  0.00  0.00    +0.000 NA
ATOM     26  C   UNL     1       2.054  10.534  18.138  0.00  0.00    +0.000 C 
ATOM     27  C   UNL     1       1.490   9.120  17.899  0.00  0.00    +0.000 C 
BRANCH  25  28
ATOM     28  C   UNL     1      -0.088  11.594  18.803  0.00  0.00    +0.000 C 
BRANCH  28  29
ATOM     29  C   UNL     1      -0.623  12.916  19.303  0.00  0.00    +0.000 A 
ATOM     30  C   UNL     1      -1.693  12.964  20.204  0.00  0.00    +0.000 A 
ATOM     31  C   UNL     1      -2.138  14.201  20.644  0.00  0.00    +0.000 A 
ATOM     32  N   UNL     1      -1.582  15.372  20.273  0.00  0.00    +0.000 NA
ATOM     33  C   UNL     1      -0.537  15.303  19.421  0.00  0.00    +0.000 A 
ATOM     34  C   UNL     1      -0.030  14.119  18.911  0.00  0.00    +0.000 A 
ENDBRANCH  28  29
ENDBRANCH  25  28
ENDBRANCH  19  20
ENDBRANCH   5  19
TORSDOF 8
ENDMDL
MODEL 6
REMARK VINA RESULT:      -6.7      2.256      4.725
REMARK  Name = 
REMARK  10 active torsions:
REMARK  status: ('A' for Active; 'I' for Inactive)
REMARK    1  A    between atoms: C_1  and  O_2
REMARK    2  A    between atoms: O_2  and  C_3
REMARK    3  A    between atoms: C_3  and  C_4
REMARK    4  A    between atoms: C_4  and  N_5
REMARK    5  A    between atoms: C_9  and  C_10
REMARK    6  A    between atoms: C_9  and  C_26
REMARK    7  A    between atoms: C_10  and  C_11
REMARK    8  A    between atoms: N_16  and  C_17
REMARK    9  A    between atoms: C_17  and  C_18
REMARK   10  A    between atoms: C_31  and  C_32
REMARK                            x       y       z     vdW  Elec       q    Type
REMARK                         _______ _______ _______ _____ _____    ______ ____
ROOT
ATOM      1  N   UNL     1       6.027   5.512  17.873  0.00  0.00    +0.000 N 
ATOM      2  C   UNL     1       6.160   5.480  19.235  0.00  0.00    +0.000 C 
ATOM      3  O   UNL     1       7.192   5.579  19.882  0.00  0.00    +0.000 OA
ATOM      4  C   UNL     1       4.803   5.341  19.854  0.00  0.00    +0.000 C 
ATOM      5  C   UNL     1       3.806   5.498  18.683  0.00  0.00    +0.000 C 
ATOM      6  C   UNL     1       4.731   5.719  17.496  0.00  0.00    +0.000 C 
ATOM      7  O   UNL     1       4.367   6.136  16.400  0.00  0.00    +0.000 OA
ENDROOT
BRANCH   5   8
ATOM      8  C   UNL     1       2.872   4.261  18.647  0.00  0.00    +0.000 A 
ATOM      9  C   UNL     1       1.602   4.454  18.029  0.00  0.00    +0.000 A 
ATOM     10  C   UNL     1       0.644   3.442  17.942  0.00  0.00    +0.000 A 
ATOM     11  C   UNL     1       0.916   2.193  18.470  0.00  0.00    +0.000 A 
ATOM     12  C   UNL     1       2.144   1.967  19.083  0.00  0.00    +0.000 A 
ATOM     13  C   UNL     1       3.127   2.979  19.188  0.00  0.00    +0.000 A 
ATOM     14  C   UNL     1       4.402   2.566  19.873  0.00  0.00    +0.000 C 
ENDBRANCH   5   8
BRANCH   1  15
ATOM     15  C   UNL     1       7.142   5.789  16.988  0.00  0.00    +0.000 C 
BRANCH  15  16
ATOM     16  C   UNL     1       7.466   4.630  16.050  0.00  0.00    +0.000 C 
BRANCH  16  18
ATOM     17  C   UNL     1       6.457   4.396  13.940  0.00  0.00    +0.000 C 
ATOM     18  O   UNL     1       7.432   5.099  14.698  0.00  0.00    +0.000 OA
ENDBRANCH  16  18
ENDBRANCH  15  16
ENDBRANCH   1  15
BRANCH   5  19
ATOM     19  C   UNL     1       2.958   6.799  18.814  0.00  0.00    +0.000 C 
BRANCH  19  20
ATOM     20  C   UNL     1       2.154   6.897  20.109  0.00  0.00    +0.000 C 
ATOM     21  O   UNL     1       2.209   6.015  20.965  0.00  0.00    +0.000 OA
ATOM     22  N   UNL     1       1.314   7.979  20.270  0.00  0.00    +0.000 N 
ATOM     23  C   UNL     1       0.628   8.135  21.560  0.00  0.00    +0.000 C 
ATOM     24  C   UNL     1       1.092   9.423  22.275  0.00  0.00    +0.000 C 
ATOM     25  N   UNL     1       0.989  10.648  21.436  0.00  0.00    +0.000 NA
ATOM     26  C   UNL     1       1.756  10.400  20.188  0.00  0.00    +0.000 C 
ATOM     27  C   UNL     1       1.275   9.162  19.405  0.00  0.00    +0.000 C 
BRANCH  25  28
ATOM     28  C   UNL     1      -0.433  10.970  21.206  0.00  0.00    +0.000 C 
BRANCH  28  29
ATOM     29  C   UNL     1      -1.004  12.041  22.105  0.00  0.00    +0.000 A 
ATOM     30  C   UNL     1      -0.419  13.312  22.170  0.00  0.00    +0.000 A 
ATOM     31  C   UNL     1      -0.989  14.265  23.000  0.00  0.00    +0.000 A 
ATOM     32  N   UNL     1      -2.098  14.050  23.737  0.00  0.00    +0.000 NA
ATOM     33  C   UNL     1      -2.660  12.826  23.642  0.00  0.00    +0.000 A 
ATOM     34  C   UNL     1      -2.157  11.802  22.857  0.00  0.00    +0.000 A 
ENDBRANCH  28  29
ENDBRANCH  25  28
ENDBRANCH  19  20
ENDBRANCH   5  19
TORSDOF 8
ENDMDL
MODEL 7
REMARK VINA RESULT:      -6.6      7.164     10.261
REMARK  Name = 
REMARK  10 active torsions:
REMARK  status: ('A' for Active; 'I' for Inactive)
REMARK    1  A    between atoms: C_1  and  O_2
REMARK    2  A    between atoms: O_2  and  C_3
REMARK    3  A    between atoms: C_3  and  C_4
REMARK    4  A    between atoms: C_4  and  N_5
REMARK    5  A    between atoms: C_9  and  C_10
REMARK    6  A    between atoms: C_9  and  C_26
REMARK    7  A    between atoms: C_10  and  C_11
REMARK    8  A    between atoms: N_16  and  C_17
REMARK    9  A    between atoms: C_17  and  C_18
REMARK   10  A    between atoms: C_31  and  C_32
REMARK                            x       y       z     vdW  Elec       q    Type
REMARK                         _______ _______ _______ _____ _____    ______ ____
ROOT
ATOM      1  N   UNL     1      -3.364  11.733  18.511  0.00  0.00    +0.000 N 
ATOM      2  C   UNL     1      -2.280  11.568  17.690  0.00  0.00    +0.000 C 
ATOM      3  O   UNL     1      -2.285  11.391  16.482  0.00  0.00    +0.000 OA
ATOM      4  C   UNL     1      -1.029  11.680  18.508  0.00  0.00    +0.000 C 
ATOM      5  C   UNL     1      -1.501  12.139  19.908  0.00  0.00    +0.000 C 
ATOM      6  C   UNL     1      -3.007  12.245  19.724  0.00  0.00    +0.000 C 
ATOM      7  O   UNL     1      -3.763  12.813  20.507  0.00  0.00    +0.000 OA
ENDROOT
BRANCH   5   8
ATOM      8  C   UNL     1      -0.973  11.141  20.969  0.00  0.00    +0.000 A 
ATOM      9  C   UNL     1      -0.317   9.981  20.464  0.00  0.00    +0.000 A 
ATOM     10  C   UNL     1       0.190   8.978  21.295  0.00  0.00    +0.000 A 
ATOM     11  C   UNL     1       0.063   9.096  22.666  0.00  0.00    +0.000 A 
ATOM     12  C   UNL     1      -0.574  10.213  23.197  0.00  0.00    +0.000 A 
ATOM     13  C   UNL     1      -1.101  11.237  22.375  0.00  0.00    +0.000 A 
ATOM     14  C   UNL     1      -1.749  12.380  23.109  0.00  0.00    +0.000 C 
ENDBRANCH   5   8
BRANCH   1  15
ATOM     15  C   UNL     1      -4.718  11.829  18.000  0.00  0.00    +0.000 C 
BRANCH  15  16
ATOM     16  C   UNL     1      -5.602  10.658  18.421  0.00  0.00    +0.000 C 
BRANCH  16  18
ATOM     17  C   UNL     1      -7.243  12.340  18.475  0.00  0.00    +0.000 C 
ATOM     18  O   UNL     1      -6.970  10.984  18.151  0.00  0.00    +0.000 OA
ENDBRANCH  16  18
ENDBRANCH  15  16
ENDBRANCH   1  15
BRANCH   5  19
ATOM     19  C   UNL     1      -1.007  13.579  20.242  0.00  0.00    +0.000 C 
BRANCH  19  20
ATOM     20  C   UNL     1      -0.007  14.148  19.238  0.00  0.00    +0.000 C 
ATOM     21  O   UNL     1      -0.369  14.569  18.140  0.00  0.00    +0.000 OA
ATOM     22  N   UNL     1       1.331  14.124  19.573  0.00  0.00    +0.000 N 
ATOM     23  C   UNL     1       2.283  14.773  18.660  0.00  0.00    +0.000 C 
ATOM     24  C   UNL     1       2.969  15.975  19.348  0.00  0.00    +0.000 C 
ATOM     25  N   UNL     1       3.589  15.643  20.660  0.00  0.00    +0.000 NA
ATOM     26  C   UNL     1       2.532  15.044  21.515  0.00  0.00    +0.000 C 
ATOM     27  C   UNL     1       1.872  13.797  20.895  0.00  0.00    +0.000 C 
BRANCH  25  28
ATOM     28  C   UNL     1       4.753  14.759  20.446  0.00  0.00    +0.000 C 
BRANCH  28  29
ATOM     29  C   UNL     1       5.916  15.391  19.717  0.00  0.00    +0.000 A 
ATOM     30  C   UNL     1       6.393  14.848  18.518  0.00  0.00    +0.000 A 
ATOM     31  C   UNL     1       7.453  15.473  17.880  0.00  0.00    +0.000 A 
ATOM     32  N   UNL     1       8.043  16.597  18.334  0.00  0.00    +0.000 NA
ATOM     33  C   UNL     1       7.554  17.118  19.480  0.00  0.00    +0.000 A 
ATOM     34  C   UNL     1       6.511  16.558  20.200  0.00  0.00    +0.000 A 
ENDBRANCH  28  29
ENDBRANCH  25  28
ENDBRANCH  19  20
ENDBRANCH   5  19
TORSDOF 8
ENDMDL
MODEL 8
REMARK VINA RESULT:      -6.5      5.220     10.681
REMARK  Name = 
REMARK  10 active torsions:
REMARK  status: ('A' for Active; 'I' for Inactive)
REMARK    1  A    between atoms: C_1  and  O_2
REMARK    2  A    between atoms: O_2  and  C_3
REMARK    3  A    between atoms: C_3  and  C_4
REMARK    4  A    between atoms: C_4  and  N_5
REMARK    5  A    between atoms: C_9  and  C_10
REMARK    6  A    between atoms: C_9  and  C_26
REMARK    7  A    between atoms: C_10  and  C_11
REMARK    8  A    between atoms: N_16  and  C_17
REMARK    9  A    between atoms: C_17  and  C_18
REMARK   10  A    between atoms: C_31  and  C_32
REMARK                            x       y       z     vdW  Elec       q    Type
REMARK                         _______ _______ _______ _____ _____    ______ ____
ROOT
ATOM      1  N   UNL     1      -0.877  10.803  20.793  0.00  0.00    +0.000 N 
ATOM      2  C   UNL     1      -0.175  11.035  21.946  0.00  0.00    +0.000 C 
ATOM      3  O   UNL     1       0.820  10.447  22.340  0.00  0.00    +0.000 OA
ATOM      4  C   UNL     1      -0.800  12.188  22.673  0.00  0.00    +0.000 C 
ATOM      5  C   UNL     1      -1.858  12.755  21.698  0.00  0.00    +0.000 C 
ATOM      6  C   UNL     1      -1.710  11.841  20.491  0.00  0.00    +0.000 C 
ATOM      7  O   UNL     1      -2.181  12.075  19.382  0.00  0.00    +0.000 OA
ENDROOT
BRANCH   5   8
ATOM      8  C   UNL     1      -3.233  12.789  22.411  0.00  0.00    +0.000 A 
ATOM      9  C   UNL     1      -3.235  12.407  23.784  0.00  0.00    +0.000 A 
ATOM     10  C   UNL     1      -4.399  12.364  24.555  0.00  0.00    +0.000 A 
ATOM     11  C   UNL     1      -5.612  12.701  23.983  0.00  0.00    +0.000 A 
ATOM     12  C   UNL     1      -5.652  13.077  22.644  0.00  0.00    +0.000 A 
ATOM     13  C   UNL     1      -4.486  13.121  21.843  0.00  0.00    +0.000 A 
ATOM     14  C   UNL     1      -4.703  13.557  20.419  0.00  0.00    +0.000 C 
ENDBRANCH   5   8
BRANCH   1  15
ATOM     15  C   UNL     1      -0.436   9.850  19.793  0.00  0.00    +0.000 C 
BRANCH  15  16
ATOM     16  C   UNL     1       0.783  10.325  19.009  0.00  0.00    +0.000 C 
BRANCH  16  18
ATOM     17  C   UNL     1       2.092   8.740  17.868  0.00  0.00    +0.000 C 
ATOM     18  O   UNL     1       0.914   9.534  17.823  0.00  0.00    +0.000 OA
ENDBRANCH  16  18
ENDBRANCH  15  16
ENDBRANCH   1  15
BRANCH   5  19
ATOM     19  C   UNL     1      -1.482  14.184  21.202  0.00  0.00    +0.000 C 
BRANCH  19  20
ATOM     20  C   UNL     1      -0.096  14.654  21.639  0.00  0.00    +0.000 C 
ATOM     21  O   UNL     1       0.195  14.772  22.828  0.00  0.00    +0.000 OA
ATOM     22  N   UNL     1       0.809  15.003  20.657  0.00  0.00    +0.000 N 
ATOM     23  C   UNL     1       2.176  15.346  21.070  0.00  0.00    +0.000 C 
ATOM     24  C   UNL     1       3.191  14.329  20.502  0.00  0.00    +0.000 C 
ATOM     25  N   UNL     1       3.084  14.129  19.031  0.00  0.00    +0.000 NA
ATOM     26  C   UNL     1       1.682  13.738  18.734  0.00  0.00    +0.000 C 
ATOM     27  C   UNL     1       0.640  14.764  19.221  0.00  0.00    +0.000 C 
BRANCH  25  28
ATOM     28  C   UNL     1       3.520  15.355  18.333  0.00  0.00    +0.000 C 
BRANCH  28  29
ATOM     29  C   UNL     1       5.011  15.598  18.329  0.00  0.00    +0.000 A 
ATOM     30  C   UNL     1       5.892  14.648  17.798  0.00  0.00    +0.000 A 
ATOM     31  C   UNL     1       7.251  14.924  17.804  0.00  0.00    +0.000 A 
ATOM     32  N   UNL     1       7.780  16.073  18.272  0.00  0.00    +0.000 NA
ATOM     33  C   UNL     1       6.911  16.985  18.759  0.00  0.00    +0.000 A 
ATOM     34  C   UNL     1       5.540  16.796  18.813  0.00  0.00    +0.000 A 
ENDBRANCH  28  29
ENDBRANCH  25  28
ENDBRANCH  19  20
ENDBRANCH   5  19
TORSDOF 8
ENDMDL
MODEL 9
REMARK VINA RESULT:      -6.5      3.681      9.637
REMARK  Name = 
REMARK  10 active torsions:
REMARK  status: ('A' for Active; 'I' for Inactive)
REMARK    1  A    between atoms: C_1  and  O_2
REMARK    2  A    between atoms: O_2  and  C_3
REMARK    3  A    between atoms: C_3  and  C_4
REMARK    4  A    between atoms: C_4  and  N_5
REMARK    5  A    between atoms: C_9  and  C_10
REMARK    6  A    between atoms: C_9  and  C_26
REMARK    7  A    between atoms: C_10  and  C_11
REMARK    8  A    between atoms: N_16  and  C_17
REMARK    9  A    between atoms: C_17  and  C_18
REMARK   10  A    between atoms: C_31  and  C_32
REMARK                            x       y       z     vdW  Elec       q    Type
REMARK                         _______ _______ _______ _____ _____    ______ ____
ROOT
ATOM      1  N   UNL     1      -2.072  12.360  21.306  0.00  0.00    +0.000 N 
ATOM      2  C   UNL     1      -1.148  11.965  22.237  0.00  0.00    +0.000 C 
ATOM      3  O   UNL     1      -1.313  11.843  23.441  0.00  0.00    +0.000 OA
ATOM      4  C   UNL     1       0.141  11.651  21.539  0.00  0.00    +0.000 C 
ATOM      5  C   UNL     1      -0.190  11.714  20.030  0.00  0.00    +0.000 C 
ATOM      6  C   UNL     1      -1.671  12.063  20.036  0.00  0.00    +0.000 C 
ATOM      7  O   UNL     1      -2.408  11.972  19.060  0.00  0.00    +0.000 OA
ENDROOT
BRANCH   5   8
ATOM      8  C   UNL     1       0.781  12.709  19.343  0.00  0.00    +0.000 A 
ATOM      9  C   UNL     1       1.872  12.128  18.634  0.00  0.00    +0.000 A 
ATOM     10  C   UNL     1       2.844  12.894  17.986  0.00  0.00    +0.000 A 
ATOM     11  C   UNL     1       2.763  14.273  18.019  0.00  0.00    +0.000 A 
ATOM     12  C   UNL     1       1.714  14.878  18.704  0.00  0.00    +0.000 A 
ATOM     13  C   UNL     1       0.723  14.122  19.373  0.00  0.00    +0.000 A 
ATOM     14  C   UNL     1      -0.347  14.931  20.057  0.00  0.00    +0.000 C 
ENDBRANCH   5   8
BRANCH   1  15
ATOM     15  C   UNL     1      -3.464  12.590  21.642  0.00  0.00    +0.000 C 
BRANCH  15  16
ATOM     16  C   UNL     1      -3.848  14.067  21.628  0.00  0.00    +0.000 C 
BRANCH  16  18
ATOM     17  C   UNL     1      -4.315  14.051  23.931  0.00  0.00    +0.000 C 
ATOM     18  O   UNL     1      -3.536  14.644  22.901  0.00  0.00    +0.000 OA
ENDBRANCH  16  18
ENDBRANCH  15  16
ENDBRANCH   1  15
BRANCH   5  19
ATOM     19  C   UNL     1      -0.081  10.314  19.354  0.00  0.00    +0.000 C 
BRANCH  19  20
ATOM     20  C   UNL     1       0.361   9.196  20.295  0.00  0.00    +0.000 C 
ATOM     21  O   UNL     1      -0.246   8.959  21.339  0.00  0.00    +0.000 OA
ATOM     22  N   UNL     1       1.501   8.490  19.971  0.00  0.00    +0.000 N 
ATOM     23  C   UNL     1       1.864   7.342  20.812  0.00  0.00    +0.000 C 
ATOM     24  C   UNL     1       1.804   6.028  20.001  0.00  0.00    +0.000 C 
ATOM     25  N   UNL     1       2.588   6.065  18.737  0.00  0.00    +0.000 NA
ATOM     26  C   UNL     1       2.106   7.227  17.946  0.00  0.00    +0.000 C 
ATOM     27  C   UNL     1       2.218   8.570  18.695  0.00  0.00    +0.000 C 
BRANCH  25  28
ATOM     28  C   UNL     1       4.030   6.116  19.051  0.00  0.00    +0.000 C 
BRANCH  28  29
ATOM     29  C   UNL     1       4.947   5.647  17.946  0.00  0.00    +0.000 A 
ATOM     30  C   UNL     1       6.141   6.322  17.668  0.00  0.00    +0.000 A 
ATOM     31  C   UNL     1       6.955   5.843  16.654  0.00  0.00    +0.000 A 
ATOM     32  N   UNL     1       6.677   4.742  15.927  0.00  0.00    +0.000 NA
ATOM     33  C   UNL     1       5.532   4.092  16.225  0.00  0.00    +0.000 A 
ATOM     34  C   UNL     1       4.644   4.501  17.207  0.00  0.00    +0.000 A 
ENDBRANCH  28  29
ENDBRANCH  25  28
ENDBRANCH  19  20
ENDBRANCH   5  19
TORSDOF 8
ENDMDL
