MODEL 1
REMARK VINA RESULT:      -9.5      0.000      0.000
REMARK  Name = 
REMARK  5 active torsions:
REMARK  status: ('A' for Active; 'I' for Inactive)
REMARK    1  A    between atoms: C_1  and  C_2
REMARK    2  A    between atoms: C_7  and  C_8
REMARK    3  A    between atoms: C_22  and  C_24
REMARK    4  A    between atoms: C_27  and  O_28
REMARK    5  A    between atoms: C_30  and  O_31
REMARK                            x       y       z     vdW  Elec       q    Type
REMARK                         _______ _______ _______ _____ _____    ______ ____
ROOT
ATOM      1  C   UNL     1      -2.144  13.390  20.291  0.00  0.00    +0.000 C 
ATOM      2  C   UNL     1      -1.614  11.965  20.055  0.00  0.00    +0.000 C 
ATOM      3  C   UNL     1      -0.786  12.112  18.770  0.00  0.00    +0.000 C 
ATOM      4  C   UNL     1      -0.436  10.773  18.201  0.00  0.00    +0.000 C 
ATOM      5  C   UNL     1       0.226   9.934  19.243  0.00  0.00    +0.000 A 
ATOM      6  C   UNL     1       1.078   8.912  18.747  0.00  0.00    +0.000 A 
ATOM      7  C   UNL     1       1.762   8.027  19.585  0.00  0.00    +0.000 A 
ATOM      8  C   UNL     1       1.518   8.170  20.948  0.00  0.00    +0.000 A 
ATOM      9  C   UNL     1       0.669   9.183  21.446  0.00  0.00    +0.000 A 
ATOM     10  C   UNL     1       0.006  10.112  20.625  0.00  0.00    +0.000 A 
ATOM     11  N   UNL     1      -0.850  11.219  21.148  0.00  0.00    +0.000 N 
ATOM     12  C   UNL     1      -1.014  11.347  22.576  0.00  0.00    +0.000 C 
ATOM     13  O   UNL     1      -0.516  10.594  23.418  0.00  0.00    +0.000 OA
ENDROOT
BRANCH   7  14
ATOM     14  C   UNL     1       2.687   7.017  19.038  0.00  0.00    +0.000 A 
ATOM     15  C   UNL     1       2.934   5.796  19.659  0.00  0.00    +0.000 A 
ATOM     16  N   UNL     1       3.785   4.864  19.169  0.00  0.00    +0.000 NA
ATOM     17  C   UNL     1       4.411   5.176  18.021  0.00  0.00    +0.000 A 
ATOM     18  C   UNL     1       5.294   4.269  17.457  0.00  0.00    +0.000 A 
ATOM     19  C   UNL     1       5.971   4.558  16.269  0.00  0.00    +0.000 A 
ATOM     20  C   UNL     1       5.751   5.773  15.637  0.00  0.00    +0.000 A 
ATOM     21  C   UNL     1       4.862   6.694  16.196  0.00  0.00    +0.000 A 
ATOM     22  C   UNL     1       4.183   6.419  17.378  0.00  0.00    +0.000 A 
ATOM     23  N   UNL     1       3.332   7.333  17.888  0.00  0.00    +0.000 NA
ENDBRANCH   7  14
BRANCH  12  24
ATOM     24  C   UNL     1      -1.816  12.411  23.232  0.00  0.00    +0.000 A 
ATOM     25  C   UNL     1      -3.056  12.108  23.791  0.00  0.00    +0.000 A 
ATOM     26  C   UNL     1      -3.885  13.128  24.267  0.00  0.00    +0.000 A 
ATOM     27  C   UNL     1      -3.392  14.423  24.363  0.00  0.00    +0.000 A 
ATOM     28  C   UNL     1      -2.076  14.703  24.036  0.00  0.00    +0.000 A 
ATOM     29  C   UNL     1      -1.293  13.703  23.457  0.00  0.00    +0.000 A 
BRANCH  27  30
ATOM     30  O   UNL     1      -4.178  15.455  24.778  0.00  0.00    +0.000 OA
ATOM     31  H   UNL     1      -3.726  15.918  25.504  0.00  0.00    +0.000 HD
ENDBRANCH  27  30
BRANCH  29  32
ATOM     32  O   UNL     1      -0.011  14.034  23.100  0.00  0.00    +0.000 OA
ATOM     33  H   UNL     1      -0.017  14.964  22.803  0.00  0.00    +0.000 HD
ENDBRANCH  29  32
ENDBRANCH  12  24
TORSDOF 4
ENDMDL
MODEL 2
REMARK VINA RESULT:      -9.2      1.901      2.871
REMARK  Name = 
REMARK  5 active torsions:
REMARK  status: ('A' for Active; 'I' for Inactive)
REMARK    1  A    between atoms: C_1  and  C_2
REMARK    2  A    between atoms: C_7  and  C_8
REMARK    3  A    between atoms: C_22  and  C_24
REMARK    4  A    between atoms: C_27  and  O_28
REMARK    5  A    between atoms: C_30  and  O_31
REMARK                            x       y       z     vdW  Elec       q    Type
REMARK                         _______ _______ _______ _____ _____    ______ ____
ROOT
ATOM      1  C   UNL     1      -1.559  11.576  23.053  0.00  0.00    +0.000 C 
ATOM      2  C   UNL     1      -0.416  10.973  22.218  0.00  0.00    +0.000 C 
ATOM      3  C   UNL     1      -0.329   9.532  22.740  0.00  0.00    +0.000 C 
ATOM      4  C   UNL     1       0.927   8.866  22.271  0.00  0.00    +0.000 C 
ATOM      5  C   UNL     1       1.035   8.968  20.786  0.00  0.00    +0.000 A 
ATOM      6  C   UNL     1       1.821   7.963  20.165  0.00  0.00    +0.000 A 
ATOM      7  C   UNL     1       2.040   7.921  18.785  0.00  0.00    +0.000 A 
ATOM      8  C   UNL     1       1.480   8.962  18.050  0.00  0.00    +0.000 A 
ATOM      9  C   UNL     1       0.698   9.966  18.664  0.00  0.00    +0.000 A 
ATOM     10  C   UNL     1       0.429  10.004  20.043  0.00  0.00    +0.000 A 
ATOM     11  N   UNL     1      -0.441  11.031  20.691  0.00  0.00    +0.000 N 
ATOM     12  C   UNL     1      -1.039  12.048  19.861  0.00  0.00    +0.000 C 
ATOM     13  O   UNL     1      -0.875  12.159  18.643  0.00  0.00    +0.000 OA
ENDROOT
BRANCH   7  14
ATOM     14  C   UNL     1       2.811   6.828  18.166  0.00  0.00    +0.000 A 
ATOM     15  C   UNL     1       2.370   5.508  18.133  0.00  0.00    +0.000 A 
ATOM     16  N   UNL     1       3.072   4.495  17.571  0.00  0.00    +0.000 NA
ATOM     17  C   UNL     1       4.259   4.824  17.032  0.00  0.00    +0.000 A 
ATOM     18  C   UNL     1       5.032   3.841  16.436  0.00  0.00    +0.000 A 
ATOM     19  C   UNL     1       6.276   4.139  15.871  0.00  0.00    +0.000 A 
ATOM     20  C   UNL     1       6.743   5.444  15.901  0.00  0.00    +0.000 A 
ATOM     21  C   UNL     1       5.971   6.443  16.498  0.00  0.00    +0.000 A 
ATOM     22  C   UNL     1       4.734   6.160  17.065  0.00  0.00    +0.000 A 
ATOM     23  N   UNL     1       4.015   7.151  17.633  0.00  0.00    +0.000 NA
ENDBRANCH   7  14
BRANCH  12  24
ATOM     24  C   UNL     1      -1.940  13.115  20.369  0.00  0.00    +0.000 A 
ATOM     25  C   UNL     1      -1.406  14.290  20.895  0.00  0.00    +0.000 A 
ATOM     26  C   UNL     1      -2.236  15.226  21.518  0.00  0.00    +0.000 A 
ATOM     27  C   UNL     1      -3.616  15.080  21.437  0.00  0.00    +0.000 A 
ATOM     28  C   UNL     1      -4.174  14.044  20.708  0.00  0.00    +0.000 A 
ATOM     29  C   UNL     1      -3.338  13.054  20.187  0.00  0.00    +0.000 A 
BRANCH  27  30
ATOM     30  O   UNL     1      -4.461  15.943  22.065  0.00  0.00    +0.000 OA
ATOM     31  H   UNL     1      -3.942  16.684  22.421  0.00  0.00    +0.000 HD
ENDBRANCH  27  30
BRANCH  29  32
ATOM     32  O   UNL     1      -3.934  12.017  19.515  0.00  0.00    +0.000 OA
ATOM     33  H   UNL     1      -3.687  11.188  19.969  0.00  0.00    +0.000 HD
ENDBRANCH  29  32
ENDBRANCH  12  24
TORSDOF 4
ENDMDL
MODEL 3
REMARK VINA RESULT:      -9.1      0.889      1.445
REMARK  Name = 
REMARK  5 active torsions:
REMARK  status: ('A' for Active; 'I' for Inactive)
REMARK    1  A    between atoms: C_1  and  C_2
REMARK    2  A    between atoms: C_7  and  C_8
REMARK    3  A    between atoms: C_22  and  C_24
REMARK    4  A    between atoms: C_27  and  O_28
REMARK    5  A    between atoms: C_30  and  O_31
REMARK                            x       y       z     vdW  Elec       q    Type
REMARK                         _______ _______ _______ _____ _____    ______ ____
ROOT
ATOM      1  C   UNL     1      -2.724  13.438  20.298  0.00  0.00    +0.000 C 
ATOM      2  C   UNL     1      -2.095  12.066  19.999  0.00  0.00    +0.000 C 
ATOM      3  C   UNL     1      -1.469  12.267  18.611  0.00  0.00    +0.000 C 
ATOM      4  C   UNL     1      -1.071  10.957  18.007  0.00  0.00    +0.000 C 
ATOM      5  C   UNL     1      -0.194  10.205  18.952  0.00  0.00    +0.000 A 
ATOM      6  C   UNL     1       0.678   9.261  18.348  0.00  0.00    +0.000 A 
ATOM      7  C   UNL     1       1.553   8.462  19.089  0.00  0.00    +0.000 A 
ATOM      8  C   UNL     1       1.485   8.606  20.471  0.00  0.00    +0.000 A 
ATOM      9  C   UNL     1       0.618   9.542  21.077  0.00  0.00    +0.000 A 
ATOM     10  C   UNL     1      -0.239  10.388  20.351  0.00  0.00    +0.000 A 
ATOM     11  N   UNL     1      -1.119  11.417  20.980  0.00  0.00    +0.000 N 
ATOM     12  C   UNL     1      -1.097  11.556  22.416  0.00  0.00    +0.000 C 
ATOM     13  O   UNL     1      -0.417  10.870  23.186  0.00  0.00    +0.000 OA
ENDROOT
BRANCH   7  14
ATOM     14  C   UNL     1       2.489   7.535  18.425  0.00  0.00    +0.000 A 
ATOM     15  C   UNL     1       3.540   7.962  17.620  0.00  0.00    +0.000 A 
ATOM     16  N   UNL     1       4.402   7.120  17.002  0.00  0.00    +0.000 NA
ATOM     17  C   UNL     1       4.193   5.806  17.199  0.00  0.00    +0.000 A 
ATOM     18  C   UNL     1       5.037   4.884  16.601  0.00  0.00    +0.000 A 
ATOM     19  C   UNL     1       4.849   3.510  16.773  0.00  0.00    +0.000 A 
ATOM     20  C   UNL     1       3.801   3.059  17.562  0.00  0.00    +0.000 A 
ATOM     21  C   UNL     1       2.945   3.980  18.170  0.00  0.00    +0.000 A 
ATOM     22  C   UNL     1       3.120   5.349  18.006  0.00  0.00    +0.000 A 
ATOM     23  N   UNL     1       2.273   6.209  18.609  0.00  0.00    +0.000 NA
ENDBRANCH   7  14
BRANCH  12  24
ATOM     24  C   UNL     1      -1.902  12.551  23.171  0.00  0.00    +0.000 A 
ATOM     25  C   UNL     1      -3.127  12.183  23.726  0.00  0.00    +0.000 A 
ATOM     26  C   UNL     1      -3.961  13.148  24.297  0.00  0.00    +0.000 A 
ATOM     27  C   UNL     1      -3.485  14.439  24.490  0.00  0.00    +0.000 A 
ATOM     28  C   UNL     1      -2.179  14.766  24.163  0.00  0.00    +0.000 A 
ATOM     29  C   UNL     1      -1.393  13.828  23.491  0.00  0.00    +0.000 A 
BRANCH  27  30
ATOM     30  O   UNL     1      -4.277  15.422  25.001  0.00  0.00    +0.000 OA
ATOM     31  H   UNL     1      -4.607  15.969  24.268  0.00  0.00    +0.000 HD
ENDBRANCH  27  30
BRANCH  29  32
ATOM     32  O   UNL     1      -0.123  14.208  23.140  0.00  0.00    +0.000 OA
ATOM     33  H   UNL     1       0.484  13.887  23.834  0.00  0.00    +0.000 HD
ENDBRANCH  29  32
ENDBRANCH  12  24
TORSDOF 4
ENDMDL
MODEL 4
REMARK VINA RESULT:      -9.1      1.844      2.666
REMARK  Name = 
REMARK  5 active torsions:
REMARK  status: ('A' for Active; 'I' for Inactive)
REMARK    1  A    between atoms: C_1  and  C_2
REMARK    2  A    between atoms: C_7  and  C_8
REMARK    3  A    between atoms: C_22  and  C_24
REMARK    4  A    between atoms: C_27  and  O_28
REMARK    5  A    between atoms: C_30  and  O_31
REMARK                            x       y       z     vdW  Elec       q    Type
REMARK                         _______ _______ _______ _____ _____    ______ ____
ROOT
ATOM      1  C   UNL     1      -1.560  11.595  22.928  0.00  0.00    +0.000 C 
ATOM      2  C   UNL     1      -0.416  10.989  22.098  0.00  0.00    +0.000 C 
ATOM      3  C   UNL     1      -0.299   9.563  22.658  0.00  0.00    +0.000 C 
ATOM      4  C   UNL     1       0.963   8.906  22.194  0.00  0.00    +0.000 C 
ATOM      5  C   UNL     1       1.054   8.970  20.706  0.00  0.00    +0.000 A 
ATOM      6  C   UNL     1       1.851   7.962  20.103  0.00  0.00    +0.000 A 
ATOM      7  C   UNL     1       2.056   7.886  18.723  0.00  0.00    +0.000 A 
ATOM      8  C   UNL     1       1.471   8.897  17.966  0.00  0.00    +0.000 A 
ATOM      9  C   UNL     1       0.679   9.904  18.561  0.00  0.00    +0.000 A 
ATOM     10  C   UNL     1       0.423   9.975  19.941  0.00  0.00    +0.000 A 
ATOM     11  N   UNL     1      -0.457  11.004  20.570  0.00  0.00    +0.000 N 
ATOM     12  C   UNL     1      -1.082  11.989  19.720  0.00  0.00    +0.000 C 
ATOM     13  O   UNL     1      -0.931  12.069  18.497  0.00  0.00    +0.000 OA
ENDROOT
BRANCH   7  14
ATOM     14  C   UNL     1       2.840   6.789  18.125  0.00  0.00    +0.000 A 
ATOM     15  C   UNL     1       2.413   5.465  18.118  0.00  0.00    +0.000 A 
ATOM     16  N   UNL     1       3.127   4.449  17.577  0.00  0.00    +0.000 NA
ATOM     17  C   UNL     1       4.311   4.780  17.031  0.00  0.00    +0.000 A 
ATOM     18  C   UNL     1       5.095   3.794  16.454  0.00  0.00    +0.000 A 
ATOM     19  C   UNL     1       6.335   4.095  15.883  0.00  0.00    +0.000 A 
ATOM     20  C   UNL     1       6.788   5.406  15.888  0.00  0.00    +0.000 A 
ATOM     21  C   UNL     1       6.004   6.408  16.466  0.00  0.00    +0.000 A 
ATOM     22  C   UNL     1       4.770   6.122  17.038  0.00  0.00    +0.000 A 
ATOM     23  N   UNL     1       4.041   7.116  17.586  0.00  0.00    +0.000 NA
ENDBRANCH   7  14
BRANCH  12  24
ATOM     24  C   UNL     1      -1.995  13.053  20.208  0.00  0.00    +0.000 A 
ATOM     25  C   UNL     1      -3.340  12.769  20.440  0.00  0.00    +0.000 A 
ATOM     26  C   UNL     1      -4.237  13.797  20.745  0.00  0.00    +0.000 A 
ATOM     27  C   UNL     1      -3.754  15.072  21.012  0.00  0.00    +0.000 A 
ATOM     28  C   UNL     1      -2.392  15.322  21.023  0.00  0.00    +0.000 A 
ATOM     29  C   UNL     1      -1.514  14.319  20.607  0.00  0.00    +0.000 A 
BRANCH  27  30
ATOM     30  O   UNL     1      -4.594  16.112  21.269  0.00  0.00    +0.000 OA
ATOM     31  H   UNL     1      -4.093  16.942  21.195  0.00  0.00    +0.000 HD
ENDBRANCH  27  30
BRANCH  29  32
ATOM     32  O   UNL     1      -0.177  14.623  20.584  0.00  0.00    +0.000 OA
ATOM     33  H   UNL     1       0.154  14.576  21.502  0.00  0.00    +0.000 HD
ENDBRANCH  29  32
ENDBRANCH  12  24
TORSDOF 4
ENDMDL
MODEL 5
REMARK VINA RESULT:      -8.9      0.985      1.340
REMARK  Name = 
REMARK  5 active torsions:
REMARK  status: ('A' for Active; 'I' for Inactive)
REMARK    1  A    between atoms: C_1  and  C_2
REMARK    2  A    between atoms: C_7  and  C_8
REMARK    3  A    between atoms: C_22  and  C_24
REMARK    4  A    between atoms: C_27  and  O_28
REMARK    5  A    between atoms: C_30  and  O_31
REMARK                            x       y       z     vdW  Elec       q    Type
REMARK                         _______ _______ _______ _____ _____    ______ ____
ROOT
ATOM      1  C   UNL     1      -1.598  14.271  20.426  0.00  0.00    +0.000 C 
ATOM      2  C   UNL     1      -1.255  12.802  20.125  0.00  0.00    +0.000 C 
ATOM      3  C   UNL     1      -0.203  12.913  19.011  0.00  0.00    +0.000 C 
ATOM      4  C   UNL     1       0.036  11.586  18.364  0.00  0.00    +0.000 C 
ATOM      5  C   UNL     1       0.373  10.566  19.400  0.00  0.00    +0.000 A 
ATOM      6  C   UNL     1       1.135   9.461  18.939  0.00  0.00    +0.000 A 
ATOM      7  C   UNL     1       1.521   8.409  19.773  0.00  0.00    +0.000 A 
ATOM      8  C   UNL     1       1.067   8.479  21.088  0.00  0.00    +0.000 A 
ATOM      9  C   UNL     1       0.306   9.574  21.551  0.00  0.00    +0.000 A 
ATOM     10  C   UNL     1      -0.056  10.665  20.741  0.00  0.00    +0.000 A 
ATOM     11  N   UNL     1      -0.814  11.852  21.238  0.00  0.00    +0.000 N 
ATOM     12  C   UNL     1      -1.204  11.889  22.627  0.00  0.00    +0.000 C 
ATOM     13  O   UNL     1      -0.979  10.997  23.451  0.00  0.00    +0.000 OA
ENDROOT
BRANCH   7  14
ATOM     14  C   UNL     1       2.365   7.307  19.275  0.00  0.00    +0.000 A 
ATOM     15  C   UNL     1       2.465   6.076  19.916  0.00  0.00    +0.000 A 
ATOM     16  N   UNL     1       3.241   5.059  19.470  0.00  0.00    +0.000 NA
ATOM     17  C   UNL     1       3.942   5.295  18.347  0.00  0.00    +0.000 A 
ATOM     18  C   UNL     1       4.754   4.299  17.829  0.00  0.00    +0.000 A 
ATOM     19  C   UNL     1       5.505   4.507  16.668  0.00  0.00    +0.000 A 
ATOM     20  C   UNL     1       5.432   5.730  16.018  0.00  0.00    +0.000 A 
ATOM     21  C   UNL     1       4.614   6.739  16.531  0.00  0.00    +0.000 A 
ATOM     22  C   UNL     1       3.864   6.546  17.685  0.00  0.00    +0.000 A 
ATOM     23  N   UNL     1       3.085   7.545  18.151  0.00  0.00    +0.000 NA
ENDBRANCH   7  14
BRANCH  12  24
ATOM     24  C   UNL     1      -1.939  13.014  23.258  0.00  0.00    +0.000 A 
ATOM     25  C   UNL     1      -1.239  14.091  23.799  0.00  0.00    +0.000 A 
ATOM     26  C   UNL     1      -1.911  15.073  24.533  0.00  0.00    +0.000 A 
ATOM     27  C   UNL     1      -3.300  15.083  24.554  0.00  0.00    +0.000 A 
ATOM     28  C   UNL     1      -4.024  14.157  23.821  0.00  0.00    +0.000 A 
ATOM     29  C   UNL     1      -3.345  13.115  23.186  0.00  0.00    +0.000 A 
BRANCH  27  30
ATOM     30  O   UNL     1      -3.995  15.993  25.291  0.00  0.00    +0.000 OA
ATOM     31  H   UNL     1      -4.946  15.845  25.153  0.00  0.00    +0.000 HD
ENDBRANCH  27  30
BRANCH  29  32
ATOM     32  O   UNL     1      -4.102  12.191  22.511  0.00  0.00    +0.000 OA
ATOM     33  H   UNL     1      -4.013  11.338  22.979  0.00  0.00    +0.000 HD
ENDBRANCH  29  32
ENDBRANCH  12  24
TORSDOF 4
ENDMDL
MODEL 6
REMARK VINA RESULT:      -8.7      3.326     10.083
REMARK  Name = 
REMARK  5 active torsions:
REMARK  status: ('A' for Active; 'I' for Inactive)
REMARK    1  A    between atoms: C_1  and  C_2
REMARK    2  A    between atoms: C_7  and  C_8
REMARK    3  A    between atoms: C_22  and  C_24
REMARK    4  A    between atoms: C_27  and  O_28
REMARK    5  A    between atoms: C_30  and  O_31
REMARK                            x       y       z     vdW  Elec       q    Type
REMARK                         _______ _______ _______ _____ _____    ______ ____
ROOT
ATOM      1  C   UNL     1       3.185   5.897  17.344  0.00  0.00    +0.000 C 
ATOM      2  C   UNL     1       2.909   7.018  18.361  0.00  0.00    +0.000 C 
ATOM      3  C   UNL     1       2.252   8.110  17.503  0.00  0.00    +0.000 C 
ATOM      4  C   UNL     1       2.185   9.408  18.245  0.00  0.00    +0.000 C 
ATOM      5  C   UNL     1       1.518   9.207  19.565  0.00  0.00    +0.000 A 
ATOM      6  C   UNL     1       0.902  10.362  20.114  0.00  0.00    +0.000 A 
ATOM      7  C   UNL     1       0.248  10.353  21.349  0.00  0.00    +0.000 A 
ATOM      8  C   UNL     1       0.280   9.147  22.044  0.00  0.00    +0.000 A 
ATOM      9  C   UNL     1       0.894   7.996  21.503  0.00  0.00    +0.000 A 
ATOM     10  C   UNL     1       1.518   7.970  20.243  0.00  0.00    +0.000 A 
ATOM     11  N   UNL     1       2.121   6.743  19.641  0.00  0.00    +0.000 N 
ATOM     12  C   UNL     1       2.067   5.511  20.390  0.00  0.00    +0.000 C 
ATOM     13  O   UNL     1       1.575   5.385  21.515  0.00  0.00    +0.000 OA
ENDROOT
BRANCH   7  14
ATOM     14  C   UNL     1      -0.434  11.555  21.862  0.00  0.00    +0.000 A 
ATOM     15  C   UNL     1       0.028  12.848  21.634  0.00  0.00    +0.000 A 
ATOM     16  N   UNL     1      -0.587  13.959  22.104  0.00  0.00    +0.000 NA
ATOM     17  C   UNL     1      -1.699  13.758  22.833  0.00  0.00    +0.000 A 
ATOM     18  C   UNL     1      -2.385  14.848  23.344  0.00  0.00    +0.000 A 
ATOM     19  C   UNL     1      -3.541  14.683  24.113  0.00  0.00    +0.000 A 
ATOM     20  C   UNL     1      -4.015  13.404  24.365  0.00  0.00    +0.000 A 
ATOM     21  C   UNL     1      -3.332  12.298  23.852  0.00  0.00    +0.000 A 
ATOM     22  C   UNL     1      -2.181  12.449  23.088  0.00  0.00    +0.000 A 
ATOM     23  N   UNL     1      -1.548  11.358  22.610  0.00  0.00    +0.000 NA
ENDBRANCH   7  14
BRANCH  12  24
ATOM     24  C   UNL     1       2.606   4.215  19.903  0.00  0.00    +0.000 A 
ATOM     25  C   UNL     1       3.981   3.989  19.892  0.00  0.00    +0.000 A 
ATOM     26  C   UNL     1       4.504   2.841  19.291  0.00  0.00    +0.000 A 
ATOM     27  C   UNL     1       3.643   1.830  18.881  0.00  0.00    +0.000 A 
ATOM     28  C   UNL     1       2.280   1.930  19.103  0.00  0.00    +0.000 A 
ATOM     29  C   UNL     1       1.760   3.127  19.600  0.00  0.00    +0.000 A 
BRANCH  27  30
ATOM     30  O   UNL     1       4.105   0.714  18.250  0.00  0.00    +0.000 OA
ATOM     31  H   UNL     1       5.016   0.878  17.955  0.00  0.00    +0.000 HD
ENDBRANCH  27  30
BRANCH  29  32
ATOM     32  O   UNL     1       0.399   3.204  19.758  0.00  0.00    +0.000 OA
ATOM     33  H   UNL     1       0.038   2.302  19.659  0.00  0.00    +0.000 HD
ENDBRANCH  29  32
ENDBRANCH  12  24
TORSDOF 4
ENDMDL
MODEL 7
REMARK VINA RESULT:      -8.6      1.982      3.143
REMARK  Name = 
REMARK  5 active torsions:
REMARK  status: ('A' for Active; 'I' for Inactive)
REMARK    1  A    between atoms: C_1  and  C_2
REMARK    2  A    between atoms: C_7  and  C_8
REMARK    3  A    between atoms: C_22  and  C_24
REMARK    4  A    between atoms: C_27  and  O_28
REMARK    5  A    between atoms: C_30  and  O_31
REMARK                            x       y       z     vdW  Elec       q    Type
REMARK                         _______ _______ _______ _____ _____    ______ ____
ROOT
ATOM      1  C   UNL     1      -2.101  11.885  23.310  0.00  0.00    +0.000 C 
ATOM      2  C   UNL     1      -0.923  11.355  22.475  0.00  0.00    +0.000 C 
ATOM      3  C   UNL     1      -0.750   9.919  22.993  0.00  0.00    +0.000 C 
ATOM      4  C   UNL     1       0.543   9.331  22.524  0.00  0.00    +0.000 C 
ATOM      5  C   UNL     1       0.646   9.444  21.039  0.00  0.00    +0.000 A 
ATOM      6  C   UNL     1       1.492   8.490  20.416  0.00  0.00    +0.000 A 
ATOM      7  C   UNL     1       1.714   8.465  19.036  0.00  0.00    +0.000 A 
ATOM      8  C   UNL     1       1.093   9.472  18.303  0.00  0.00    +0.000 A 
ATOM      9  C   UNL     1       0.252  10.426  18.919  0.00  0.00    +0.000 A 
ATOM     10  C   UNL     1      -0.020  10.443  20.298  0.00  0.00    +0.000 A 
ATOM     11  N   UNL     1      -0.950  11.415  20.948  0.00  0.00    +0.000 N 
ATOM     12  C   UNL     1      -1.608  12.397  20.121  0.00  0.00    +0.000 C 
ATOM     13  O   UNL     1      -1.450  12.520  18.903  0.00  0.00    +0.000 OA
ENDROOT
BRANCH   7  14
ATOM     14  C   UNL     1       2.550   7.421  18.415  0.00  0.00    +0.000 A 
ATOM     15  C   UNL     1       3.631   7.706  17.585  0.00  0.00    +0.000 A 
ATOM     16  N   UNL     1       4.402   6.757  17.005  0.00  0.00    +0.000 NA
ATOM     17  C   UNL     1       4.069   5.480  17.265  0.00  0.00    +0.000 A 
ATOM     18  C   UNL     1       4.816   4.454  16.710  0.00  0.00    +0.000 A 
ATOM     19  C   UNL     1       4.498   3.114  16.949  0.00  0.00    +0.000 A 
ATOM     20  C   UNL     1       3.418   2.804  17.762  0.00  0.00    +0.000 A 
ATOM     21  C   UNL     1       2.660   3.831  18.329  0.00  0.00    +0.000 A 
ATOM     22  C   UNL     1       2.965   5.167  18.098  0.00  0.00    +0.000 A 
ATOM     23  N   UNL     1       2.209   6.133  18.662  0.00  0.00    +0.000 NA
ENDBRANCH   7  14
BRANCH  12  24
ATOM     24  C   UNL     1      -2.572  13.406  20.631  0.00  0.00    +0.000 A 
ATOM     25  C   UNL     1      -2.110  14.614  21.150  0.00  0.00    +0.000 A 
ATOM     26  C   UNL     1      -2.994  15.499  21.775  0.00  0.00    +0.000 A 
ATOM     27  C   UNL     1      -4.362  15.265  21.702  0.00  0.00    +0.000 A 
ATOM     28  C   UNL     1      -4.858  14.193  20.981  0.00  0.00    +0.000 A 
ATOM     29  C   UNL     1      -3.964  13.255  20.458  0.00  0.00    +0.000 A 
BRANCH  27  30
ATOM     30  O   UNL     1      -5.257  16.075  22.334  0.00  0.00    +0.000 OA
ATOM     31  H   UNL     1      -5.003  17.001  22.177  0.00  0.00    +0.000 HD
ENDBRANCH  27  30
BRANCH  29  32
ATOM     32  O   UNL     1      -4.498  12.181  19.793  0.00  0.00    +0.000 OA
ATOM     33  H   UNL     1      -3.758  11.602  19.525  0.00  0.00    +0.000 HD
ENDBRANCH  29  32
ENDBRANCH  12  24
TORSDOF 4
ENDMDL
MODEL 8
REMARK VINA RESULT:      -8.5      1.407      2.257
REMARK  Name = 
REMARK  5 active torsions:
REMARK  status: ('A' for Active; 'I' for Inactive)
REMARK    1  A    between atoms: C_1  and  C_2
REMARK    2  A    between atoms: C_7  and  C_8
REMARK    3  A    between atoms: C_22  and  C_24
REMARK    4  A    between atoms: C_27  and  O_28
REMARK    5  A    between atoms: C_30  and  O_31
REMARK                            x       y       z     vdW  Elec       q    Type
REMARK                         _______ _______ _______ _____ _____    ______ ____
ROOT
ATOM      1  C   UNL     1      -1.487  14.448  20.553  0.00  0.00    +0.000 C 
ATOM      2  C   UNL     1      -1.196  12.974  20.223  0.00  0.00    +0.000 C 
ATOM      3  C   UNL     1      -0.078  13.068  19.174  0.00  0.00    +0.000 C 
ATOM      4  C   UNL     1       0.135  11.751  18.498  0.00  0.00    +0.000 C 
ATOM      5  C   UNL     1       0.365  10.685  19.517  0.00  0.00    +0.000 A 
ATOM      6  C   UNL     1       1.101   9.560  19.062  0.00  0.00    +0.000 A 
ATOM      7  C   UNL     1       1.390   8.466  19.882  0.00  0.00    +0.000 A 
ATOM      8  C   UNL     1       0.866   8.517  21.170  0.00  0.00    +0.000 A 
ATOM      9  C   UNL     1       0.131   9.634  21.627  0.00  0.00    +0.000 A 
ATOM     10  C   UNL     1      -0.134  10.764  20.835  0.00  0.00    +0.000 A 
ATOM     11  N   UNL     1      -0.863  11.971  21.328  0.00  0.00    +0.000 N 
ATOM     12  C   UNL     1      -1.329  11.984  22.693  0.00  0.00    +0.000 C 
ATOM     13  O   UNL     1      -1.193  11.058  23.498  0.00  0.00    +0.000 OA
ENDROOT
BRANCH   7  14
ATOM     14  C   UNL     1       2.210   7.341  19.395  0.00  0.00    +0.000 A 
ATOM     15  C   UNL     1       2.995   7.411  18.248  0.00  0.00    +0.000 A 
ATOM     16  N   UNL     1       3.748   6.383  17.789  0.00  0.00    +0.000 NA
ATOM     17  C   UNL     1       3.700   5.246  18.507  0.00  0.00    +0.000 A 
ATOM     18  C   UNL     1       4.447   4.152  18.100  0.00  0.00    +0.000 A 
ATOM     19  C   UNL     1       4.419   2.950  18.812  0.00  0.00    +0.000 A 
ATOM     20  C   UNL     1       3.634   2.850  19.951  0.00  0.00    +0.000 A 
ATOM     21  C   UNL     1       2.879   3.948  20.371  0.00  0.00    +0.000 A 
ATOM     22  C   UNL     1       2.897   5.149  19.671  0.00  0.00    +0.000 A 
ATOM     23  N   UNL     1       2.154   6.188  20.106  0.00  0.00    +0.000 NA
ENDBRANCH   7  14
BRANCH  12  24
ATOM     24  C   UNL     1      -2.046  13.124  23.319  0.00  0.00    +0.000 A 
ATOM     25  C   UNL     1      -1.331  14.213  23.814  0.00  0.00    +0.000 A 
ATOM     26  C   UNL     1      -1.982  15.212  24.545  0.00  0.00    +0.000 A 
ATOM     27  C   UNL     1      -3.370  15.222  24.606  0.00  0.00    +0.000 A 
ATOM     28  C   UNL     1      -4.114  14.280  23.916  0.00  0.00    +0.000 A 
ATOM     29  C   UNL     1      -3.454  13.223  23.286  0.00  0.00    +0.000 A 
BRANCH  27  30
ATOM     30  O   UNL     1      -4.043  16.149  25.342  0.00  0.00    +0.000 OA
ATOM     31  H   UNL     1      -3.954  15.923  26.284  0.00  0.00    +0.000 HD
ENDBRANCH  27  30
BRANCH  29  32
ATOM     32  O   UNL     1      -4.229  12.283  22.655  0.00  0.00    +0.000 OA
ATOM     33  H   UNL     1      -5.044  12.171  23.181  0.00  0.00    +0.000 HD
ENDBRANCH  29  32
ENDBRANCH  12  24
TORSDOF 4
ENDMDL
MODEL 9
REMARK VINA RESULT:      -8.4      3.292     10.025
REMARK  Name = 
REMARK  5 active torsions:
REMARK  status: ('A' for Active; 'I' for Inactive)
REMARK    1  A    between atoms: C_1  and  C_2
REMARK    2  A    between atoms: C_7  and  C_8
REMARK    3  A    between atoms: C_22  and  C_24
REMARK    4  A    between atoms: C_27  and  O_28
REMARK    5  A    between atoms: C_30  and  O_31
REMARK                            x       y       z     vdW  Elec       q    Type
REMARK                         _______ _______ _______ _____ _____    ______ ____
ROOT
ATOM      1  C   UNL     1       3.234   6.392  17.156  0.00  0.00    +0.000 C 
ATOM      2  C   UNL     1       2.922   7.439  18.239  0.00  0.00    +0.000 C 
ATOM      3  C   UNL     1       2.260   8.574  17.442  0.00  0.00    +0.000 C 
ATOM      4  C   UNL     1       2.159   9.819  18.265  0.00  0.00    +0.000 C 
ATOM      5  C   UNL     1       1.474   9.522  19.558  0.00  0.00    +0.000 A 
ATOM      6  C   UNL     1       0.830  10.628  20.171  0.00  0.00    +0.000 A 
ATOM      7  C   UNL     1       0.157  10.528  21.392  0.00  0.00    +0.000 A 
ATOM      8  C   UNL     1       0.199   9.280  22.007  0.00  0.00    +0.000 A 
ATOM      9  C   UNL     1       0.842   8.177  21.403  0.00  0.00    +0.000 A 
ATOM     10  C   UNL     1       1.486   8.243  20.155  0.00  0.00    +0.000 A 
ATOM     11  N   UNL     1       2.119   7.069  19.485  0.00  0.00    +0.000 N 
ATOM     12  C   UNL     1       2.076   5.790  20.151  0.00  0.00    +0.000 C 
ATOM     13  O   UNL     1       1.569   5.582  21.258  0.00  0.00    +0.000 OA
ENDROOT
BRANCH   7  14
ATOM     14  C   UNL     1      -0.554  11.683  21.970  0.00  0.00    +0.000 A 
ATOM     15  C   UNL     1      -0.096  12.993  21.858  0.00  0.00    +0.000 A 
ATOM     16  N   UNL     1      -0.738  14.060  22.389  0.00  0.00    +0.000 NA
ATOM     17  C   UNL     1      -1.874  13.797  23.060  0.00  0.00    +0.000 A 
ATOM     18  C   UNL     1      -2.588  14.840  23.628  0.00  0.00    +0.000 A 
ATOM     19  C   UNL     1      -3.768  14.608  24.340  0.00  0.00    +0.000 A 
ATOM     20  C   UNL     1      -4.239  13.310  24.476  0.00  0.00    +0.000 A 
ATOM     21  C   UNL     1      -3.527  12.252  23.905  0.00  0.00    +0.000 A 
ATOM     22  C   UNL     1      -2.352  12.469  23.196  0.00  0.00    +0.000 A 
ATOM     23  N   UNL     1      -1.692  11.421  22.659  0.00  0.00    +0.000 NA
ENDBRANCH   7  14
BRANCH  12  24
ATOM     24  C   UNL     1       2.645   4.537  19.591  0.00  0.00    +0.000 A 
ATOM     25  C   UNL     1       1.818   3.624  18.938  0.00  0.00    +0.000 A 
ATOM     26  C   UNL     1       2.313   2.376  18.550  0.00  0.00    +0.000 A 
ATOM     27  C   UNL     1       3.677   2.122  18.636  0.00  0.00    +0.000 A 
ATOM     28  C   UNL     1       4.553   3.107  19.059  0.00  0.00    +0.000 A 
ATOM     29  C   UNL     1       4.037   4.308  19.550  0.00  0.00    +0.000 A 
BRANCH  27  30
ATOM     30  O   UNL     1       4.196   0.905  18.311  0.00  0.00    +0.000 OA
ATOM     31  H   UNL     1       5.160   0.936  18.433  0.00  0.00    +0.000 HD
ENDBRANCH  27  30
BRANCH  29  32
ATOM     32  O   UNL     1       4.936   5.238  20.007  0.00  0.00    +0.000 OA
ATOM     33  H   UNL     1       4.810   6.053  19.483  0.00  0.00    +0.000 HD
ENDBRANCH  29  32
ENDBRANCH  12  24
TORSDOF 4
ENDMDL
