MODEL 1
REMARK VINA RESULT:      -6.7      0.000      0.000
REMARK  Name = 
REMARK  15 active torsions:
REMARK  status: ('A' for Active; 'I' for Inactive)
REMARK    1  A    between atoms: C_1  and  C_2
REMARK    2  A    between atoms: C_2  and  C_3
REMARK    3  A    between atoms: C_3  and  C_4
REMARK    4  A    between atoms: C_4  and  C_5
REMARK    5  A    between atoms: C_5  and  C_6
REMARK    6  A    between atoms: C_6  and  C_7
REMARK    7  A    between atoms: C_7  and  C_8
REMARK    8  A    between atoms: C_8  and  C_9
REMARK    9  A    between atoms: C_9  and  C_10
REMARK   10  A    between atoms: C_10  and  C_11
REMARK   11  A    between atoms: C_11  and  C_12
REMARK   12  A    between atoms: C_12  and  N_13
REMARK   13  A    between atoms: N_16  and  C_17
REMARK   14  A    between atoms: C_17  and  C_18
REMARK   15  A    between atoms: C_21  and  C_22
REMARK                            x       y       z     vdW  Elec       q    Type
REMARK                         _______ _______ _______ _____ _____    ______ ____
ROOT
ATOM      1  N   UNL     1       1.438   8.853  19.723  0.00  0.00    +0.000 N 
ATOM      2  C   UNL     1       1.086   9.689  18.763  0.00  0.00    +0.000 A 
ATOM      3  N   UNL     1       1.538   9.640  17.511  0.00  0.00    +0.000 N 
ATOM      4  N   UNL     1       0.297  10.631  19.260  0.00  0.00    +0.000 N 
ATOM      5  C   UNL     1       0.099  10.386  20.623  0.00  0.00    +0.000 A 
ATOM      6  C   UNL     1      -0.623  11.068  21.601  0.00  0.00    +0.000 A 
ATOM      7  C   UNL     1      -0.583  10.521  22.893  0.00  0.00    +0.000 A 
ATOM      8  C   UNL     1       0.142   9.350  23.182  0.00  0.00    +0.000 A 
ATOM      9  C   UNL     1       0.864   8.673  22.191  0.00  0.00    +0.000 A 
ATOM     10  C   UNL     1       0.820   9.228  20.915  0.00  0.00    +0.000 A 
ATOM     11  H   UNL     1       2.086   8.857  17.187  0.00  0.00    +0.000 HD
ATOM     12  H   UNL     1       1.406  10.413  16.877  0.00  0.00    +0.000 HD
ENDROOT
BRANCH   1  13
ATOM     13  C   UNL     1       2.394   7.774  19.589  0.00  0.00    +0.000 C 
BRANCH  13  14
ATOM     14  C   UNL     1       1.690   6.458  19.294  0.00  0.00    +0.000 C 
BRANCH  14  15
ATOM     15  C   UNL     1       1.989   5.411  20.360  0.00  0.00    +0.000 C 
BRANCH  15  16
ATOM     16  C   UNL     1       0.896   4.354  20.394  0.00  0.00    +0.000 C 
BRANCH  16  17
ATOM     17  C   UNL     1       1.453   2.956  20.560  0.00  0.00    +0.000 C 
BRANCH  17  18
ATOM     18  C   UNL     1       1.067   2.155  19.329  0.00  0.00    +0.000 C 
BRANCH  18  19
ATOM     19  C   UNL     1       1.886   2.573  18.125  0.00  0.00    +0.000 C 
BRANCH  19  20
ATOM     20  C   UNL     1       3.314   2.088  18.308  0.00  0.00    +0.000 C 
BRANCH  20  21
ATOM     21  C   UNL     1       4.297   3.210  18.028  0.00  0.00    +0.000 C 
BRANCH  21  22
ATOM     22  C   UNL     1       3.691   4.200  17.042  0.00  0.00    +0.000 C 
BRANCH  22  24
ATOM     23  C   UNL     1       5.280   5.639  18.335  0.00  0.00    +0.000 C 
ATOM     24  C   UNL     1       4.463   5.512  17.063  0.00  0.00    +0.000 C 
ENDBRANCH  22  24
ENDBRANCH  21  22
ENDBRANCH  20  21
ENDBRANCH  19  20
ENDBRANCH  18  19
ENDBRANCH  17  18
ENDBRANCH  16  17
ENDBRANCH  15  16
ENDBRANCH  14  15
ENDBRANCH  13  14
ENDBRANCH   1  13
BRANCH   4  25
ATOM     25  C   UNL     1      -0.330  11.710  18.505  0.00  0.00    +0.000 C 
BRANCH  25  26
ATOM     26  C   UNL     1      -1.828  11.542  18.377  0.00  0.00    +0.000 A 
ATOM     27  C   UNL     1      -2.761  12.324  19.076  0.00  0.00    +0.000 A 
ATOM     28  C   UNL     1      -4.126  12.029  19.034  0.00  0.00    +0.000 A 
ATOM     29  C   UNL     1      -4.585  10.945  18.288  0.00  0.00    +0.000 A 
ATOM     30  C   UNL     1      -6.027  10.538  18.345  0.00  0.00    +0.000 C 
ATOM     31  C   UNL     1      -3.678  10.227  17.501  0.00  0.00    +0.000 A 
ATOM     32  C   UNL     1      -2.314  10.521  17.545  0.00  0.00    +0.000 A 
ENDBRANCH  25  26
ENDBRANCH   4  25
TORSDOF 13
ENDMDL
MODEL 2
REMARK VINA RESULT:      -6.4      0.746      2.257
REMARK  Name = 
REMARK  15 active torsions:
REMARK  status: ('A' for Active; 'I' for Inactive)
REMARK    1  A    between atoms: C_1  and  C_2
REMARK    2  A    between atoms: C_2  and  C_3
REMARK    3  A    between atoms: C_3  and  C_4
REMARK    4  A    between atoms: C_4  and  C_5
REMARK    5  A    between atoms: C_5  and  C_6
REMARK    6  A    between atoms: C_6  and  C_7
REMARK    7  A    between atoms: C_7  and  C_8
REMARK    8  A    between atoms: C_8  and  C_9
REMARK    9  A    between atoms: C_9  and  C_10
REMARK   10  A    between atoms: C_10  and  C_11
REMARK   11  A    between atoms: C_11  and  C_12
REMARK   12  A    between atoms: C_12  and  N_13
REMARK   13  A    between atoms: N_16  and  C_17
REMARK   14  A    between atoms: C_17  and  C_18
REMARK   15  A    between atoms: C_21  and  C_22
REMARK                            x       y       z     vdW  Elec       q    Type
REMARK                         _______ _______ _______ _____ _____    ______ ____
ROOT
ATOM      1  N   UNL     1       1.160   9.185  19.890  0.00  0.00    +0.000 N 
ATOM      2  C   UNL     1       0.797  10.028  18.939  0.00  0.00    +0.000 A 
ATOM      3  N   UNL     1       1.289  10.034  17.702  0.00  0.00    +0.000 N 
ATOM      4  N   UNL     1      -0.052  10.918  19.434  0.00  0.00    +0.000 N 
ATOM      5  C   UNL     1      -0.280  10.628  20.784  0.00  0.00    +0.000 A 
ATOM      6  C   UNL     1      -1.064  11.249  21.754  0.00  0.00    +0.000 A 
ATOM      7  C   UNL     1      -1.038  10.672  23.033  0.00  0.00    +0.000 A 
ATOM      8  C   UNL     1      -0.265   9.530  23.316  0.00  0.00    +0.000 A 
ATOM      9  C   UNL     1       0.520   8.914  22.333  0.00  0.00    +0.000 A 
ATOM     10  C   UNL     1       0.488   9.500  21.070  0.00  0.00    +0.000 A 
ATOM     11  H   UNL     1       1.885   9.286  17.376  0.00  0.00    +0.000 HD
ATOM     12  H   UNL     1       1.139  10.815  17.083  0.00  0.00    +0.000 HD
ENDROOT
BRANCH   1  13
ATOM     13  C   UNL     1       2.171   8.157  19.760  0.00  0.00    +0.000 C 
BRANCH  13  14
ATOM     14  C   UNL     1       1.756   7.114  18.734  0.00  0.00    +0.000 C 
BRANCH  14  15
ATOM     15  C   UNL     1       2.853   6.875  17.703  0.00  0.00    +0.000 C 
BRANCH  15  16
ATOM     16  C   UNL     1       3.839   5.830  18.202  0.00  0.00    +0.000 C 
BRANCH  16  17
ATOM     17  C   UNL     1       3.814   4.570  17.363  0.00  0.00    +0.000 C 
BRANCH  17  18
ATOM     18  C   UNL     1       4.537   3.482  18.140  0.00  0.00    +0.000 C 
BRANCH  18  19
ATOM     19  C   UNL     1       3.605   2.333  18.466  0.00  0.00    +0.000 C 
BRANCH  19  20
ATOM     20  C   UNL     1       2.303   2.523  17.707  0.00  0.00    +0.000 C 
BRANCH  20  21
ATOM     21  C   UNL     1       1.115   2.321  18.630  0.00  0.00    +0.000 C 
BRANCH  21  22
ATOM     22  C   UNL     1       1.008   3.485  19.605  0.00  0.00    +0.000 C 
BRANCH  22  24
ATOM     23  C   UNL     1       2.294   3.547  21.754  0.00  0.00    +0.000 C 
ATOM     24  C   UNL     1       1.078   2.984  21.041  0.00  0.00    +0.000 C 
ENDBRANCH  22  24
ENDBRANCH  21  22
ENDBRANCH  20  21
ENDBRANCH  19  20
ENDBRANCH  18  19
ENDBRANCH  17  18
ENDBRANCH  16  17
ENDBRANCH  15  16
ENDBRANCH  14  15
ENDBRANCH  13  14
ENDBRANCH   1  13
BRANCH   4  25
ATOM     25  C   UNL     1      -0.707  11.985  18.686  0.00  0.00    +0.000 C 
BRANCH  25  26
ATOM     26  C   UNL     1      -2.197  11.767  18.539  0.00  0.00    +0.000 A 
ATOM     27  C   UNL     1      -3.162  12.464  19.284  0.00  0.00    +0.000 A 
ATOM     28  C   UNL     1      -4.514  12.119  19.214  0.00  0.00    +0.000 A 
ATOM     29  C   UNL     1      -4.928  11.071  18.395  0.00  0.00    +0.000 A 
ATOM     30  C   UNL     1      -6.353  10.606  18.416  0.00  0.00    +0.000 C 
ATOM     31  C   UNL     1      -3.992  10.443  17.566  0.00  0.00    +0.000 A 
ATOM     32  C   UNL     1      -2.640  10.787  17.637  0.00  0.00    +0.000 A 
ENDBRANCH  25  26
ENDBRANCH   4  25
TORSDOF 13
ENDMDL
MODEL 3
REMARK VINA RESULT:      -6.3      2.073      4.376
REMARK  Name = 
REMARK  15 active torsions:
REMARK  status: ('A' for Active; 'I' for Inactive)
REMARK    1  A    between atoms: C_1  and  C_2
REMARK    2  A    between atoms: C_2  and  C_3
REMARK    3  A    between atoms: C_3  and  C_4
REMARK    4  A    between atoms: C_4  and  C_5
REMARK    5  A    between atoms: C_5  and  C_6
REMARK    6  A    between atoms: C_6  and  C_7
REMARK    7  A    between atoms: C_7  and  C_8
REMARK    8  A    between atoms: C_8  and  C_9
REMARK    9  A    between atoms: C_9  and  C_10
REMARK   10  A    between atoms: C_10  and  C_11
REMARK   11  A    between atoms: C_11  and  C_12
REMARK   12  A    between atoms: C_12  and  N_13
REMARK   13  A    between atoms: N_16  and  C_17
REMARK   14  A    between atoms: C_17  and  C_18
REMARK   15  A    between atoms: C_21  and  C_22
REMARK                            x       y       z     vdW  Elec       q    Type
REMARK                         _______ _______ _______ _____ _____    ______ ____
ROOT
ATOM      1  N   UNL     1       0.217  11.369  18.626  0.00  0.00    +0.000 N 
ATOM      2  C   UNL     1       0.065  12.394  19.446  0.00  0.00    +0.000 A 
ATOM      3  N   UNL     1       1.053  12.976  20.122  0.00  0.00    +0.000 N 
ATOM      4  N   UNL     1      -1.223  12.684  19.562  0.00  0.00    +0.000 N 
ATOM      5  C   UNL     1      -1.961  11.814  18.752  0.00  0.00    +0.000 A 
ATOM      6  C   UNL     1      -3.329  11.684  18.522  0.00  0.00    +0.000 A 
ATOM      7  C   UNL     1      -3.713  10.669  17.633  0.00  0.00    +0.000 A 
ATOM      8  C   UNL     1      -2.769   9.832  17.008  0.00  0.00    +0.000 A 
ATOM      9  C   UNL     1      -1.396   9.972  17.247  0.00  0.00    +0.000 A 
ATOM     10  C   UNL     1      -1.029  10.980  18.135  0.00  0.00    +0.000 A 
ATOM     11  H   UNL     1       2.018  12.745  19.935  0.00  0.00    +0.000 HD
ATOM     12  H   UNL     1       0.863  13.608  20.885  0.00  0.00    +0.000 HD
ENDROOT
BRANCH   1  13
ATOM     13  C   UNL     1       1.465  10.688  18.353  0.00  0.00    +0.000 C 
BRANCH  13  14
ATOM     14  C   UNL     1       1.421   9.253  18.854  0.00  0.00    +0.000 C 
BRANCH  14  15
ATOM     15  C   UNL     1       1.853   8.269  17.773  0.00  0.00    +0.000 C 
BRANCH  15  16
ATOM     16  C   UNL     1       3.080   7.488  18.217  0.00  0.00    +0.000 C 
BRANCH  16  17
ATOM     17  C   UNL     1       2.719   6.159  18.846  0.00  0.00    +0.000 C 
BRANCH  17  18
ATOM     18  C   UNL     1       3.879   5.207  18.614  0.00  0.00    +0.000 C 
BRANCH  18  19
ATOM     19  C   UNL     1       3.628   4.322  17.411  0.00  0.00    +0.000 C 
BRANCH  19  20
ATOM     20  C   UNL     1       2.192   3.828  17.454  0.00  0.00    +0.000 C 
BRANCH  20  21
ATOM     21  C   UNL     1       2.092   2.555  18.276  0.00  0.00    +0.000 C 
BRANCH  21  22
ATOM     22  C   UNL     1       0.776   2.531  19.042  0.00  0.00    +0.000 C 
BRANCH  22  24
ATOM     23  C   UNL     1       1.848   2.828  21.285  0.00  0.00    +0.000 C 
ATOM     24  C   UNL     1       0.867   3.407  20.283  0.00  0.00    +0.000 C 
ENDBRANCH  22  24
ENDBRANCH  21  22
ENDBRANCH  20  21
ENDBRANCH  19  20
ENDBRANCH  18  19
ENDBRANCH  17  18
ENDBRANCH  16  17
ENDBRANCH  15  16
ENDBRANCH  14  15
ENDBRANCH  13  14
ENDBRANCH   1  13
BRANCH   4  25
ATOM     25  C   UNL     1      -1.788  13.776  20.346  0.00  0.00    +0.000 C 
BRANCH  25  26
ATOM     26  C   UNL     1      -2.669  13.291  21.476  0.00  0.00    +0.000 A 
ATOM     27  C   UNL     1      -4.026  13.629  21.603  0.00  0.00    +0.000 A 
ATOM     28  C   UNL     1      -4.754  13.275  22.742  0.00  0.00    +0.000 A 
ATOM     29  C   UNL     1      -4.138  12.572  23.776  0.00  0.00    +0.000 A 
ATOM     30  C   UNL     1      -4.870  12.307  25.057  0.00  0.00    +0.000 C 
ATOM     31  C   UNL     1      -2.819  12.136  23.612  0.00  0.00    +0.000 A 
ATOM     32  C   UNL     1      -2.092  12.491  22.474  0.00  0.00    +0.000 A 
ENDBRANCH  25  26
ENDBRANCH   4  25
TORSDOF 13
ENDMDL
MODEL 4
REMARK VINA RESULT:      -6.3      0.811      1.284
REMARK  Name = 
REMARK  15 active torsions:
REMARK  status: ('A' for Active; 'I' for Inactive)
REMARK    1  A    between atoms: C_1  and  C_2
REMARK    2  A    between atoms: C_2  and  C_3
REMARK    3  A    between atoms: C_3  and  C_4
REMARK    4  A    between atoms: C_4  and  C_5
REMARK    5  A    between atoms: C_5  and  C_6
REMARK    6  A    between atoms: C_6  and  C_7
REMARK    7  A    between atoms: C_7  and  C_8
REMARK    8  A    between atoms: C_8  and  C_9
REMARK    9  A    between atoms: C_9  and  C_10
REMARK   10  A    between atoms: C_10  and  C_11
REMARK   11  A    between atoms: C_11  and  C_12
REMARK   12  A    between atoms: C_12  and  N_13
REMARK   13  A    between atoms: N_16  and  C_17
REMARK   14  A    between atoms: C_17  and  C_18
REMARK   15  A    between atoms: C_21  and  C_22
REMARK                            x       y       z     vdW  Elec       q    Type
REMARK                         _______ _______ _______ _____ _____    ______ ____
ROOT
ATOM      1  N   UNL     1       1.174   9.057  19.776  0.00  0.00    +0.000 N 
ATOM      2  C   UNL     1       0.700   9.861  18.840  0.00  0.00    +0.000 A 
ATOM      3  N   UNL     1       1.071   9.836  17.562  0.00  0.00    +0.000 N 
ATOM      4  N   UNL     1      -0.119  10.747  19.387  0.00  0.00    +0.000 N 
ATOM      5  C   UNL     1      -0.209  10.497  20.760  0.00  0.00    +0.000 A 
ATOM      6  C   UNL     1      -0.912  11.133  21.782  0.00  0.00    +0.000 A 
ATOM      7  C   UNL     1      -0.749  10.599  23.070  0.00  0.00    +0.000 A 
ATOM      8  C   UNL     1       0.075   9.483  23.312  0.00  0.00    +0.000 A 
ATOM      9  C   UNL     1       0.777   8.853  22.277  0.00  0.00    +0.000 A 
ATOM     10  C   UNL     1       0.610   9.396  21.005  0.00  0.00    +0.000 A 
ATOM     11  H   UNL     1       1.652   9.091  17.203  0.00  0.00    +0.000 HD
ATOM     12  H   UNL     1       0.843  10.593  16.936  0.00  0.00    +0.000 HD
ENDROOT
BRANCH   1  13
ATOM     13  C   UNL     1       2.192   8.047  19.581  0.00  0.00    +0.000 C 
BRANCH  13  14
ATOM     14  C   UNL     1       1.571   6.664  19.462  0.00  0.00    +0.000 C 
BRANCH  14  15
ATOM     15  C   UNL     1       1.835   5.823  20.705  0.00  0.00    +0.000 C 
BRANCH  15  16
ATOM     16  C   UNL     1       1.394   4.384  20.481  0.00  0.00    +0.000 C 
BRANCH  16  17
ATOM     17  C   UNL     1       2.119   3.413  21.389  0.00  0.00    +0.000 C 
BRANCH  17  18
ATOM     18  C   UNL     1       3.012   2.545  20.520  0.00  0.00    +0.000 C 
BRANCH  18  19
ATOM     19  C   UNL     1       3.831   3.388  19.565  0.00  0.00    +0.000 C 
BRANCH  19  20
ATOM     20  C   UNL     1       3.663   2.842  18.157  0.00  0.00    +0.000 C 
BRANCH  20  21
ATOM     21  C   UNL     1       3.539   3.978  17.158  0.00  0.00    +0.000 C 
BRANCH  21  22
ATOM     22  C   UNL     1       4.845   4.143  16.392  0.00  0.00    +0.000 C 
BRANCH  22  24
ATOM     23  C   UNL     1       4.674   6.465  17.314  0.00  0.00    +0.000 C 
ATOM     24  C   UNL     1       5.133   5.617  16.142  0.00  0.00    +0.000 C 
ENDBRANCH  22  24
ENDBRANCH  21  22
ENDBRANCH  20  21
ENDBRANCH  19  20
ENDBRANCH  18  19
ENDBRANCH  17  18
ENDBRANCH  16  17
ENDBRANCH  15  16
ENDBRANCH  14  15
ENDBRANCH  13  14
ENDBRANCH   1  13
BRANCH   4  25
ATOM     25  C   UNL     1      -0.869  11.775  18.673  0.00  0.00    +0.000 C 
BRANCH  25  26
ATOM     26  C   UNL     1      -2.352  11.482  18.615  0.00  0.00    +0.000 A 
ATOM     27  C   UNL     1      -2.913  10.461  17.831  0.00  0.00    +0.000 A 
ATOM     28  C   UNL     1      -4.298  10.330  17.700  0.00  0.00    +0.000 A 
ATOM     29  C   UNL     1      -5.150  11.218  18.354  0.00  0.00    +0.000 A 
ATOM     30  C   UNL     1      -6.629  11.171  18.112  0.00  0.00    +0.000 C 
ATOM     31  C   UNL     1      -4.606  12.169  19.224  0.00  0.00    +0.000 A 
ATOM     32  C   UNL     1      -3.221  12.301  19.353  0.00  0.00    +0.000 A 
ENDBRANCH  25  26
ENDBRANCH   4  25
TORSDOF 13
ENDMDL
MODEL 5
REMARK VINA RESULT:      -6.3      2.058      4.303
REMARK  Name = 
REMARK  15 active torsions:
REMARK  status: ('A' for Active; 'I' for Inactive)
REMARK    1  A    between atoms: C_1  and  C_2
REMARK    2  A    between atoms: C_2  and  C_3
REMARK    3  A    between atoms: C_3  and  C_4
REMARK    4  A    between atoms: C_4  and  C_5
REMARK    5  A    between atoms: C_5  and  C_6
REMARK    6  A    between atoms: C_6  and  C_7
REMARK    7  A    between atoms: C_7  and  C_8
REMARK    8  A    between atoms: C_8  and  C_9
REMARK    9  A    between atoms: C_9  and  C_10
REMARK   10  A    between atoms: C_10  and  C_11
REMARK   11  A    between atoms: C_11  and  C_12
REMARK   12  A    between atoms: C_12  and  N_13
REMARK   13  A    between atoms: N_16  and  C_17
REMARK   14  A    between atoms: C_17  and  C_18
REMARK   15  A    between atoms: C_21  and  C_22
REMARK                            x       y       z     vdW  Elec       q    Type
REMARK                         _______ _______ _______ _____ _____    ______ ____
ROOT
ATOM      1  N   UNL     1       0.416  11.248  18.589  0.00  0.00    +0.000 N 
ATOM      2  C   UNL     1       0.321  12.293  19.393  0.00  0.00    +0.000 A 
ATOM      3  N   UNL     1       1.349  12.869  20.012  0.00  0.00    +0.000 N 
ATOM      4  N   UNL     1      -0.955  12.612  19.558  0.00  0.00    +0.000 N 
ATOM      5  C   UNL     1      -1.744  11.740  18.800  0.00  0.00    +0.000 A 
ATOM      6  C   UNL     1      -3.124  11.634  18.633  0.00  0.00    +0.000 A 
ATOM      7  C   UNL     1      -3.567  10.608  17.784  0.00  0.00    +0.000 A 
ATOM      8  C   UNL     1      -2.667   9.740  17.137  0.00  0.00    +0.000 A 
ATOM      9  C   UNL     1      -1.283   9.856  17.313  0.00  0.00    +0.000 A 
ATOM     10  C   UNL     1      -0.857  10.875  18.162  0.00  0.00    +0.000 A 
ATOM     11  H   UNL     1       2.300  12.614  19.788  0.00  0.00    +0.000 HD
ATOM     12  H   UNL     1       1.205  13.520  20.768  0.00  0.00    +0.000 HD
ENDROOT
BRANCH   1  13
ATOM     13  C   UNL     1       1.638  10.536  18.277  0.00  0.00    +0.000 C 
BRANCH  13  14
ATOM     14  C   UNL     1       1.551   9.086  18.728  0.00  0.00    +0.000 C 
BRANCH  14  15
ATOM     15  C   UNL     1       2.212   8.148  17.726  0.00  0.00    +0.000 C 
BRANCH  15  16
ATOM     16  C   UNL     1       2.120   6.706  18.202  0.00  0.00    +0.000 C 
BRANCH  16  17
ATOM     17  C   UNL     1       3.479   6.044  18.297  0.00  0.00    +0.000 C 
BRANCH  17  18
ATOM     18  C   UNL     1       3.663   5.568  19.728  0.00  0.00    +0.000 C 
BRANCH  18  19
ATOM     19  C   UNL     1       2.336   5.501  20.456  0.00  0.00    +0.000 C 
BRANCH  19  20
ATOM     20  C   UNL     1       2.083   4.067  20.889  0.00  0.00    +0.000 C 
BRANCH  20  21
ATOM     21  C   UNL     1       0.785   3.553  20.293  0.00  0.00    +0.000 C 
BRANCH  21  22
ATOM     22  C   UNL     1       1.038   2.984  18.904  0.00  0.00    +0.000 C 
BRANCH  22  24
ATOM     23  C   UNL     1       3.137   2.147  17.824  0.00  0.00    +0.000 C 
ATOM     24  C   UNL     1       2.143   1.938  18.951  0.00  0.00    +0.000 C 
ENDBRANCH  22  24
ENDBRANCH  21  22
ENDBRANCH  20  21
ENDBRANCH  19  20
ENDBRANCH  18  19
ENDBRANCH  17  18
ENDBRANCH  16  17
ENDBRANCH  15  16
ENDBRANCH  14  15
ENDBRANCH  13  14
ENDBRANCH   1  13
BRANCH   4  25
ATOM     25  C   UNL     1      -1.463  13.732  20.342  0.00  0.00    +0.000 C 
BRANCH  25  26
ATOM     26  C   UNL     1      -2.404  13.296  21.443  0.00  0.00    +0.000 A 
ATOM     27  C   UNL     1      -3.702  13.807  21.604  0.00  0.00    +0.000 A 
ATOM     28  C   UNL     1      -4.473  13.479  22.722  0.00  0.00    +0.000 A 
ATOM     29  C   UNL     1      -3.961  12.630  23.701  0.00  0.00    +0.000 A 
ATOM     30  C   UNL     1      -4.724  12.382  24.967  0.00  0.00    +0.000 C 
ATOM     31  C   UNL     1      -2.714  12.030  23.498  0.00  0.00    +0.000 A 
ATOM     32  C   UNL     1      -1.943  12.359  22.381  0.00  0.00    +0.000 A 
ENDBRANCH  25  26
ENDBRANCH   4  25
TORSDOF 13
ENDMDL
MODEL 6
REMARK VINA RESULT:      -6.3      0.680      2.472
REMARK  Name = 
REMARK  15 active torsions:
REMARK  status: ('A' for Active; 'I' for Inactive)
REMARK    1  A    between atoms: C_1  and  C_2
REMARK    2  A    between atoms: C_2  and  C_3
REMARK    3  A    between atoms: C_3  and  C_4
REMARK    4  A    between atoms: C_4  and  C_5
REMARK    5  A    between atoms: C_5  and  C_6
REMARK    6  A    between atoms: C_6  and  C_7
REMARK    7  A    between atoms: C_7  and  C_8
REMARK    8  A    between atoms: C_8  and  C_9
REMARK    9  A    between atoms: C_9  and  C_10
REMARK   10  A    between atoms: C_10  and  C_11
REMARK   11  A    between atoms: C_11  and  C_12
REMARK   12  A    between atoms: C_12  and  N_13
REMARK   13  A    between atoms: N_16  and  C_17
REMARK   14  A    between atoms: C_17  and  C_18
REMARK   15  A    between atoms: C_21  and  C_22
REMARK                            x       y       z     vdW  Elec       q    Type
REMARK                         _______ _______ _______ _____ _____    ______ ____
ROOT
ATOM      1  N   UNL     1       1.185   9.078  19.786  0.00  0.00    +0.000 N 
ATOM      2  C   UNL     1       0.767   9.925  18.862  0.00  0.00    +0.000 A 
ATOM      3  N   UNL     1       1.171   9.924  17.594  0.00  0.00    +0.000 N 
ATOM      4  N   UNL     1      -0.034  10.825  19.414  0.00  0.00    +0.000 N 
ATOM      5  C   UNL     1      -0.171  10.539  20.777  0.00  0.00    +0.000 A 
ATOM      6  C   UNL     1      -0.877  11.171  21.798  0.00  0.00    +0.000 A 
ATOM      7  C   UNL     1      -0.769  10.593  23.074  0.00  0.00    +0.000 A 
ATOM      8  C   UNL     1       0.008   9.442  23.303  0.00  0.00    +0.000 A 
ATOM      9  C   UNL     1       0.714   8.817  22.268  0.00  0.00    +0.000 A 
ATOM     10  C   UNL     1       0.601   9.401  21.010  0.00  0.00    +0.000 A 
ATOM     11  H   UNL     1       1.734   9.169  17.228  0.00  0.00    +0.000 HD
ATOM     12  H   UNL     1       0.988  10.707  16.986  0.00  0.00    +0.000 HD
ENDROOT
BRANCH   1  13
ATOM     13  C   UNL     1       2.172   8.037  19.587  0.00  0.00    +0.000 C 
BRANCH  13  14
ATOM     14  C   UNL     1       2.005   7.383  18.224  0.00  0.00    +0.000 C 
BRANCH  14  15
ATOM     15  C   UNL     1       2.898   6.158  18.078  0.00  0.00    +0.000 C 
BRANCH  15  16
ATOM     16  C   UNL     1       4.107   6.476  17.211  0.00  0.00    +0.000 C 
BRANCH  16  17
ATOM     17  C   UNL     1       5.066   5.309  17.112  0.00  0.00    +0.000 C 
BRANCH  17  18
ATOM     18  C   UNL     1       4.255   4.031  17.235  0.00  0.00    +0.000 C 
BRANCH  18  19
ATOM     19  C   UNL     1       4.602   3.283  18.506  0.00  0.00    +0.000 C 
BRANCH  19  20
ATOM     20  C   UNL     1       3.497   2.286  18.809  0.00  0.00    +0.000 C 
BRANCH  20  21
ATOM     21  C   UNL     1       2.378   2.407  17.790  0.00  0.00    +0.000 C 
BRANCH  21  22
ATOM     22  C   UNL     1       1.096   2.862  18.475  0.00  0.00    +0.000 C 
BRANCH  22  24
ATOM     23  C   UNL     1       1.097   4.214  20.583  0.00  0.00    +0.000 C 
ATOM     24  C   UNL     1       1.260   2.828  19.988  0.00  0.00    +0.000 C 
ENDBRANCH  22  24
ENDBRANCH  21  22
ENDBRANCH  20  21
ENDBRANCH  19  20
ENDBRANCH  18  19
ENDBRANCH  17  18
ENDBRANCH  16  17
ENDBRANCH  15  16
ENDBRANCH  14  15
ENDBRANCH  13  14
ENDBRANCH   1  13
BRANCH   4  25
ATOM     25  C   UNL     1      -0.727  11.900  18.712  0.00  0.00    +0.000 C 
BRANCH  25  26
ATOM     26  C   UNL     1      -2.208  11.635  18.551  0.00  0.00    +0.000 A 
ATOM     27  C   UNL     1      -2.744  10.793  17.563  0.00  0.00    +0.000 A 
ATOM     28  C   UNL     1      -4.123  10.700  17.366  0.00  0.00    +0.000 A 
ATOM     29  C   UNL     1      -4.996  11.446  18.157  0.00  0.00    +0.000 A 
ATOM     30  C   UNL     1      -6.466  11.458  17.864  0.00  0.00    +0.000 C 
ATOM     31  C   UNL     1      -4.479  12.202  19.214  0.00  0.00    +0.000 A 
ATOM     32  C   UNL     1      -3.099  12.296  19.410  0.00  0.00    +0.000 A 
ENDBRANCH  25  26
ENDBRANCH   4  25
TORSDOF 13
ENDMDL
MODEL 7
REMARK VINA RESULT:      -6.3      1.739      2.763
REMARK  Name = 
REMARK  15 active torsions:
REMARK  status: ('A' for Active; 'I' for Inactive)
REMARK    1  A    between atoms: C_1  and  C_2
REMARK    2  A    between atoms: C_2  and  C_3
REMARK    3  A    between atoms: C_3  and  C_4
REMARK    4  A    between atoms: C_4  and  C_5
REMARK    5  A    between atoms: C_5  and  C_6
REMARK    6  A    between atoms: C_6  and  C_7
REMARK    7  A    between atoms: C_7  and  C_8
REMARK    8  A    between atoms: C_8  and  C_9
REMARK    9  A    between atoms: C_9  and  C_10
REMARK   10  A    between atoms: C_10  and  C_11
REMARK   11  A    between atoms: C_11  and  C_12
REMARK   12  A    between atoms: C_12  and  N_13
REMARK   13  A    between atoms: N_16  and  C_17
REMARK   14  A    between atoms: C_17  and  C_18
REMARK   15  A    between atoms: C_21  and  C_22
REMARK                            x       y       z     vdW  Elec       q    Type
REMARK                         _______ _______ _______ _____ _____    ______ ____
ROOT
ATOM      1  N   UNL     1       0.416  10.882  19.357  0.00  0.00    +0.000 N 
ATOM      2  C   UNL     1      -0.327  11.947  19.116  0.00  0.00    +0.000 A 
ATOM      3  N   UNL     1      -0.293  12.656  17.990  0.00  0.00    +0.000 N 
ATOM      4  N   UNL     1      -1.033  12.251  20.196  0.00  0.00    +0.000 N 
ATOM      5  C   UNL     1      -0.755  11.317  21.199  0.00  0.00    +0.000 A 
ATOM      6  C   UNL     1      -1.212  11.188  22.510  0.00  0.00    +0.000 A 
ATOM      7  C   UNL     1      -0.695  10.108  23.242  0.00  0.00    +0.000 A 
ATOM      8  C   UNL     1       0.230   9.206  22.681  0.00  0.00    +0.000 A 
ATOM      9  C   UNL     1       0.682   9.346  21.363  0.00  0.00    +0.000 A 
ATOM     10  C   UNL     1       0.164  10.424  20.649  0.00  0.00    +0.000 A 
ATOM     11  H   UNL     1       0.221  12.328  17.184  0.00  0.00    +0.000 HD
ATOM     12  H   UNL     1      -0.718  13.569  17.933  0.00  0.00    +0.000 HD
ENDROOT
BRANCH   1  13
ATOM     13  C   UNL     1       1.411  10.331  18.461  0.00  0.00    +0.000 C 
BRANCH  13  14
ATOM     14  C   UNL     1       1.156   8.852  18.210  0.00  0.00    +0.000 C 
BRANCH  14  15
ATOM     15  C   UNL     1       2.451   8.100  17.933  0.00  0.00    +0.000 C 
BRANCH  15  16
ATOM     16  C   UNL     1       2.754   7.122  19.059  0.00  0.00    +0.000 C 
BRANCH  16  17
ATOM     17  C   UNL     1       1.940   5.850  18.949  0.00  0.00    +0.000 C 
BRANCH  17  18
ATOM     18  C   UNL     1       2.518   5.027  17.811  0.00  0.00    +0.000 C 
BRANCH  18  19
ATOM     19  C   UNL     1       4.019   4.877  17.953  0.00  0.00    +0.000 C 
BRANCH  19  20
ATOM     20  C   UNL     1       4.638   4.785  16.568  0.00  0.00    +0.000 C 
BRANCH  20  21
ATOM     21  C   UNL     1       5.423   6.045  16.252  0.00  0.00    +0.000 C 
BRANCH  21  22
ATOM     22  C   UNL     1       5.976   6.650  17.535  0.00  0.00    +0.000 C 
BRANCH  22  24
ATOM     23  C   UNL     1       7.832   8.328  17.643  0.00  0.00    +0.000 C 
ATOM     24  C   UNL     1       7.478   6.870  17.415  0.00  0.00    +0.000 C 
ENDBRANCH  22  24
ENDBRANCH  21  22
ENDBRANCH  20  21
ENDBRANCH  19  20
ENDBRANCH  18  19
ENDBRANCH  17  18
ENDBRANCH  16  17
ENDBRANCH  15  16
ENDBRANCH  14  15
ENDBRANCH  13  14
ENDBRANCH   1  13
BRANCH   4  25
ATOM     25  C   UNL     1      -2.000  13.337  20.309  0.00  0.00    +0.000 C 
BRANCH  25  26
ATOM     26  C   UNL     1      -3.432  12.857  20.216  0.00  0.00    +0.000 A 
ATOM     27  C   UNL     1      -4.374  13.016  21.245  0.00  0.00    +0.000 A 
ATOM     28  C   UNL     1      -5.637  12.424  21.165  0.00  0.00    +0.000 A 
ATOM     29  C   UNL     1      -5.984  11.663  20.050  0.00  0.00    +0.000 A 
ATOM     30  C   UNL     1      -7.282  10.914  20.015  0.00  0.00    +0.000 C 
ATOM     31  C   UNL     1      -5.096  11.590  18.972  0.00  0.00    +0.000 A 
ATOM     32  C   UNL     1      -3.832  12.180  19.054  0.00  0.00    +0.000 A 
ENDBRANCH  25  26
ENDBRANCH   4  25
TORSDOF 13
ENDMDL
MODEL 8
REMARK VINA RESULT:      -6.3      2.531      9.014
REMARK  Name = 
REMARK  15 active torsions:
REMARK  status: ('A' for Active; 'I' for Inactive)
REMARK    1  A    between atoms: C_1  and  C_2
REMARK    2  A    between atoms: C_2  and  C_3
REMARK    3  A    between atoms: C_3  and  C_4
REMARK    4  A    between atoms: C_4  and  C_5
REMARK    5  A    between atoms: C_5  and  C_6
REMARK    6  A    between atoms: C_6  and  C_7
REMARK    7  A    between atoms: C_7  and  C_8
REMARK    8  A    between atoms: C_8  and  C_9
REMARK    9  A    between atoms: C_9  and  C_10
REMARK   10  A    between atoms: C_10  and  C_11
REMARK   11  A    between atoms: C_11  and  C_12
REMARK   12  A    between atoms: C_12  and  N_13
REMARK   13  A    between atoms: N_16  and  C_17
REMARK   14  A    between atoms: C_17  and  C_18
REMARK   15  A    between atoms: C_21  and  C_22
REMARK                            x       y       z     vdW  Elec       q    Type
REMARK                         _______ _______ _______ _____ _____    ______ ____
ROOT
ATOM      1  N   UNL     1       2.851   6.038  18.458  0.00  0.00    +0.000 N 
ATOM      2  C   UNL     1       4.086   6.022  17.988  0.00  0.00    +0.000 A 
ATOM      3  N   UNL     1       4.732   7.087  17.519  0.00  0.00    +0.000 N 
ATOM      4  N   UNL     1       4.539   4.777  17.969  0.00  0.00    +0.000 N 
ATOM      5  C   UNL     1       3.552   3.925  18.478  0.00  0.00    +0.000 A 
ATOM      6  C   UNL     1       3.512   2.545  18.661  0.00  0.00    +0.000 A 
ATOM      7  C   UNL     1       2.324   2.026  19.200  0.00  0.00    +0.000 A 
ATOM      8  C   UNL     1       1.238   2.856  19.538  0.00  0.00    +0.000 A 
ATOM      9  C   UNL     1       1.290   4.243  19.349  0.00  0.00    +0.000 A 
ATOM     10  C   UNL     1       2.472   4.744  18.810  0.00  0.00    +0.000 A 
ATOM     11  H   UNL     1       4.349   8.016  17.625  0.00  0.00    +0.000 HD
ATOM     12  H   UNL     1       5.582   6.990  16.986  0.00  0.00    +0.000 HD
ENDROOT
BRANCH   1  13
ATOM     13  C   UNL     1       1.985   7.197  18.507  0.00  0.00    +0.000 C 
BRANCH  13  14
ATOM     14  C   UNL     1       2.223   7.999  19.778  0.00  0.00    +0.000 C 
BRANCH  14  15
ATOM     15  C   UNL     1       1.139   7.737  20.816  0.00  0.00    +0.000 C 
BRANCH  15  16
ATOM     16  C   UNL     1       1.099   8.859  21.843  0.00  0.00    +0.000 C 
BRANCH  16  17
ATOM     17  C   UNL     1      -0.315   9.206  22.259  0.00  0.00    +0.000 C 
BRANCH  17  18
ATOM     18  C   UNL     1      -0.556  10.665  21.911  0.00  0.00    +0.000 C 
BRANCH  18  19
ATOM     19  C   UNL     1       0.244  11.074  20.691  0.00  0.00    +0.000 C 
BRANCH  19  20
ATOM     20  C   UNL     1      -0.712  11.560  19.615  0.00  0.00    +0.000 C 
BRANCH  20  21
ATOM     21  C   UNL     1      -1.224  10.392  18.792  0.00  0.00    +0.000 C 
BRANCH  21  22
ATOM     22  C   UNL     1      -2.630  10.686  18.287  0.00  0.00    +0.000 C 
BRANCH  22  24
ATOM     23  C   UNL     1      -2.613  10.356  15.805  0.00  0.00    +0.000 C 
ATOM     24  C   UNL     1      -2.991   9.749  17.143  0.00  0.00    +0.000 C 
ENDBRANCH  22  24
ENDBRANCH  21  22
ENDBRANCH  20  21
ENDBRANCH  19  20
ENDBRANCH  18  19
ENDBRANCH  17  18
ENDBRANCH  16  17
ENDBRANCH  15  16
ENDBRANCH  14  15
ENDBRANCH  13  14
ENDBRANCH   1  13
BRANCH   4  25
ATOM     25  C   UNL     1       5.873   4.357  17.557  0.00  0.00    +0.000 C 
BRANCH  25  26
ATOM     26  C   UNL     1       6.064   4.405  16.056  0.00  0.00    +0.000 A 
ATOM     27  C   UNL     1       5.164   3.837  15.140  0.00  0.00    +0.000 A 
ATOM     28  C   UNL     1       5.463   3.781  13.776  0.00  0.00    +0.000 A 
ATOM     29  C   UNL     1       6.668   4.296  13.302  0.00  0.00    +0.000 A 
ATOM     30  C   UNL     1       7.057   4.119  11.865  0.00  0.00    +0.000 C 
ATOM     31  C   UNL     1       7.521   4.961  14.189  0.00  0.00    +0.000 A 
ATOM     32  C   UNL     1       7.223   5.015  15.552  0.00  0.00    +0.000 A 
ENDBRANCH  25  26
ENDBRANCH   4  25
TORSDOF 13
ENDMDL
MODEL 9
REMARK VINA RESULT:      -6.2      1.408      3.259
REMARK  Name = 
REMARK  15 active torsions:
REMARK  status: ('A' for Active; 'I' for Inactive)
REMARK    1  A    between atoms: C_1  and  C_2
REMARK    2  A    between atoms: C_2  and  C_3
REMARK    3  A    between atoms: C_3  and  C_4
REMARK    4  A    between atoms: C_4  and  C_5
REMARK    5  A    between atoms: C_5  and  C_6
REMARK    6  A    between atoms: C_6  and  C_7
REMARK    7  A    between atoms: C_7  and  C_8
REMARK    8  A    between atoms: C_8  and  C_9
REMARK    9  A    between atoms: C_9  and  C_10
REMARK   10  A    between atoms: C_10  and  C_11
REMARK   11  A    between atoms: C_11  and  C_12
REMARK   12  A    between atoms: C_12  and  N_13
REMARK   13  A    between atoms: N_16  and  C_17
REMARK   14  A    between atoms: C_17  and  C_18
REMARK   15  A    between atoms: C_21  and  C_22
REMARK                            x       y       z     vdW  Elec       q    Type
REMARK                         _______ _______ _______ _____ _____    ______ ____
ROOT
ATOM      1  N   UNL     1       0.739  10.976  19.413  0.00  0.00    +0.000 N 
ATOM      2  C   UNL     1      -0.059  11.992  19.135  0.00  0.00    +0.000 A 
ATOM      3  N   UNL     1      -0.011  12.709  18.015  0.00  0.00    +0.000 N 
ATOM      4  N   UNL     1      -0.840  12.241  20.176  0.00  0.00    +0.000 N 
ATOM      5  C   UNL     1      -0.556  11.320  21.191  0.00  0.00    +0.000 A 
ATOM      6  C   UNL     1      -1.073  11.153  22.474  0.00  0.00    +0.000 A 
ATOM      7  C   UNL     1      -0.525  10.103  23.229  0.00  0.00    +0.000 A 
ATOM      8  C   UNL     1       0.486   9.269  22.716  0.00  0.00    +0.000 A 
ATOM      9  C   UNL     1       0.998   9.447  21.425  0.00  0.00    +0.000 A 
ATOM     10  C   UNL     1       0.449  10.494  20.688  0.00  0.00    +0.000 A 
ATOM     11  H   UNL     1       0.566  12.421  17.237  0.00  0.00    +0.000 HD
ATOM     12  H   UNL     1      -0.492  13.592  17.939  0.00  0.00    +0.000 HD
ENDROOT
BRANCH   1  13
ATOM     13  C   UNL     1       1.815  10.498  18.570  0.00  0.00    +0.000 C 
BRANCH  13  14
ATOM     14  C   UNL     1       1.434   9.191  17.892  0.00  0.00    +0.000 C 
BRANCH  14  15
ATOM     15  C   UNL     1       2.153   8.003  18.521  0.00  0.00    +0.000 C 
BRANCH  15  16
ATOM     16  C   UNL     1       3.350   7.594  17.676  0.00  0.00    +0.000 C 
BRANCH  16  17
ATOM     17  C   UNL     1       3.402   6.100  17.437  0.00  0.00    +0.000 C 
BRANCH  17  18
ATOM     18  C   UNL     1       4.779   5.612  17.850  0.00  0.00    +0.000 C 
BRANCH  18  19
ATOM     19  C   UNL     1       4.848   5.371  19.344  0.00  0.00    +0.000 C 
BRANCH  19  20
ATOM     20  C   UNL     1       3.982   4.171  19.690  0.00  0.00    +0.000 C 
BRANCH  20  21
ATOM     21  C   UNL     1       2.763   4.607  20.482  0.00  0.00    +0.000 C 
BRANCH  21  22
ATOM     22  C   UNL     1       1.943   3.390  20.890  0.00  0.00    +0.000 C 
BRANCH  22  24
ATOM     23  C   UNL     1       0.957   2.440  18.793  0.00  0.00    +0.000 C 
ATOM     24  C   UNL     1       0.692   3.279  20.029  0.00  0.00    +0.000 C 
ENDBRANCH  22  24
ENDBRANCH  21  22
ENDBRANCH  20  21
ENDBRANCH  19  20
ENDBRANCH  18  19
ENDBRANCH  17  18
ENDBRANCH  16  17
ENDBRANCH  15  16
ENDBRANCH  14  15
ENDBRANCH  13  14
ENDBRANCH   1  13
BRANCH   4  25
ATOM     25  C   UNL     1      -1.882  13.260  20.241  0.00  0.00    +0.000 C 
BRANCH  25  26
ATOM     26  C   UNL     1      -3.274  12.684  20.102  0.00  0.00    +0.000 A 
ATOM     27  C   UNL     1      -3.737  12.041  18.943  0.00  0.00    +0.000 A 
ATOM     28  C   UNL     1      -5.074  11.659  18.815  0.00  0.00    +0.000 A 
ATOM     29  C   UNL     1      -5.976  11.911  19.847  0.00  0.00    +0.000 A 
ATOM     30  C   UNL     1      -7.437  11.630  19.667  0.00  0.00    +0.000 C 
ATOM     31  C   UNL     1      -5.503  12.451  21.049  0.00  0.00    +0.000 A 
ATOM     32  C   UNL     1      -4.166  12.833  21.175  0.00  0.00    +0.000 A 
ENDBRANCH  25  26
ENDBRANCH   4  25
TORSDOF 13
ENDMDL
