MODEL 1
REMARK VINA RESULT:      -8.5      0.000      0.000
REMARK  Name = 
REMARK  6 active torsions:
REMARK  status: ('A' for Active; 'I' for Inactive)
REMARK    1  A    between atoms: C_2  and  C_3
REMARK    2  A    between atoms: C_3  and  O_4
REMARK    3  A    between atoms: O_4  and  C_5
REMARK    4  A    between atoms: C_14  and  C_15
REMARK    5  A    between atoms: C_16  and  C_17
REMARK    6  A    between atoms: C_17  and  C_19
REMARK                            x       y       z     vdW  Elec       q    Type
REMARK                         _______ _______ _______ _____ _____    ______ ____
ROOT
ATOM      1  C   UNL     1       4.245   5.189  17.081  0.00  0.00    +0.000 A 
ATOM      2  C   UNL     1       4.368   3.820  16.819  0.00  0.00    +0.000 A 
ATOM      3  C   UNL     1       3.697   2.892  17.601  0.00  0.00    +0.000 A 
ATOM      4  C   UNL     1       2.875   3.305  18.649  0.00  0.00    +0.000 A 
ATOM      5  C   UNL     1       2.273   2.327  19.456  0.00  0.00    +0.000 A 
ATOM      6  C   UNL     1       1.450   2.681  20.519  0.00  0.00    +0.000 A 
ATOM      7  C   UNL     1       1.204   4.022  20.771  0.00  0.00    +0.000 A 
ATOM      8  C   UNL     1       1.788   5.008  19.965  0.00  0.00    +0.000 A 
ATOM      9  C   UNL     1       2.658   4.690  18.890  0.00  0.00    +0.000 A 
ATOM     10  C   UNL     1       3.328   5.655  18.058  0.00  0.00    +0.000 A 
ENDROOT
BRANCH  10  11
ATOM     11  C   UNL     1       3.111   7.114  18.290  0.00  0.00    +0.000 C 
ATOM     12  C   UNL     1       2.058   7.810  17.833  0.00  0.00    +0.000 C 
BRANCH  12  13
ATOM     13  C   UNL     1       1.923   9.275  18.082  0.00  0.00    +0.000 C 
ATOM     14  O   UNL     1       2.443  10.115  17.359  0.00  0.00    +0.000 OA
BRANCH  13  15
ATOM     15  C   UNL     1       1.145   9.671  19.291  0.00  0.00    +0.000 A 
ATOM     16  C   UNL     1       0.428  10.876  19.294  0.00  0.00    +0.000 A 
ATOM     17  C   UNL     1      -0.297  11.257  20.431  0.00  0.00    +0.000 A 
ATOM     18  C   UNL     1      -0.315  10.425  21.553  0.00  0.00    +0.000 A 
ATOM     19 BR   UNL     1      -1.289  10.935  23.091  0.00  0.00    +0.000 Br
ATOM     20  C   UNL     1       0.376   9.217  21.549  0.00  0.00    +0.000 A 
ATOM     21  C   UNL     1       1.097   8.836  20.419  0.00  0.00    +0.000 A 
ENDBRANCH  13  15
ENDBRANCH  12  13
ENDBRANCH  10  11
BRANCH   1  22
ATOM     22  O   UNL     1       5.019   6.107  16.402  0.00  0.00    +0.000 OA
BRANCH  22  23
ATOM     23  C   UNL     1       6.407   5.764  16.304  0.00  0.00    +0.000 C 
BRANCH  23  25
ATOM     24  C   UNL     1       7.758   6.624  18.436  0.00  0.00    +0.000 C 
ATOM     25  C   UNL     1       7.122   6.243  17.494  0.00  0.00    +0.000 C 
ENDBRANCH  23  25
ENDBRANCH  22  23
ENDBRANCH   1  22
TORSDOF 6
ENDMDL
MODEL 2
REMARK VINA RESULT:      -8.0      0.763      1.630
REMARK  Name = 
REMARK  6 active torsions:
REMARK  status: ('A' for Active; 'I' for Inactive)
REMARK    1  A    between atoms: C_2  and  C_3
REMARK    2  A    between atoms: C_3  and  O_4
REMARK    3  A    between atoms: O_4  and  C_5
REMARK    4  A    between atoms: C_14  and  C_15
REMARK    5  A    between atoms: C_16  and  C_17
REMARK    6  A    between atoms: C_17  and  C_19
REMARK                            x       y       z     vdW  Elec       q    Type
REMARK                         _______ _______ _______ _____ _____    ______ ____
ROOT
ATOM      1  C   UNL     1       4.244   4.929  17.071  0.00  0.00    +0.000 A 
ATOM      2  C   UNL     1       4.353   3.546  16.896  0.00  0.00    +0.000 A 
ATOM      3  C   UNL     1       3.683   2.675  17.742  0.00  0.00    +0.000 A 
ATOM      4  C   UNL     1       2.874   3.161  18.769  0.00  0.00    +0.000 A 
ATOM      5  C   UNL     1       2.273   2.241  19.642  0.00  0.00    +0.000 A 
ATOM      6  C   UNL     1       1.464   2.670  20.689  0.00  0.00    +0.000 A 
ATOM      7  C   UNL     1       1.232   4.026  20.857  0.00  0.00    +0.000 A 
ATOM      8  C   UNL     1       1.814   4.953  19.984  0.00  0.00    +0.000 A 
ATOM      9  C   UNL     1       2.671   4.560  18.923  0.00  0.00    +0.000 A 
ATOM     10  C   UNL     1       3.341   5.464  18.025  0.00  0.00    +0.000 A 
ENDROOT
BRANCH  10  11
ATOM     11  C   UNL     1       3.137   6.937  18.165  0.00  0.00    +0.000 C 
ATOM     12  C   UNL     1       1.974   7.570  17.946  0.00  0.00    +0.000 C 
BRANCH  12  13
ATOM     13  C   UNL     1       1.855   9.052  18.080  0.00  0.00    +0.000 C 
ATOM     14  O   UNL     1       2.360   9.827  17.278  0.00  0.00    +0.000 OA
BRANCH  13  15
ATOM     15  C   UNL     1       1.112   9.550  19.274  0.00  0.00    +0.000 A 
ATOM     16  C   UNL     1       1.066   8.771  20.439  0.00  0.00    +0.000 A 
ATOM     17  C   UNL     1       0.361   9.230  21.560  0.00  0.00    +0.000 A 
ATOM     18  C   UNL     1      -0.278  10.471  21.517  0.00  0.00    +0.000 A 
ATOM     19 BR   UNL     1      -1.232  11.094  23.026  0.00  0.00    +0.000 Br
ATOM     20  C   UNL     1      -0.218  11.259  20.372  0.00  0.00    +0.000 A 
ATOM     21  C   UNL     1       0.483  10.804  19.256  0.00  0.00    +0.000 A 
ENDBRANCH  13  15
ENDBRANCH  12  13
ENDBRANCH  10  11
BRANCH   1  22
ATOM     22  O   UNL     1       5.017   5.796  16.327  0.00  0.00    +0.000 OA
BRANCH  22  23
ATOM     23  C   UNL     1       6.339   5.321  16.040  0.00  0.00    +0.000 C 
BRANCH  23  25
ATOM     24  C   UNL     1       6.336   4.099  13.670  0.00  0.00    +0.000 C 
ATOM     25  C   UNL     1       6.345   4.619  14.749  0.00  0.00    +0.000 C 
ENDBRANCH  23  25
ENDBRANCH  22  23
ENDBRANCH   1  22
TORSDOF 6
ENDMDL
MODEL 3
REMARK VINA RESULT:      -8.0      1.092      1.466
REMARK  Name = 
REMARK  6 active torsions:
REMARK  status: ('A' for Active; 'I' for Inactive)
REMARK    1  A    between atoms: C_2  and  C_3
REMARK    2  A    between atoms: C_3  and  O_4
REMARK    3  A    between atoms: O_4  and  C_5
REMARK    4  A    between atoms: C_14  and  C_15
REMARK    5  A    between atoms: C_16  and  C_17
REMARK    6  A    between atoms: C_17  and  C_19
REMARK                            x       y       z     vdW  Elec       q    Type
REMARK                         _______ _______ _______ _____ _____    ______ ____
ROOT
ATOM      1  C   UNL     1       4.711   5.652  18.060  0.00  0.00    +0.000 A 
ATOM      2  C   UNL     1       5.469   4.508  18.333  0.00  0.00    +0.000 A 
ATOM      3  C   UNL     1       4.961   3.506  19.147  0.00  0.00    +0.000 A 
ATOM      4  C   UNL     1       3.681   3.612  19.691  0.00  0.00    +0.000 A 
ATOM      5  C   UNL     1       3.239   2.606  20.565  0.00  0.00    +0.000 A 
ATOM      6  C   UNL     1       1.976   2.663  21.143  0.00  0.00    +0.000 A 
ATOM      7  C   UNL     1       1.133   3.720  20.833  0.00  0.00    +0.000 A 
ATOM      8  C   UNL     1       1.558   4.723  19.952  0.00  0.00    +0.000 A 
ATOM      9  C   UNL     1       2.850   4.718  19.365  0.00  0.00    +0.000 A 
ATOM     10  C   UNL     1       3.364   5.743  18.495  0.00  0.00    +0.000 A 
ENDROOT
BRANCH  10  11
ATOM     11  C   UNL     1       2.507   6.911  18.135  0.00  0.00    +0.000 C 
ATOM     12  C   UNL     1       2.348   8.004  18.898  0.00  0.00    +0.000 C 
BRANCH  12  13
ATOM     13  C   UNL     1       1.451   9.123  18.483  0.00  0.00    +0.000 C 
ATOM     14  O   UNL     1       1.369   9.503  17.323  0.00  0.00    +0.000 OA
BRANCH  13  15
ATOM     15  C   UNL     1       0.677   9.787  19.571  0.00  0.00    +0.000 A 
ATOM     16  C   UNL     1       0.731   9.276  20.876  0.00  0.00    +0.000 A 
ATOM     17  C   UNL     1      -0.003   9.892  21.900  0.00  0.00    +0.000 A 
ATOM     18  C   UNL     1      -0.772  11.022  21.619  0.00  0.00    +0.000 A 
ATOM     19 BR   UNL     1      -1.765  11.855  22.995  0.00  0.00    +0.000 Br
ATOM     20  C   UNL     1      -0.812  11.549  20.331  0.00  0.00    +0.000 A 
ATOM     21  C   UNL     1      -0.083  10.938  19.311  0.00  0.00    +0.000 A 
ENDBRANCH  13  15
ENDBRANCH  12  13
ENDBRANCH  10  11
BRANCH   1  22
ATOM     22  O   UNL     1       5.262   6.713  17.372  0.00  0.00    +0.000 OA
BRANCH  22  23
ATOM     23  C   UNL     1       6.622   6.519  16.964  0.00  0.00    +0.000 C 
BRANCH  23  25
ATOM     24  C   UNL     1       8.108   8.517  17.918  0.00  0.00    +0.000 C 
ATOM     25  C   UNL     1       7.461   7.597  17.504  0.00  0.00    +0.000 C 
ENDBRANCH  23  25
ENDBRANCH  22  23
ENDBRANCH   1  22
TORSDOF 6
ENDMDL
MODEL 4
REMARK VINA RESULT:      -7.9      1.181      1.583
REMARK  Name = 
REMARK  6 active torsions:
REMARK  status: ('A' for Active; 'I' for Inactive)
REMARK    1  A    between atoms: C_2  and  C_3
REMARK    2  A    between atoms: C_3  and  O_4
REMARK    3  A    between atoms: O_4  and  C_5
REMARK    4  A    between atoms: C_14  and  C_15
REMARK    5  A    between atoms: C_16  and  C_17
REMARK    6  A    between atoms: C_17  and  C_19
REMARK                            x       y       z     vdW  Elec       q    Type
REMARK                         _______ _______ _______ _____ _____    ______ ____
ROOT
ATOM      1  C   UNL     1       5.484   6.059  17.402  0.00  0.00    +0.000 A 
ATOM      2  C   UNL     1       6.142   4.825  17.369  0.00  0.00    +0.000 A 
ATOM      3  C   UNL     1       5.434   3.645  17.548  0.00  0.00    +0.000 A 
ATOM      4  C   UNL     1       4.053   3.667  17.743  0.00  0.00    +0.000 A 
ATOM      5  C   UNL     1       3.391   2.453  17.989  0.00  0.00    +0.000 A 
ATOM      6  C   UNL     1       2.018   2.416  18.199  0.00  0.00    +0.000 A 
ATOM      7  C   UNL     1       1.289   3.594  18.142  0.00  0.00    +0.000 A 
ATOM      8  C   UNL     1       1.935   4.809  17.884  0.00  0.00    +0.000 A 
ATOM      9  C   UNL     1       3.339   4.896  17.695  0.00  0.00    +0.000 A 
ATOM     10  C   UNL     1       4.069   6.117  17.478  0.00  0.00    +0.000 A 
ENDROOT
BRANCH  10  11
ATOM     11  C   UNL     1       3.339   7.418  17.419  0.00  0.00    +0.000 C 
ATOM     12  C   UNL     1       2.533   7.885  18.386  0.00  0.00    +0.000 C 
BRANCH  12  13
ATOM     13  C   UNL     1       1.814   9.185  18.243  0.00  0.00    +0.000 C 
ATOM     14  O   UNL     1       1.880   9.864  17.227  0.00  0.00    +0.000 OA
BRANCH  13  15
ATOM     15  C   UNL     1       1.031   9.641  19.428  0.00  0.00    +0.000 A 
ATOM     16  C   UNL     1       0.173  10.744  19.313  0.00  0.00    +0.000 A 
ATOM     17  C   UNL     1      -0.558  11.182  20.426  0.00  0.00    +0.000 A 
ATOM     18  C   UNL     1      -0.442  10.506  21.641  0.00  0.00    +0.000 A 
ATOM     19 BR   UNL     1      -1.423  11.093  23.146  0.00  0.00    +0.000 Br
ATOM     20  C   UNL     1       0.390   9.396  21.758  0.00  0.00    +0.000 A 
ATOM     21  C   UNL     1       1.118   8.958  20.651  0.00  0.00    +0.000 A 
ENDBRANCH  13  15
ENDBRANCH  12  13
ENDBRANCH  10  11
BRANCH   1  22
ATOM     22  O   UNL     1       6.199   7.238  17.368  0.00  0.00    +0.000 OA
BRANCH  22  23
ATOM     23  C   UNL     1       7.586   7.106  17.702  0.00  0.00    +0.000 C 
BRANCH  23  25
ATOM     24  C   UNL     1       8.586   9.510  18.277  0.00  0.00    +0.000 C 
ATOM     25  C   UNL     1       8.140   8.421  18.051  0.00  0.00    +0.000 C 
ENDBRANCH  23  25
ENDBRANCH  22  23
ENDBRANCH   1  22
TORSDOF 6
ENDMDL
MODEL 5
REMARK VINA RESULT:      -7.9      1.383      3.871
REMARK  Name = 
REMARK  6 active torsions:
REMARK  status: ('A' for Active; 'I' for Inactive)
REMARK    1  A    between atoms: C_2  and  C_3
REMARK    2  A    between atoms: C_3  and  O_4
REMARK    3  A    between atoms: O_4  and  C_5
REMARK    4  A    between atoms: C_14  and  C_15
REMARK    5  A    between atoms: C_16  and  C_17
REMARK    6  A    between atoms: C_17  and  C_19
REMARK                            x       y       z     vdW  Elec       q    Type
REMARK                         _______ _______ _______ _____ _____    ______ ____
ROOT
ATOM      1  C   UNL     1       2.809   4.707  18.578  0.00  0.00    +0.000 A 
ATOM      2  C   UNL     1       3.145   3.361  18.402  0.00  0.00    +0.000 A 
ATOM      3  C   UNL     1       4.081   2.989  17.448  0.00  0.00    +0.000 A 
ATOM      4  C   UNL     1       4.715   3.950  16.661  0.00  0.00    +0.000 A 
ATOM      5  C   UNL     1       5.602   3.519  15.661  0.00  0.00    +0.000 A 
ATOM      6  C   UNL     1       6.256   4.432  14.842  0.00  0.00    +0.000 A 
ATOM      7  C   UNL     1       6.045   5.789  15.032  0.00  0.00    +0.000 A 
ATOM      8  C   UNL     1       5.173   6.232  16.035  0.00  0.00    +0.000 A 
ATOM      9  C   UNL     1       4.462   5.333  16.872  0.00  0.00    +0.000 A 
ATOM     10  C   UNL     1       3.516   5.722  17.884  0.00  0.00    +0.000 A 
ENDROOT
BRANCH  10  11
ATOM     11  C   UNL     1       3.238   7.169  18.125  0.00  0.00    +0.000 C 
ATOM     12  C   UNL     1       2.099   7.794  17.789  0.00  0.00    +0.000 C 
BRANCH  12  13
ATOM     13  C   UNL     1       1.905   9.252  18.039  0.00  0.00    +0.000 C 
ATOM     14  O   UNL     1       2.366  10.112  17.299  0.00  0.00    +0.000 OA
BRANCH  13  15
ATOM     15  C   UNL     1       1.144   9.617  19.268  0.00  0.00    +0.000 A 
ATOM     16  C   UNL     1       0.374  10.789  19.289  0.00  0.00    +0.000 A 
ATOM     17  C   UNL     1      -0.336  11.141  20.446  0.00  0.00    +0.000 A 
ATOM     18  C   UNL     1      -0.286  10.312  21.568  0.00  0.00    +0.000 A 
ATOM     19 BR   UNL     1      -1.239  10.783  23.132  0.00  0.00    +0.000 Br
ATOM     20  C   UNL     1       0.458   9.136  21.548  0.00  0.00    +0.000 A 
ATOM     21  C   UNL     1       1.164   8.784  20.398  0.00  0.00    +0.000 A 
ENDBRANCH  13  15
ENDBRANCH  12  13
ENDBRANCH  10  11
BRANCH   1  22
ATOM     22  O   UNL     1       1.779   5.070  19.422  0.00  0.00    +0.000 OA
BRANCH  22  23
ATOM     23  C   UNL     1       2.092   4.985  20.818  0.00  0.00    +0.000 C 
BRANCH  23  25
ATOM     24  C   UNL     1       1.482   2.539  21.690  0.00  0.00    +0.000 C 
ATOM     25  C   UNL     1       1.787   3.636  21.313  0.00  0.00    +0.000 C 
ENDBRANCH  23  25
ENDBRANCH  22  23
ENDBRANCH   1  22
TORSDOF 6
ENDMDL
MODEL 6
REMARK VINA RESULT:      -7.8      1.619      1.924
REMARK  Name = 
REMARK  6 active torsions:
REMARK  status: ('A' for Active; 'I' for Inactive)
REMARK    1  A    between atoms: C_2  and  C_3
REMARK    2  A    between atoms: C_3  and  O_4
REMARK    3  A    between atoms: O_4  and  C_5
REMARK    4  A    between atoms: C_14  and  C_15
REMARK    5  A    between atoms: C_16  and  C_17
REMARK    6  A    between atoms: C_17  and  C_19
REMARK                            x       y       z     vdW  Elec       q    Type
REMARK                         _______ _______ _______ _____ _____    ______ ____
ROOT
ATOM      1  C   UNL     1       4.151   5.525  17.100  0.00  0.00    +0.000 A 
ATOM      2  C   UNL     1       4.329   4.162  16.839  0.00  0.00    +0.000 A 
ATOM      3  C   UNL     1       3.647   3.209  17.581  0.00  0.00    +0.000 A 
ATOM      4  C   UNL     1       2.761   3.591  18.587  0.00  0.00    +0.000 A 
ATOM      5  C   UNL     1       2.149   2.590  19.358  0.00  0.00    +0.000 A 
ATOM      6  C   UNL     1       1.263   2.912  20.379  0.00  0.00    +0.000 A 
ATOM      7  C   UNL     1       0.963   4.244  20.625  0.00  0.00    +0.000 A 
ATOM      8  C   UNL     1       1.556   5.251  19.854  0.00  0.00    +0.000 A 
ATOM      9  C   UNL     1       2.490   4.967  18.823  0.00  0.00    +0.000 A 
ATOM     10  C   UNL     1       3.172   5.957  18.031  0.00  0.00    +0.000 A 
ENDROOT
BRANCH  10  11
ATOM     11  C   UNL     1       2.898   7.407  18.258  0.00  0.00    +0.000 C 
ATOM     12  C   UNL     1       1.831   8.065  17.779  0.00  0.00    +0.000 C 
BRANCH  12  13
ATOM     13  C   UNL     1       1.639   9.525  18.025  0.00  0.00    +0.000 C 
ATOM     14  O   UNL     1       2.580  10.297  18.161  0.00  0.00    +0.000 OA
BRANCH  13  15
ATOM     15  C   UNL     1       0.229   9.997  18.136  0.00  0.00    +0.000 A 
ATOM     16  C   UNL     1      -0.736   9.523  17.236  0.00  0.00    +0.000 A 
ATOM     17  C   UNL     1      -2.061   9.971  17.330  0.00  0.00    +0.000 A 
ATOM     18  C   UNL     1      -2.418  10.875  18.333  0.00  0.00    +0.000 A 
ATOM     19 BR   UNL     1      -4.203  11.485  18.463  0.00  0.00    +0.000 Br
ATOM     20  C   UNL     1      -1.470  11.332  19.244  0.00  0.00    +0.000 A 
ATOM     21  C   UNL     1      -0.152  10.888  19.152  0.00  0.00    +0.000 A 
ENDBRANCH  13  15
ENDBRANCH  12  13
ENDBRANCH  10  11
BRANCH   1  22
ATOM     22  O   UNL     1       4.929   6.470  16.465  0.00  0.00    +0.000 OA
BRANCH  22  23
ATOM     23  C   UNL     1       6.288   6.073  16.241  0.00  0.00    +0.000 C 
BRANCH  23  25
ATOM     24  C   UNL     1       7.822   6.938  18.243  0.00  0.00    +0.000 C 
ATOM     25  C   UNL     1       7.128   6.520  17.360  0.00  0.00    +0.000 C 
ENDBRANCH  23  25
ENDBRANCH  22  23
ENDBRANCH   1  22
TORSDOF 6
ENDMDL
MODEL 7
REMARK VINA RESULT:      -7.8      1.694      1.977
REMARK  Name = 
REMARK  6 active torsions:
REMARK  status: ('A' for Active; 'I' for Inactive)
REMARK    1  A    between atoms: C_2  and  C_3
REMARK    2  A    between atoms: C_3  and  O_4
REMARK    3  A    between atoms: O_4  and  C_5
REMARK    4  A    between atoms: C_14  and  C_15
REMARK    5  A    between atoms: C_16  and  C_17
REMARK    6  A    between atoms: C_17  and  C_19
REMARK                            x       y       z     vdW  Elec       q    Type
REMARK                         _______ _______ _______ _____ _____    ______ ____
ROOT
ATOM      1  C   UNL     1       4.272   5.631  17.188  0.00  0.00    +0.000 A 
ATOM      2  C   UNL     1       4.478   4.275  16.910  0.00  0.00    +0.000 A 
ATOM      3  C   UNL     1       3.772   3.301  17.601  0.00  0.00    +0.000 A 
ATOM      4  C   UNL     1       2.834   3.655  18.570  0.00  0.00    +0.000 A 
ATOM      5  C   UNL     1       2.197   2.634  19.292  0.00  0.00    +0.000 A 
ATOM      6  C   UNL     1       1.259   2.928  20.275  0.00  0.00    +0.000 A 
ATOM      7  C   UNL     1       0.933   4.251  20.530  0.00  0.00    +0.000 A 
ATOM      8  C   UNL     1       1.551   5.279  19.807  0.00  0.00    +0.000 A 
ATOM      9  C   UNL     1       2.536   5.024  18.818  0.00  0.00    +0.000 A 
ATOM     10  C   UNL     1       3.244   6.035  18.078  0.00  0.00    +0.000 A 
ENDROOT
BRANCH  10  11
ATOM     11  C   UNL     1       2.944   7.478  18.317  0.00  0.00    +0.000 C 
ATOM     12  C   UNL     1       1.889   8.132  17.806  0.00  0.00    +0.000 C 
BRANCH  12  13
ATOM     13  C   UNL     1       1.670   9.585  18.069  0.00  0.00    +0.000 C 
ATOM     14  O   UNL     1       2.594  10.367  18.252  0.00  0.00    +0.000 OA
BRANCH  13  15
ATOM     15  C   UNL     1       0.250  10.038  18.134  0.00  0.00    +0.000 A 
ATOM     16  C   UNL     1      -0.120  11.040  19.043  0.00  0.00    +0.000 A 
ATOM     17  C   UNL     1      -1.455  11.461  19.115  0.00  0.00    +0.000 A 
ATOM     18  C   UNL     1      -2.408  10.893  18.268  0.00  0.00    +0.000 A 
ATOM     19 BR   UNL     1      -4.210  11.457  18.362  0.00  0.00    +0.000 Br
ATOM     20  C   UNL     1      -2.044   9.914  17.348  0.00  0.00    +0.000 A 
ATOM     21  C   UNL     1      -0.717   9.494  17.274  0.00  0.00    +0.000 A 
ENDBRANCH  13  15
ENDBRANCH  12  13
ENDBRANCH  10  11
BRANCH   1  22
ATOM     22  O   UNL     1       5.069   6.596  16.608  0.00  0.00    +0.000 OA
BRANCH  22  23
ATOM     23  C   UNL     1       6.466   6.279  16.579  0.00  0.00    +0.000 C 
BRANCH  23  25
ATOM     24  C   UNL     1       7.864   8.195  17.799  0.00  0.00    +0.000 C 
ATOM     25  C   UNL     1       7.233   7.354  17.224  0.00  0.00    +0.000 C 
ENDBRANCH  23  25
ENDBRANCH  22  23
ENDBRANCH   1  22
TORSDOF 6
ENDMDL
MODEL 8
REMARK VINA RESULT:      -7.6      1.085      1.746
REMARK  Name = 
REMARK  6 active torsions:
REMARK  status: ('A' for Active; 'I' for Inactive)
REMARK    1  A    between atoms: C_2  and  C_3
REMARK    2  A    between atoms: C_3  and  O_4
REMARK    3  A    between atoms: O_4  and  C_5
REMARK    4  A    between atoms: C_14  and  C_15
REMARK    5  A    between atoms: C_16  and  C_17
REMARK    6  A    between atoms: C_17  and  C_19
REMARK                            x       y       z     vdW  Elec       q    Type
REMARK                         _______ _______ _______ _____ _____    ______ ____
ROOT
ATOM      1  C   UNL     1       4.764   5.398  18.143  0.00  0.00    +0.000 A 
ATOM      2  C   UNL     1       5.453   4.219  18.444  0.00  0.00    +0.000 A 
ATOM      3  C   UNL     1       4.880   3.261  19.268  0.00  0.00    +0.000 A 
ATOM      4  C   UNL     1       3.602   3.447  19.794  0.00  0.00    +0.000 A 
ATOM      5  C   UNL     1       3.093   2.483  20.678  0.00  0.00    +0.000 A 
ATOM      6  C   UNL     1       1.829   2.621  21.239  0.00  0.00    +0.000 A 
ATOM      7  C   UNL     1       1.051   3.718  20.901  0.00  0.00    +0.000 A 
ATOM      8  C   UNL     1       1.542   4.680  20.010  0.00  0.00    +0.000 A 
ATOM      9  C   UNL     1       2.838   4.593  19.439  0.00  0.00    +0.000 A 
ATOM     10  C   UNL     1       3.419   5.572  18.559  0.00  0.00    +0.000 A 
ENDROOT
BRANCH  10  11
ATOM     11  C   UNL     1       2.634   6.780  18.169  0.00  0.00    +0.000 C 
ATOM     12  C   UNL     1       2.432   7.846  18.960  0.00  0.00    +0.000 C 
BRANCH  12  13
ATOM     13  C   UNL     1       1.610   9.008  18.509  0.00  0.00    +0.000 C 
ATOM     14  O   UNL     1       1.611   9.403  17.350  0.00  0.00    +0.000 OA
BRANCH  13  15
ATOM     15  C   UNL     1       0.807   9.697  19.560  0.00  0.00    +0.000 A 
ATOM     16  C   UNL     1       0.682   9.118  20.832  0.00  0.00    +0.000 A 
ATOM     17  C   UNL     1      -0.080   9.757  21.820  0.00  0.00    +0.000 A 
ATOM     18  C   UNL     1      -0.699  10.976  21.538  0.00  0.00    +0.000 A 
ATOM     19 BR   UNL     1      -1.730  11.841  22.866  0.00  0.00    +0.000 Br
ATOM     20  C   UNL     1      -0.561  11.568  20.286  0.00  0.00    +0.000 A 
ATOM     21  C   UNL     1       0.197  10.934  19.302  0.00  0.00    +0.000 A 
ENDBRANCH  13  15
ENDBRANCH  12  13
ENDBRANCH  10  11
BRANCH   1  22
ATOM     22  O   UNL     1       5.383   6.415  17.444  0.00  0.00    +0.000 OA
BRANCH  22  23
ATOM     23  C   UNL     1       6.499   6.000  16.647  0.00  0.00    +0.000 C 
BRANCH  23  25
ATOM     24  C   UNL     1       5.593   4.671  14.520  0.00  0.00    +0.000 C 
ATOM     25  C   UNL     1       6.020   5.286  15.456  0.00  0.00    +0.000 C 
ENDBRANCH  23  25
ENDBRANCH  22  23
ENDBRANCH   1  22
TORSDOF 6
ENDMDL
MODEL 9
REMARK VINA RESULT:      -7.5      1.507      4.002
REMARK  Name = 
REMARK  6 active torsions:
REMARK  status: ('A' for Active; 'I' for Inactive)
REMARK    1  A    between atoms: C_2  and  C_3
REMARK    2  A    between atoms: C_3  and  O_4
REMARK    3  A    between atoms: O_4  and  C_5
REMARK    4  A    between atoms: C_14  and  C_15
REMARK    5  A    between atoms: C_16  and  C_17
REMARK    6  A    between atoms: C_17  and  C_19
REMARK                            x       y       z     vdW  Elec       q    Type
REMARK                         _______ _______ _______ _____ _____    ______ ____
ROOT
ATOM      1  C   UNL     1       3.558   5.065  19.283  0.00  0.00    +0.000 A 
ATOM      2  C   UNL     1       4.070   3.763  19.279  0.00  0.00    +0.000 A 
ATOM      3  C   UNL     1       4.804   3.300  18.196  0.00  0.00    +0.000 A 
ATOM      4  C   UNL     1       5.059   4.127  17.103  0.00  0.00    +0.000 A 
ATOM      5  C   UNL     1       5.745   3.591  16.002  0.00  0.00    +0.000 A 
ATOM      6  C   UNL     1       6.020   4.367  14.882  0.00  0.00    +0.000 A 
ATOM      7  C   UNL     1       5.629   5.697  14.863  0.00  0.00    +0.000 A 
ATOM      8  C   UNL     1       4.956   6.247  15.961  0.00  0.00    +0.000 A 
ATOM      9  C   UNL     1       4.628   5.482  17.110  0.00  0.00    +0.000 A 
ATOM     10  C   UNL     1       3.895   5.974  18.247  0.00  0.00    +0.000 A 
ENDROOT
BRANCH  10  11
ATOM     11  C   UNL     1       3.437   7.394  18.278  0.00  0.00    +0.000 C 
ATOM     12  C   UNL     1       2.157   7.785  18.182  0.00  0.00    +0.000 C 
BRANCH  12  13
ATOM     13  C   UNL     1       1.778   9.229  18.194  0.00  0.00    +0.000 C 
ATOM     14  O   UNL     1       2.098   9.999  17.298  0.00  0.00    +0.000 OA
BRANCH  13  15
ATOM     15  C   UNL     1       1.012   9.701  19.383  0.00  0.00    +0.000 A 
ATOM     16  C   UNL     1       0.958   8.906  20.537  0.00  0.00    +0.000 A 
ATOM     17  C   UNL     1       0.231   9.342  21.654  0.00  0.00    +0.000 A 
ATOM     18  C   UNL     1      -0.423  10.575  21.618  0.00  0.00    +0.000 A 
ATOM     19 BR   UNL     1      -1.406  11.166  23.120  0.00  0.00    +0.000 Br
ATOM     20  C   UNL     1      -0.355  11.380  20.484  0.00  0.00    +0.000 A 
ATOM     21  C   UNL     1       0.368  10.949  19.372  0.00  0.00    +0.000 A 
ENDBRANCH  13  15
ENDBRANCH  12  13
ENDBRANCH  10  11
BRANCH   1  22
ATOM     22  O   UNL     1       2.710   5.484  20.287  0.00  0.00    +0.000 OA
BRANCH  22  23
ATOM     23  C   UNL     1       1.419   4.862  20.278  0.00  0.00    +0.000 C 
BRANCH  23  25
ATOM     24  C   UNL     1       1.427   2.613  21.711  0.00  0.00    +0.000 C 
ATOM     25  C   UNL     1       1.456   3.628  21.075  0.00  0.00    +0.000 C 
ENDBRANCH  23  25
ENDBRANCH  22  23
ENDBRANCH   1  22
TORSDOF 6
ENDMDL
