MODEL 1
REMARK VINA RESULT:      -7.7      0.000      0.000
REMARK  Name = 
REMARK  5 active torsions:
REMARK  status: ('A' for Active; 'I' for Inactive)
REMARK    1  A    between atoms: C_6  and  C_7
REMARK    2  A    between atoms: C_7  and  C_8
REMARK    3  A    between atoms: C_11  and  O_12
REMARK    4  A    between atoms: O_12  and  C_13
REMARK    5  A    between atoms: C_13  and  C_14
REMARK                            x       y       z     vdW  Elec       q    Type
REMARK                         _______ _______ _______ _____ _____    ______ ____
ROOT
ATOM      1  C   UNL     1       4.601   5.651  16.932  0.00  0.00    +0.000 A 
ATOM      2  C   UNL     1       3.730   6.338  17.780  0.00  0.00    +0.000 A 
ATOM      3  C   UNL     1       2.623   5.709  18.344  0.00  0.00    +0.000 A 
ATOM      4  C   UNL     1       2.300   4.399  18.004  0.00  0.00    +0.000 A 
ATOM      5  C   UNL     1       3.180   3.681  17.192  0.00  0.00    +0.000 A 
ATOM      6  C   UNL     1       4.326   4.302  16.659  0.00  0.00    +0.000 A 
ENDROOT
BRANCH   1   7
ATOM      7  C   UNL     1       5.739   6.379  16.248  0.00  0.00    +0.000 C 
BRANCH   7  13
ATOM      8  O   UNL     1       7.917   5.246  20.382  0.00  0.00    +0.000 OA
ATOM      9  C   UNL     1       7.780   5.657  19.244  0.00  0.00    +0.000 C 
ATOM     10  N   UNL     1       7.934   6.940  18.845  0.00  0.00    +0.000 N 
ATOM     11  C   UNL     1       7.654   7.270  17.555  0.00  0.00    +0.000 C 
ATOM     12  O   UNL     1       7.754   8.415  17.127  0.00  0.00    +0.000 OA
ATOM     13  C   UNL     1       7.168   6.083  16.739  0.00  0.00    +0.000 C 
ATOM     14  S   UNL     1       7.347   4.663  17.888  0.00  0.00    +0.000 S 
ATOM     15  H   UNL     1       8.215   7.642  19.513  0.00  0.00    +0.000 HD
ENDBRANCH   7  13
ENDBRANCH   1   7
BRANCH   4  16
ATOM     16  O   UNL     1       1.141   3.763  18.385  0.00  0.00    +0.000 OA
BRANCH  16  17
ATOM     17  C   UNL     1       1.364   2.503  19.034  0.00  0.00    +0.000 C 
BRANCH  17  18
ATOM     18  C   UNL     1       1.345   2.590  20.529  0.00  0.00    +0.000 C 
ATOM     19  C   UNL     1       2.630   2.675  21.313  0.00  0.00    +0.000 C 
ATOM     20  C   UNL     1       1.672   3.836  21.306  0.00  0.00    +0.000 C 
ENDBRANCH  17  18
ENDBRANCH  16  17
ENDBRANCH   4  16
TORSDOF 5
ENDMDL
MODEL 2
REMARK VINA RESULT:      -7.2      3.456      6.449
REMARK  Name = 
REMARK  5 active torsions:
REMARK  status: ('A' for Active; 'I' for Inactive)
REMARK    1  A    between atoms: C_6  and  C_7
REMARK    2  A    between atoms: C_7  and  C_8
REMARK    3  A    between atoms: C_11  and  O_12
REMARK    4  A    between atoms: O_12  and  C_13
REMARK    5  A    between atoms: C_13  and  C_14
REMARK                            x       y       z     vdW  Elec       q    Type
REMARK                         _______ _______ _______ _____ _____    ______ ____
ROOT
ATOM      1  C   UNL     1       5.128   5.396  18.309  0.00  0.00    +0.000 A 
ATOM      2  C   UNL     1       6.423   4.897  18.458  0.00  0.00    +0.000 A 
ATOM      3  C   UNL     1       7.292   4.802  17.374  0.00  0.00    +0.000 A 
ATOM      4  C   UNL     1       6.860   5.113  16.088  0.00  0.00    +0.000 A 
ATOM      5  C   UNL     1       5.583   5.652  15.922  0.00  0.00    +0.000 A 
ATOM      6  C   UNL     1       4.720   5.794  17.025  0.00  0.00    +0.000 A 
ENDROOT
BRANCH   1   7
ATOM      7  C   UNL     1       4.166   5.395  19.478  0.00  0.00    +0.000 C 
BRANCH   7  13
ATOM      8  O   UNL     1       1.391   2.620  22.255  0.00  0.00    +0.000 OA
ATOM      9  C   UNL     1       1.885   3.084  21.243  0.00  0.00    +0.000 C 
ATOM     10  N   UNL     1       2.682   2.418  20.377  0.00  0.00    +0.000 N 
ATOM     11  C   UNL     1       3.240   3.095  19.337  0.00  0.00    +0.000 C 
ATOM     12  O   UNL     1       3.985   2.561  18.522  0.00  0.00    +0.000 OA
ATOM     13  C   UNL     1       2.874   4.570  19.334  0.00  0.00    +0.000 C 
ATOM     14  S   UNL     1       1.666   4.722  20.708  0.00  0.00    +0.000 S 
ATOM     15  H   UNL     1       2.883   1.442  20.531  0.00  0.00    +0.000 HD
ENDBRANCH   7  13
ENDBRANCH   1   7
BRANCH   4  16
ATOM     16  O   UNL     1       7.598   4.890  14.948  0.00  0.00    +0.000 OA
BRANCH  16  17
ATOM     17  C   UNL     1       6.823   4.956  13.742  0.00  0.00    +0.000 C 
BRANCH  17  18
ATOM     18  C   UNL     1       6.291   3.627  13.300  0.00  0.00    +0.000 C 
ATOM     19  C   UNL     1       5.109   3.541  12.369  0.00  0.00    +0.000 C 
ATOM     20  C   UNL     1       6.463   3.069  11.914  0.00  0.00    +0.000 C 
ENDBRANCH  17  18
ENDBRANCH  16  17
ENDBRANCH   4  16
TORSDOF 5
ENDMDL
MODEL 3
REMARK VINA RESULT:      -7.1      3.629      6.510
REMARK  Name = 
REMARK  5 active torsions:
REMARK  status: ('A' for Active; 'I' for Inactive)
REMARK    1  A    between atoms: C_6  and  C_7
REMARK    2  A    between atoms: C_7  and  C_8
REMARK    3  A    between atoms: C_11  and  O_12
REMARK    4  A    between atoms: O_12  and  C_13
REMARK    5  A    between atoms: C_13  and  C_14
REMARK                            x       y       z     vdW  Elec       q    Type
REMARK                         _______ _______ _______ _____ _____    ______ ____
ROOT
ATOM      1  C   UNL     1       4.322   5.200  17.901  0.00  0.00    +0.000 A 
ATOM      2  C   UNL     1       5.255   6.233  17.790  0.00  0.00    +0.000 A 
ATOM      3  C   UNL     1       5.998   6.416  16.628  0.00  0.00    +0.000 A 
ATOM      4  C   UNL     1       5.901   5.515  15.573  0.00  0.00    +0.000 A 
ATOM      5  C   UNL     1       4.946   4.499  15.645  0.00  0.00    +0.000 A 
ATOM      6  C   UNL     1       4.159   4.342  16.802  0.00  0.00    +0.000 A 
ENDROOT
BRANCH   1   7
ATOM      7  C   UNL     1       3.599   4.955  19.208  0.00  0.00    +0.000 C 
BRANCH   7  13
ATOM      8  O   UNL     1       1.108   2.654  22.617  0.00  0.00    +0.000 OA
ATOM      9  C   UNL     1       1.768   2.820  21.606  0.00  0.00    +0.000 C 
ATOM     10  N   UNL     1       3.020   2.356  21.397  0.00  0.00    +0.000 N 
ATOM     11  C   UNL     1       3.672   2.703  20.252  0.00  0.00    +0.000 C 
ATOM     12  O   UNL     1       4.814   2.333  20.002  0.00  0.00    +0.000 OA
ATOM     13  C   UNL     1       2.847   3.621  19.364  0.00  0.00    +0.000 C 
ATOM     14  S   UNL     1       1.223   3.707  20.215  0.00  0.00    +0.000 S 
ATOM     15  H   UNL     1       3.470   1.794  22.102  0.00  0.00    +0.000 HD
ENDBRANCH   7  13
ENDBRANCH   1   7
BRANCH   4  16
ATOM     16  O   UNL     1       6.716   5.529  14.464  0.00  0.00    +0.000 OA
BRANCH  16  17
ATOM     17  C   UNL     1       6.977   4.224  13.928  0.00  0.00    +0.000 C 
BRANCH  17  18
ATOM     18  C   UNL     1       6.559   4.072  12.497  0.00  0.00    +0.000 C 
ATOM     19  C   UNL     1       6.775   2.772  11.764  0.00  0.00    +0.000 C 
ATOM     20  C   UNL     1       5.378   3.257  12.045  0.00  0.00    +0.000 C 
ENDBRANCH  17  18
ENDBRANCH  16  17
ENDBRANCH   4  16
TORSDOF 5
ENDMDL
MODEL 4
REMARK VINA RESULT:      -7.1      3.695      6.625
REMARK  Name = 
REMARK  5 active torsions:
REMARK  status: ('A' for Active; 'I' for Inactive)
REMARK    1  A    between atoms: C_6  and  C_7
REMARK    2  A    between atoms: C_7  and  C_8
REMARK    3  A    between atoms: C_11  and  O_12
REMARK    4  A    between atoms: O_12  and  C_13
REMARK    5  A    between atoms: C_13  and  C_14
REMARK                            x       y       z     vdW  Elec       q    Type
REMARK                         _______ _______ _______ _____ _____    ______ ____
ROOT
ATOM      1  C   UNL     1       4.162   4.969  17.660  0.00  0.00    +0.000 A 
ATOM      2  C   UNL     1       4.697   3.860  17.001  0.00  0.00    +0.000 A 
ATOM      3  C   UNL     1       5.502   4.007  15.875  0.00  0.00    +0.000 A 
ATOM      4  C   UNL     1       5.720   5.261  15.315  0.00  0.00    +0.000 A 
ATOM      5  C   UNL     1       5.229   6.386  15.981  0.00  0.00    +0.000 A 
ATOM      6  C   UNL     1       4.456   6.243  17.148  0.00  0.00    +0.000 A 
ENDROOT
BRANCH   1   7
ATOM      7  C   UNL     1       3.207   4.785  18.820  0.00  0.00    +0.000 C 
BRANCH   7  13
ATOM      8  O   UNL     1       1.040   2.442  22.416  0.00  0.00    +0.000 OA
ATOM      9  C   UNL     1       1.703   2.619  21.410  0.00  0.00    +0.000 C 
ATOM     10  N   UNL     1       3.029   2.387  21.289  0.00  0.00    +0.000 N 
ATOM     11  C   UNL     1       3.657   2.723  20.128  0.00  0.00    +0.000 C 
ATOM     12  O   UNL     1       4.859   2.556  19.953  0.00  0.00    +0.000 OA
ATOM     13  C   UNL     1       2.716   3.356  19.116  0.00  0.00    +0.000 C 
ATOM     14  S   UNL     1       1.067   3.220  19.909  0.00  0.00    +0.000 S 
ATOM     15  H   UNL     1       3.544   2.006  22.068  0.00  0.00    +0.000 HD
ENDBRANCH   7  13
ENDBRANCH   1   7
BRANCH   4  16
ATOM     16  O   UNL     1       6.361   5.474  14.116  0.00  0.00    +0.000 OA
BRANCH  16  17
ATOM     17  C   UNL     1       7.006   4.303  13.595  0.00  0.00    +0.000 C 
BRANCH  17  18
ATOM     18  C   UNL     1       6.510   3.902  12.239  0.00  0.00    +0.000 C 
ATOM     19  C   UNL     1       6.830   2.542  11.673  0.00  0.00    +0.000 C 
ATOM     20  C   UNL     1       5.408   2.905  12.005  0.00  0.00    +0.000 C 
ENDBRANCH  17  18
ENDBRANCH  16  17
ENDBRANCH   4  16
TORSDOF 5
ENDMDL
MODEL 5
REMARK VINA RESULT:      -7.1      2.999      7.002
REMARK  Name = 
REMARK  5 active torsions:
REMARK  status: ('A' for Active; 'I' for Inactive)
REMARK    1  A    between atoms: C_6  and  C_7
REMARK    2  A    between atoms: C_7  and  C_8
REMARK    3  A    between atoms: C_11  and  O_12
REMARK    4  A    between atoms: O_12  and  C_13
REMARK    5  A    between atoms: C_13  and  C_14
REMARK                            x       y       z     vdW  Elec       q    Type
REMARK                         _______ _______ _______ _____ _____    ______ ____
ROOT
ATOM      1  C   UNL     1       5.243   4.679  18.042  0.00  0.00    +0.000 A 
ATOM      2  C   UNL     1       4.953   5.385  16.873  0.00  0.00    +0.000 A 
ATOM      3  C   UNL     1       5.724   6.473  16.474  0.00  0.00    +0.000 A 
ATOM      4  C   UNL     1       6.753   6.949  17.281  0.00  0.00    +0.000 A 
ATOM      5  C   UNL     1       7.086   6.234  18.433  0.00  0.00    +0.000 A 
ATOM      6  C   UNL     1       6.337   5.104  18.812  0.00  0.00    +0.000 A 
ENDROOT
BRANCH   1   7
ATOM      7  C   UNL     1       4.332   3.564  18.511  0.00  0.00    +0.000 C 
BRANCH   7  13
ATOM      8  O   UNL     1       1.331   2.635  22.151  0.00  0.00    +0.000 OA
ATOM      9  C   UNL     1       1.703   2.965  21.039  0.00  0.00    +0.000 C 
ATOM     10  N   UNL     1       1.435   2.306  19.890  0.00  0.00    +0.000 N 
ATOM     11  C   UNL     1       1.999   2.741  18.730  0.00  0.00    +0.000 C 
ATOM     12  O   UNL     1       1.814   2.184  17.653  0.00  0.00    +0.000 OA
ATOM     13  C   UNL     1       2.902   3.947  18.935  0.00  0.00    +0.000 C 
ATOM     14  S   UNL     1       2.673   4.367  20.707  0.00  0.00    +0.000 S 
ATOM     15  H   UNL     1       0.855   1.481  19.909  0.00  0.00    +0.000 HD
ENDBRANCH   7  13
ENDBRANCH   1   7
BRANCH   4  16
ATOM     16  O   UNL     1       7.450   8.111  17.043  0.00  0.00    +0.000 OA
BRANCH  16  17
ATOM     17  C   UNL     1       8.378   8.446  18.085  0.00  0.00    +0.000 C 
BRANCH  17  18
ATOM     18  C   UNL     1       8.464   9.917  18.357  0.00  0.00    +0.000 C 
ATOM     19  C   UNL     1       9.333  10.446  19.469  0.00  0.00    +0.000 C 
ATOM     20  C   UNL     1       9.665  10.765  18.036  0.00  0.00    +0.000 C 
ENDBRANCH  17  18
ENDBRANCH  16  17
ENDBRANCH   4  16
TORSDOF 5
ENDMDL
MODEL 6
REMARK VINA RESULT:      -7.0      3.284      6.761
REMARK  Name = 
REMARK  5 active torsions:
REMARK  status: ('A' for Active; 'I' for Inactive)
REMARK    1  A    between atoms: C_6  and  C_7
REMARK    2  A    between atoms: C_7  and  C_8
REMARK    3  A    between atoms: C_11  and  O_12
REMARK    4  A    between atoms: O_12  and  C_13
REMARK    5  A    between atoms: C_13  and  C_14
REMARK                            x       y       z     vdW  Elec       q    Type
REMARK                         _______ _______ _______ _____ _____    ______ ____
ROOT
ATOM      1  C   UNL     1       4.728   5.177  18.806  0.00  0.00    +0.000 A 
ATOM      2  C   UNL     1       6.109   5.024  18.938  0.00  0.00    +0.000 A 
ATOM      3  C   UNL     1       6.970   5.270  17.872  0.00  0.00    +0.000 A 
ATOM      4  C   UNL     1       6.470   5.585  16.613  0.00  0.00    +0.000 A 
ATOM      5  C   UNL     1       5.095   5.784  16.469  0.00  0.00    +0.000 A 
ATOM      6  C   UNL     1       4.228   5.583  17.559  0.00  0.00    +0.000 A 
ENDROOT
BRANCH   1   7
ATOM      7  C   UNL     1       3.802   4.807  19.945  0.00  0.00    +0.000 C 
BRANCH   7  13
ATOM      8  O   UNL     1       0.084   2.152  18.447  0.00  0.00    +0.000 OA
ATOM      9  C   UNL     1       1.050   2.486  19.110  0.00  0.00    +0.000 C 
ATOM     10  N   UNL     1       1.030   2.815  20.421  0.00  0.00    +0.000 N 
ATOM     11  C   UNL     1       2.174   3.262  21.008  0.00  0.00    +0.000 C 
ATOM     12  O   UNL     1       2.227   3.594  22.188  0.00  0.00    +0.000 OA
ATOM     13  C   UNL     1       3.339   3.341  20.036  0.00  0.00    +0.000 C 
ATOM     14  S   UNL     1       2.668   2.613  18.491  0.00  0.00    +0.000 S 
ATOM     15  H   UNL     1       0.165   2.764  20.937  0.00  0.00    +0.000 HD
ENDBRANCH   7  13
ENDBRANCH   1   7
BRANCH   4  16
ATOM     16  O   UNL     1       7.238   5.679  15.475  0.00  0.00    +0.000 OA
BRANCH  16  17
ATOM     17  C   UNL     1       7.244   4.480  14.687  0.00  0.00    +0.000 C 
BRANCH  17  18
ATOM     18  C   UNL     1       6.576   4.638  13.355  0.00  0.00    +0.000 C 
ATOM     19  C   UNL     1       7.201   4.070  12.107  0.00  0.00    +0.000 C 
ATOM     20  C   UNL     1       5.896   3.519  12.615  0.00  0.00    +0.000 C 
ENDBRANCH  17  18
ENDBRANCH  16  17
ENDBRANCH   4  16
TORSDOF 5
ENDMDL
MODEL 7
REMARK VINA RESULT:      -7.0      2.339      3.054
REMARK  Name = 
REMARK  5 active torsions:
REMARK  status: ('A' for Active; 'I' for Inactive)
REMARK    1  A    between atoms: C_6  and  C_7
REMARK    2  A    between atoms: C_7  and  C_8
REMARK    3  A    between atoms: C_11  and  O_12
REMARK    4  A    between atoms: O_12  and  C_13
REMARK    5  A    between atoms: C_13  and  C_14
REMARK                            x       y       z     vdW  Elec       q    Type
REMARK                         _______ _______ _______ _____ _____    ______ ____
ROOT
ATOM      1  C   UNL     1       4.383   5.125  17.828  0.00  0.00    +0.000 A 
ATOM      2  C   UNL     1       4.347   3.735  17.704  0.00  0.00    +0.000 A 
ATOM      3  C   UNL     1       3.143   3.037  17.728  0.00  0.00    +0.000 A 
ATOM      4  C   UNL     1       1.944   3.698  17.972  0.00  0.00    +0.000 A 
ATOM      5  C   UNL     1       1.952   5.091  18.058  0.00  0.00    +0.000 A 
ATOM      6  C   UNL     1       3.163   5.803  17.985  0.00  0.00    +0.000 A 
ENDROOT
BRANCH   1   7
ATOM      7  C   UNL     1       5.707   5.856  17.902  0.00  0.00    +0.000 C 
BRANCH   7  13
ATOM      8  O   UNL     1       5.645   3.957  13.485  0.00  0.00    +0.000 OA
ATOM      9  C   UNL     1       6.082   4.499  14.484  0.00  0.00    +0.000 C 
ATOM     10  N   UNL     1       7.011   3.981  15.320  0.00  0.00    +0.000 N 
ATOM     11  C   UNL     1       7.334   4.662  16.453  0.00  0.00    +0.000 C 
ATOM     12  O   UNL     1       8.154   4.246  17.265  0.00  0.00    +0.000 OA
ATOM     13  C   UNL     1       6.540   5.949  16.610  0.00  0.00    +0.000 C 
ATOM     14  S   UNL     1       5.587   6.066  15.045  0.00  0.00    +0.000 S 
ATOM     15  H   UNL     1       7.422   3.084  15.116  0.00  0.00    +0.000 HD
ENDBRANCH   7  13
ENDBRANCH   1   7
BRANCH   4  16
ATOM     16  O   UNL     1       0.739   3.065  18.176  0.00  0.00    +0.000 OA
BRANCH  16  17
ATOM     17  C   UNL     1       0.674   2.341  19.413  0.00  0.00    +0.000 C 
BRANCH  17  18
ATOM     18  C   UNL     1       1.097   3.149  20.601  0.00  0.00    +0.000 C 
ATOM     19  C   UNL     1       1.245   2.508  21.957  0.00  0.00    +0.000 C 
ATOM     20  C   UNL     1       2.453   3.055  21.245  0.00  0.00    +0.000 C 
ENDBRANCH  17  18
ENDBRANCH  16  17
ENDBRANCH   4  16
TORSDOF 5
ENDMDL
MODEL 8
REMARK VINA RESULT:      -7.0      4.145      5.571
REMARK  Name = 
REMARK  5 active torsions:
REMARK  status: ('A' for Active; 'I' for Inactive)
REMARK    1  A    between atoms: C_6  and  C_7
REMARK    2  A    between atoms: C_7  and  C_8
REMARK    3  A    between atoms: C_11  and  O_12
REMARK    4  A    between atoms: O_12  and  C_13
REMARK    5  A    between atoms: C_13  and  C_14
REMARK                            x       y       z     vdW  Elec       q    Type
REMARK                         _______ _______ _______ _____ _____    ______ ____
ROOT
ATOM      1  C   UNL     1       2.734   7.133  18.374  0.00  0.00    +0.000 A 
ATOM      2  C   UNL     1       2.241   7.125  19.680  0.00  0.00    +0.000 A 
ATOM      3  C   UNL     1       1.480   8.181  20.172  0.00  0.00    +0.000 A 
ATOM      4  C   UNL     1       1.268   9.323  19.406  0.00  0.00    +0.000 A 
ATOM      5  C   UNL     1       1.717   9.335  18.084  0.00  0.00    +0.000 A 
ATOM      6  C   UNL     1       2.445   8.246  17.568  0.00  0.00    +0.000 A 
ENDROOT
BRANCH   1   7
ATOM      7  C   UNL     1       3.644   6.024  17.890  0.00  0.00    +0.000 C 
BRANCH   7  13
ATOM      8  O   UNL     1       8.043   4.373  16.867  0.00  0.00    +0.000 OA
ATOM      9  C   UNL     1       7.077   4.700  17.534  0.00  0.00    +0.000 C 
ATOM     10  N   UNL     1       6.306   3.866  18.267  0.00  0.00    +0.000 N 
ATOM     11  C   UNL     1       5.198   4.361  18.885  0.00  0.00    +0.000 C 
ATOM     12  O   UNL     1       4.444   3.662  19.552  0.00  0.00    +0.000 OA
ATOM     13  C   UNL     1       4.990   5.843  18.616  0.00  0.00    +0.000 C 
ATOM     14  S   UNL     1       6.486   6.328  17.669  0.00  0.00    +0.000 S 
ATOM     15  H   UNL     1       6.535   2.886  18.316  0.00  0.00    +0.000 HD
ENDBRANCH   7  13
ENDBRANCH   1   7
BRANCH   4  16
ATOM     16  O   UNL     1       0.673  10.472  19.875  0.00  0.00    +0.000 OA
BRANCH  16  17
ATOM     17  C   UNL     1      -0.114  11.154  18.887  0.00  0.00    +0.000 C 
BRANCH  17  18
ATOM     18  C   UNL     1      -1.459  10.533  18.662  0.00  0.00    +0.000 C 
ATOM     19  C   UNL     1      -2.532  11.271  17.904  0.00  0.00    +0.000 C 
ATOM     20  C   UNL     1      -1.936  10.012  17.334  0.00  0.00    +0.000 C 
ENDBRANCH  17  18
ENDBRANCH  16  17
ENDBRANCH   4  16
TORSDOF 5
ENDMDL
MODEL 9
REMARK VINA RESULT:      -7.0      3.137      7.239
REMARK  Name = 
REMARK  5 active torsions:
REMARK  status: ('A' for Active; 'I' for Inactive)
REMARK    1  A    between atoms: C_6  and  C_7
REMARK    2  A    between atoms: C_7  and  C_8
REMARK    3  A    between atoms: C_11  and  O_12
REMARK    4  A    between atoms: O_12  and  C_13
REMARK    5  A    between atoms: C_13  and  C_14
REMARK                            x       y       z     vdW  Elec       q    Type
REMARK                         _______ _______ _______ _____ _____    ______ ____
ROOT
ATOM      1  C   UNL     1       5.556   4.937  18.338  0.00  0.00    +0.000 A 
ATOM      2  C   UNL     1       5.128   5.760  17.294  0.00  0.00    +0.000 A 
ATOM      3  C   UNL     1       5.917   6.808  16.830  0.00  0.00    +0.000 A 
ATOM      4  C   UNL     1       7.117   7.127  17.457  0.00  0.00    +0.000 A 
ATOM      5  C   UNL     1       7.583   6.293  18.475  0.00  0.00    +0.000 A 
ATOM      6  C   UNL     1       6.809   5.202  18.913  0.00  0.00    +0.000 A 
ENDROOT
BRANCH   1   7
ATOM      7  C   UNL     1       4.641   3.867  18.896  0.00  0.00    +0.000 C 
BRANCH   7  13
ATOM      8  O   UNL     1       0.016   2.555  18.950  0.00  0.00    +0.000 OA
ATOM      9  C   UNL     1       1.184   2.592  18.607  0.00  0.00    +0.000 C 
ATOM     10  N   UNL     1       2.071   1.577  18.720  0.00  0.00    +0.000 N 
ATOM     11  C   UNL     1       3.372   1.796  18.382  0.00  0.00    +0.000 C 
ATOM     12  O   UNL     1       4.234   0.928  18.473  0.00  0.00    +0.000 OA
ATOM     13  C   UNL     1       3.628   3.224  17.931  0.00  0.00    +0.000 C 
ATOM     14  S   UNL     1       1.955   3.979  17.901  0.00  0.00    +0.000 S 
ATOM     15  H   UNL     1       1.771   0.688  19.086  0.00  0.00    +0.000 HD
ENDBRANCH   7  13
ENDBRANCH   1   7
BRANCH   4  16
ATOM     16  O   UNL     1       7.869   8.242  17.168  0.00  0.00    +0.000 OA
BRANCH  16  17
ATOM     17  C   UNL     1       8.230   9.006  18.328  0.00  0.00    +0.000 C 
BRANCH  17  18
ATOM     18  C   UNL     1       9.228  10.088  18.044  0.00  0.00    +0.000 C 
ATOM     19  C   UNL     1       8.825  11.539  18.090  0.00  0.00    +0.000 C 
ATOM     20  C   UNL     1       9.807  10.997  19.093  0.00  0.00    +0.000 C 
ENDBRANCH  17  18
ENDBRANCH  16  17
ENDBRANCH   4  16
TORSDOF 5
ENDMDL
