MODEL 1
REMARK VINA RESULT:      -7.3      0.000      0.000
REMARK  Name = 
REMARK  3 active torsions:
REMARK  status: ('A' for Active; 'I' for Inactive)
REMARK    1  A    between atoms: C_2  and  C_3
REMARK    2  A    between atoms: C_7  and  C_8
REMARK    3  A    between atoms: C_8  and  N_9
REMARK                            x       y       z     vdW  Elec       q    Type
REMARK                         _______ _______ _______ _____ _____    ______ ____
ROOT
ATOM      1  C   UNL     1       3.925   6.242  18.935  0.00  0.00    +0.000 C 
ENDROOT
BRANCH   1   2
ATOM      2  N   UNL     1       5.197   5.702  18.496  0.00  0.00    +0.000 N 
ATOM      3  C   UNL     1       6.214   5.307  19.321  0.00  0.00    +0.000 A 
ATOM      4  N   UNL     1       7.225   4.813  18.643  0.00  0.00    +0.000 NA
ATOM      5  C   UNL     1       6.854   4.908  17.324  0.00  0.00    +0.000 A 
ATOM      6  C   UNL     1       7.536   4.489  16.172  0.00  0.00    +0.000 A 
ATOM      7  C   UNL     1       6.939   4.696  14.922  0.00  0.00    +0.000 A 
ATOM      8  C   UNL     1       5.705   5.341  14.819  0.00  0.00    +0.000 A 
ATOM      9  C   UNL     1       5.016   5.776  15.955  0.00  0.00    +0.000 A 
ATOM     10  C   UNL     1       5.605   5.513  17.197  0.00  0.00    +0.000 A 
ENDBRANCH   1   2
BRANCH   1  15
ATOM     11  C   UNL     1       1.620   3.486  20.266  0.00  0.00    +0.000 A 
ATOM     12  C   UNL     1       0.927   3.126  19.106  0.00  0.00    +0.000 A 
ATOM     13  C   UNL     1       1.174   3.803  17.911  0.00  0.00    +0.000 A 
ATOM     14  C   UNL     1       2.126   4.822  17.864  0.00  0.00    +0.000 A 
ATOM     15  C   UNL     1       2.846   5.185  19.013  0.00  0.00    +0.000 A 
ATOM     16  C   UNL     1       2.562   4.523  20.220  0.00  0.00    +0.000 A 
BRANCH  11  18
ATOM     17  N   UNL     1       1.184   2.192  22.473  0.00  0.00    +0.000 NA
ATOM     18  C   UNL     1       1.390   2.769  21.490  0.00  0.00    +0.000 C 
ENDBRANCH  11  18
ENDBRANCH   1  15
TORSDOF 3
ENDMDL
MODEL 2
REMARK VINA RESULT:      -7.3      1.942      5.929
REMARK  Name = 
REMARK  3 active torsions:
REMARK  status: ('A' for Active; 'I' for Inactive)
REMARK    1  A    between atoms: C_2  and  C_3
REMARK    2  A    between atoms: C_7  and  C_8
REMARK    3  A    between atoms: C_8  and  N_9
REMARK                            x       y       z     vdW  Elec       q    Type
REMARK                         _______ _______ _______ _____ _____    ______ ____
ROOT
ATOM      1  C   UNL     1       3.647   6.806  17.727  0.00  0.00    +0.000 C 
ENDROOT
BRANCH   1   2
ATOM      2  N   UNL     1       2.872   6.107  18.734  0.00  0.00    +0.000 N 
ATOM      3  C   UNL     1       2.466   6.637  19.927  0.00  0.00    +0.000 A 
ATOM      4  N   UNL     1       1.737   5.787  20.614  0.00  0.00    +0.000 NA
ATOM      5  C   UNL     1       1.683   4.653  19.840  0.00  0.00    +0.000 A 
ATOM      6  C   UNL     1       1.003   3.448  20.067  0.00  0.00    +0.000 A 
ATOM      7  C   UNL     1       1.100   2.428  19.113  0.00  0.00    +0.000 A 
ATOM      8  C   UNL     1       1.890   2.590  17.973  0.00  0.00    +0.000 A 
ATOM      9  C   UNL     1       2.585   3.780  17.735  0.00  0.00    +0.000 A 
ATOM     10  C   UNL     1       2.433   4.806  18.674  0.00  0.00    +0.000 A 
ENDBRANCH   1   2
BRANCH   1  15
ATOM     11  C   UNL     1       6.197   4.812  15.677  0.00  0.00    +0.000 A 
ATOM     12  C   UNL     1       7.163   4.527  16.647  0.00  0.00    +0.000 A 
ATOM     13  C   UNL     1       7.011   5.016  17.944  0.00  0.00    +0.000 A 
ATOM     14  C   UNL     1       5.886   5.769  18.284  0.00  0.00    +0.000 A 
ATOM     15  C   UNL     1       4.895   6.049  17.331  0.00  0.00    +0.000 A 
ATOM     16  C   UNL     1       5.078   5.585  16.016  0.00  0.00    +0.000 A 
BRANCH  11  18
ATOM     17  N   UNL     1       6.470   3.861  13.277  0.00  0.00    +0.000 NA
ATOM     18  C   UNL     1       6.337   4.282  14.348  0.00  0.00    +0.000 C 
ENDBRANCH  11  18
ENDBRANCH   1  15
TORSDOF 3
ENDMDL
MODEL 3
REMARK VINA RESULT:      -7.3      1.988      6.334
REMARK  Name = 
REMARK  3 active torsions:
REMARK  status: ('A' for Active; 'I' for Inactive)
REMARK    1  A    between atoms: C_2  and  C_3
REMARK    2  A    between atoms: C_7  and  C_8
REMARK    3  A    between atoms: C_8  and  N_9
REMARK                            x       y       z     vdW  Elec       q    Type
REMARK                         _______ _______ _______ _____ _____    ______ ____
ROOT
ATOM      1  C   UNL     1       3.419   6.132  18.060  0.00  0.00    +0.000 C 
ENDROOT
BRANCH   1   2
ATOM      2  N   UNL     1       2.484   5.050  18.303  0.00  0.00    +0.000 N 
ATOM      3  C   UNL     1       1.676   4.477  17.359  0.00  0.00    +0.000 A 
ATOM      4  N   UNL     1       0.973   3.487  17.858  0.00  0.00    +0.000 NA
ATOM      5  C   UNL     1       1.327   3.427  19.184  0.00  0.00    +0.000 A 
ATOM      6  C   UNL     1       0.914   2.529  20.180  0.00  0.00    +0.000 A 
ATOM      7  C   UNL     1       1.428   2.674  21.474  0.00  0.00    +0.000 A 
ATOM      8  C   UNL     1       2.307   3.714  21.781  0.00  0.00    +0.000 A 
ATOM      9  C   UNL     1       2.721   4.626  20.804  0.00  0.00    +0.000 A 
ATOM     10  C   UNL     1       2.237   4.433  19.506  0.00  0.00    +0.000 A 
ENDBRANCH   1   2
BRANCH   1  15
ATOM     11  C   UNL     1       6.196   4.722  15.827  0.00  0.00    +0.000 A 
ATOM     12  C   UNL     1       7.241   4.585  16.746  0.00  0.00    +0.000 A 
ATOM     13  C   UNL     1       7.060   4.987  18.069  0.00  0.00    +0.000 A 
ATOM     14  C   UNL     1       5.832   5.507  18.485  0.00  0.00    +0.000 A 
ATOM     15  C   UNL     1       4.765   5.634  17.583  0.00  0.00    +0.000 A 
ATOM     16  C   UNL     1       4.970   5.262  16.243  0.00  0.00    +0.000 A 
BRANCH  11  18
ATOM     17  N   UNL     1       6.504   3.902  13.384  0.00  0.00    +0.000 NA
ATOM     18  C   UNL     1       6.370   4.279  14.472  0.00  0.00    +0.000 C 
ENDBRANCH  11  18
ENDBRANCH   1  15
TORSDOF 3
ENDMDL
MODEL 4
REMARK VINA RESULT:      -7.0      1.710      2.677
REMARK  Name = 
REMARK  3 active torsions:
REMARK  status: ('A' for Active; 'I' for Inactive)
REMARK    1  A    between atoms: C_2  and  C_3
REMARK    2  A    between atoms: C_7  and  C_8
REMARK    3  A    between atoms: C_8  and  N_9
REMARK                            x       y       z     vdW  Elec       q    Type
REMARK                         _______ _______ _______ _____ _____    ______ ____
ROOT
ATOM      1  C   UNL     1       4.851   3.165  17.026  0.00  0.00    +0.000 C 
ENDROOT
BRANCH   1   2
ATOM      2  N   UNL     1       5.578   4.371  16.677  0.00  0.00    +0.000 N 
ATOM      3  C   UNL     1       5.539   4.992  15.459  0.00  0.00    +0.000 A 
ATOM      4  N   UNL     1       6.258   6.091  15.451  0.00  0.00    +0.000 NA
ATOM      5  C   UNL     1       6.798   6.177  16.711  0.00  0.00    +0.000 A 
ATOM      6  C   UNL     1       7.613   7.174  17.268  0.00  0.00    +0.000 A 
ATOM      7  C   UNL     1       8.038   7.034  18.595  0.00  0.00    +0.000 A 
ATOM      8  C   UNL     1       7.690   5.906  19.341  0.00  0.00    +0.000 A 
ATOM      9  C   UNL     1       6.888   4.897  18.799  0.00  0.00    +0.000 A 
ATOM     10  C   UNL     1       6.431   5.080  17.489  0.00  0.00    +0.000 A 
ENDBRANCH   1   2
BRANCH   1  15
ATOM     11  C   UNL     1       2.232   3.258  19.822  0.00  0.00    +0.000 A 
ATOM     12  C   UNL     1       1.169   3.898  19.178  0.00  0.00    +0.000 A 
ATOM     13  C   UNL     1       1.315   4.335  17.862  0.00  0.00    +0.000 A 
ATOM     14  C   UNL     1       2.512   4.117  17.177  0.00  0.00    +0.000 A 
ATOM     15  C   UNL     1       3.584   3.459  17.799  0.00  0.00    +0.000 A 
ATOM     16  C   UNL     1       3.440   3.057  19.139  0.00  0.00    +0.000 A 
BRANCH  11  18
ATOM     17  N   UNL     1       1.937   2.373  22.244  0.00  0.00    +0.000 NA
ATOM     18  C   UNL     1       2.072   2.778  21.167  0.00  0.00    +0.000 C 
ENDBRANCH  11  18
ENDBRANCH   1  15
TORSDOF 3
ENDMDL
MODEL 5
REMARK VINA RESULT:      -7.0      1.537      2.656
REMARK  Name = 
REMARK  3 active torsions:
REMARK  status: ('A' for Active; 'I' for Inactive)
REMARK    1  A    between atoms: C_2  and  C_3
REMARK    2  A    between atoms: C_7  and  C_8
REMARK    3  A    between atoms: C_8  and  N_9
REMARK                            x       y       z     vdW  Elec       q    Type
REMARK                         _______ _______ _______ _____ _____    ______ ____
ROOT
ATOM      1  C   UNL     1       4.057   3.842  17.257  0.00  0.00    +0.000 C 
ENDROOT
BRANCH   1   2
ATOM      2  N   UNL     1       5.047   4.824  16.858  0.00  0.00    +0.000 N 
ATOM      3  C   UNL     1       5.134   5.400  15.620  0.00  0.00    +0.000 A 
ATOM      4  N   UNL     1       6.098   6.290  15.564  0.00  0.00    +0.000 NA
ATOM      5  C   UNL     1       6.670   6.277  16.813  0.00  0.00    +0.000 A 
ATOM      6  C   UNL     1       7.715   7.061  17.325  0.00  0.00    +0.000 A 
ATOM      7  C   UNL     1       8.121   6.861  18.650  0.00  0.00    +0.000 A 
ATOM      8  C   UNL     1       7.526   5.875  19.438  0.00  0.00    +0.000 A 
ATOM      9  C   UNL     1       6.491   5.075  18.942  0.00  0.00    +0.000 A 
ATOM     10  C   UNL     1       6.064   5.326  17.633  0.00  0.00    +0.000 A 
ENDBRANCH   1   2
BRANCH   1  15
ATOM     11  C   UNL     1       2.078   3.832  20.538  0.00  0.00    +0.000 A 
ATOM     12  C   UNL     1       1.589   5.141  20.565  0.00  0.00    +0.000 A 
ATOM     13  C   UNL     1       1.933   6.033  19.550  0.00  0.00    +0.000 A 
ATOM     14  C   UNL     1       2.748   5.617  18.495  0.00  0.00    +0.000 A 
ATOM     15  C   UNL     1       3.233   4.302  18.439  0.00  0.00    +0.000 A 
ATOM     16  C   UNL     1       2.911   3.422  19.488  0.00  0.00    +0.000 A 
BRANCH  11  18
ATOM     17  N   UNL     1       1.377   2.145  22.382  0.00  0.00    +0.000 NA
ATOM     18  C   UNL     1       1.698   2.903  21.566  0.00  0.00    +0.000 C 
ENDBRANCH  11  18
ENDBRANCH   1  15
TORSDOF 3
ENDMDL
MODEL 6
REMARK VINA RESULT:      -6.9      3.123      5.335
REMARK  Name = 
REMARK  3 active torsions:
REMARK  status: ('A' for Active; 'I' for Inactive)
REMARK    1  A    between atoms: C_2  and  C_3
REMARK    2  A    between atoms: C_7  and  C_8
REMARK    3  A    between atoms: C_8  and  N_9
REMARK                            x       y       z     vdW  Elec       q    Type
REMARK                         _______ _______ _______ _____ _____    ______ ____
ROOT
ATOM      1  C   UNL     1       3.389   6.526  18.931  0.00  0.00    +0.000 C 
ENDROOT
BRANCH   1   2
ATOM      2  N   UNL     1       2.597   7.724  18.727  0.00  0.00    +0.000 N 
ATOM      3  C   UNL     1       2.592   8.484  17.590  0.00  0.00    +0.000 A 
ATOM      4  N   UNL     1       1.740   9.480  17.674  0.00  0.00    +0.000 NA
ATOM      5  C   UNL     1       1.181   9.370  18.924  0.00  0.00    +0.000 A 
ATOM      6  C   UNL     1       0.179  10.145  19.527  0.00  0.00    +0.000 A 
ATOM      7  C   UNL     1      -0.230   9.827  20.828  0.00  0.00    +0.000 A 
ATOM      8  C   UNL     1       0.373   8.781  21.529  0.00  0.00    +0.000 A 
ATOM      9  C   UNL     1       1.382   8.004  20.950  0.00  0.00    +0.000 A 
ATOM     10  C   UNL     1       1.739   8.305  19.631  0.00  0.00    +0.000 A 
ENDBRANCH   1   2
BRANCH   1  15
ATOM     11  C   UNL     1       1.568   3.410  20.219  0.00  0.00    +0.000 A 
ATOM     12  C   UNL     1       1.068   2.875  19.028  0.00  0.00    +0.000 A 
ATOM     13  C   UNL     1       1.282   3.543  17.822  0.00  0.00    +0.000 A 
ATOM     14  C   UNL     1       2.013   4.732  17.797  0.00  0.00    +0.000 A 
ATOM     15  C   UNL     1       2.540   5.275  18.979  0.00  0.00    +0.000 A 
ATOM     16  C   UNL     1       2.285   4.615  20.194  0.00  0.00    +0.000 A 
BRANCH  11  18
ATOM     17  N   UNL     1       1.241   2.133  22.455  0.00  0.00    +0.000 NA
ATOM     18  C   UNL     1       1.376   2.707  21.457  0.00  0.00    +0.000 C 
ENDBRANCH  11  18
ENDBRANCH   1  15
TORSDOF 3
ENDMDL
MODEL 7
REMARK VINA RESULT:      -6.9      1.973      3.083
REMARK  Name = 
REMARK  3 active torsions:
REMARK  status: ('A' for Active; 'I' for Inactive)
REMARK    1  A    between atoms: C_2  and  C_3
REMARK    2  A    between atoms: C_7  and  C_8
REMARK    3  A    between atoms: C_8  and  N_9
REMARK                            x       y       z     vdW  Elec       q    Type
REMARK                         _______ _______ _______ _____ _____    ______ ____
ROOT
ATOM      1  C   UNL     1       4.649   3.436  16.929  0.00  0.00    +0.000 C 
ENDROOT
BRANCH   1   2
ATOM      2  N   UNL     1       5.305   4.707  16.689  0.00  0.00    +0.000 N 
ATOM      3  C   UNL     1       5.048   5.542  15.636  0.00  0.00    +0.000 A 
ATOM      4  N   UNL     1       5.758   6.645  15.706  0.00  0.00    +0.000 NA
ATOM      5  C   UNL     1       6.519   6.511  16.842  0.00  0.00    +0.000 A 
ATOM      6  C   UNL     1       7.425   7.411  17.422  0.00  0.00    +0.000 A 
ATOM      7  C   UNL     1       8.083   7.041  18.601  0.00  0.00    +0.000 A 
ATOM      8  C   UNL     1       7.872   5.784  19.172  0.00  0.00    +0.000 A 
ATOM      9  C   UNL     1       6.981   4.869  18.602  0.00  0.00    +0.000 A 
ATOM     10  C   UNL     1       6.294   5.278  17.454  0.00  0.00    +0.000 A 
ENDBRANCH   1   2
BRANCH   1  15
ATOM     11  C   UNL     1       2.041   4.831  19.366  0.00  0.00    +0.000 A 
ATOM     12  C   UNL     1       1.121   3.780  19.411  0.00  0.00    +0.000 A 
ATOM     13  C   UNL     1       1.322   2.646  18.625  0.00  0.00    +0.000 A 
ATOM     14  C   UNL     1       2.450   2.547  17.808  0.00  0.00    +0.000 A 
ATOM     15  C   UNL     1       3.396   3.583  17.763  0.00  0.00    +0.000 A 
ATOM     16  C   UNL     1       3.163   4.738  18.530  0.00  0.00    +0.000 A 
BRANCH  11  18
ATOM     17  N   UNL     1       1.690   6.927  20.856  0.00  0.00    +0.000 NA
ATOM     18  C   UNL     1       1.853   5.987  20.199  0.00  0.00    +0.000 C 
ENDBRANCH  11  18
ENDBRANCH   1  15
TORSDOF 3
ENDMDL
MODEL 8
REMARK VINA RESULT:      -6.9      2.186      6.336
REMARK  Name = 
REMARK  3 active torsions:
REMARK  status: ('A' for Active; 'I' for Inactive)
REMARK    1  A    between atoms: C_2  and  C_3
REMARK    2  A    between atoms: C_7  and  C_8
REMARK    3  A    between atoms: C_8  and  N_9
REMARK                            x       y       z     vdW  Elec       q    Type
REMARK                         _______ _______ _______ _____ _____    ______ ____
ROOT
ATOM      1  C   UNL     1       3.704   5.113  17.409  0.00  0.00    +0.000 C 
ENDROOT
BRANCH   1   2
ATOM      2  N   UNL     1       3.814   4.176  18.510  0.00  0.00    +0.000 N 
ATOM      3  C   UNL     1       4.954   3.508  18.868  0.00  0.00    +0.000 A 
ATOM      4  N   UNL     1       4.767   2.765  19.935  0.00  0.00    +0.000 NA
ATOM      5  C   UNL     1       3.447   2.946  20.272  0.00  0.00    +0.000 A 
ATOM      6  C   UNL     1       2.722   2.426  21.354  0.00  0.00    +0.000 A 
ATOM      7  C   UNL     1       1.370   2.766  21.486  0.00  0.00    +0.000 A 
ATOM      8  C   UNL     1       0.742   3.577  20.539  0.00  0.00    +0.000 A 
ATOM      9  C   UNL     1       1.446   4.096  19.447  0.00  0.00    +0.000 A 
ATOM     10  C   UNL     1       2.808   3.788  19.362  0.00  0.00    +0.000 A 
ENDBRANCH   1   2
BRANCH   1  15
ATOM     11  C   UNL     1       6.114   4.421  14.510  0.00  0.00    +0.000 A 
ATOM     12  C   UNL     1       7.282   5.031  14.976  0.00  0.00    +0.000 A 
ATOM     13  C   UNL     1       7.277   5.699  16.201  0.00  0.00    +0.000 A 
ATOM     14  C   UNL     1       6.115   5.742  16.973  0.00  0.00    +0.000 A 
ATOM     15  C   UNL     1       4.937   5.120  16.532  0.00  0.00    +0.000 A 
ATOM     16  C   UNL     1       4.943   4.482  15.279  0.00  0.00    +0.000 A 
BRANCH  11  18
ATOM     17  N   UNL     1       6.122   3.142  12.252  0.00  0.00    +0.000 NA
ATOM     18  C   UNL     1       6.126   3.705  13.265  0.00  0.00    +0.000 C 
ENDBRANCH  11  18
ENDBRANCH   1  15
TORSDOF 3
ENDMDL
MODEL 9
REMARK VINA RESULT:      -6.9      3.394      5.777
REMARK  Name = 
REMARK  3 active torsions:
REMARK  status: ('A' for Active; 'I' for Inactive)
REMARK    1  A    between atoms: C_2  and  C_3
REMARK    2  A    between atoms: C_7  and  C_8
REMARK    3  A    between atoms: C_8  and  N_9
REMARK                            x       y       z     vdW  Elec       q    Type
REMARK                         _______ _______ _______ _____ _____    ______ ____
ROOT
ATOM      1  C   UNL     1       3.111   6.555  18.476  0.00  0.00    +0.000 C 
ENDROOT
BRANCH   1   2
ATOM      2  N   UNL     1       2.363   5.313  18.519  0.00  0.00    +0.000 N 
ATOM      3  C   UNL     1       1.733   4.733  17.452  0.00  0.00    +0.000 A 
ATOM      4  N   UNL     1       1.178   3.588  17.779  0.00  0.00    +0.000 NA
ATOM      5  C   UNL     1       1.446   3.429  19.117  0.00  0.00    +0.000 A 
ATOM      6  C   UNL     1       1.127   2.362  19.971  0.00  0.00    +0.000 A 
ATOM      7  C   UNL     1       1.518   2.433  21.313  0.00  0.00    +0.000 A 
ATOM      8  C   UNL     1       2.181   3.559  21.805  0.00  0.00    +0.000 A 
ATOM      9  C   UNL     1       2.497   4.637  20.972  0.00  0.00    +0.000 A 
ATOM     10  C   UNL     1       2.144   4.524  19.623  0.00  0.00    +0.000 A 
ENDBRANCH   1   2
BRANCH   1  15
ATOM     11  C   UNL     1       0.973   9.045  20.454  0.00  0.00    +0.000 A 
ATOM     12  C   UNL     1       0.563   9.917  19.441  0.00  0.00    +0.000 A 
ATOM     13  C   UNL     1       1.011   9.724  18.135  0.00  0.00    +0.000 A 
ATOM     14  C   UNL     1       1.851   8.651  17.830  0.00  0.00    +0.000 A 
ATOM     15  C   UNL     1       2.258   7.754  18.829  0.00  0.00    +0.000 A 
ATOM     16  C   UNL     1       1.832   7.979  20.150  0.00  0.00    +0.000 A 
BRANCH  11  18
ATOM     17  N   UNL     1       0.102   9.384  22.876  0.00  0.00    +0.000 NA
ATOM     18  C   UNL     1       0.486   9.222  21.795  0.00  0.00    +0.000 C 
ENDBRANCH  11  18
ENDBRANCH   1  15
TORSDOF 3
ENDMDL
