MODEL 1
REMARK VINA RESULT:      -8.3      0.000      0.000
REMARK  Name = 
REMARK  7 active torsions:
REMARK  status: ('A' for Active; 'I' for Inactive)
REMARK    1  A    between atoms: C_1  and  C_2
REMARK    2  A    between atoms: C_2  and  C_3
REMARK    3  A    between atoms: C_3  and  C_4
REMARK    4  A    between atoms: C_4  and  N_5
REMARK    5  A    between atoms: C_6  and  C_7
REMARK    6  A    between atoms: C_8  and  C_9
REMARK    7  A    between atoms: C_19  and  N_20
REMARK                            x       y       z     vdW  Elec       q    Type
REMARK                         _______ _______ _______ _____ _____    ______ ____
ROOT
ATOM      1  N   UNL     1       2.581   7.058  19.420  0.00  0.00    +0.000 N 
ATOM      2  C   UNL     1       3.237   7.557  18.215  0.00  0.00    +0.000 A 
ATOM      3  C   UNL     1       2.876   8.790  17.725  0.00  0.00    +0.000 A 
ATOM      4  C   UNL     1       1.885   9.597  18.330  0.00  0.00    +0.000 A 
ATOM      5  C   UNL     1       1.218   9.147  19.483  0.00  0.00    +0.000 A 
ATOM      6  C   UNL     1       0.208   9.940  20.106  0.00  0.00    +0.000 A 
ATOM      7  C   UNL     1      -0.446   9.515  21.255  0.00  0.00    +0.000 A 
ATOM      8  C   UNL     1      -0.104   8.316  21.837  0.00  0.00    +0.000 A 
ATOM      9  C   UNL     1       0.876   7.502  21.261  0.00  0.00    +0.000 A 
ATOM     10  C   UNL     1       1.581   7.887  20.041  0.00  0.00    +0.000 A 
ENDROOT
BRANCH   4  11
ATOM     11  N   UNL     1       1.606  10.850  17.713  0.00  0.00    +0.000 N 
ATOM     12  H   UNL     1       1.413  11.677  18.291  0.00  0.00    +0.000 HD
ATOM     13  H   UNL     1       1.569  10.989  16.697  0.00  0.00    +0.000 HD
ENDBRANCH   4  11
BRANCH   2  14
ATOM     14  C   UNL     1       4.303   6.759  17.426  0.00  0.00    +0.000 C 
ATOM     15  C   UNL     1       4.222   5.577  16.650  0.00  0.00    +0.000 C 
BRANCH  15  16
ATOM     16  C   UNL     1       5.424   5.133  15.751  0.00  0.00    +0.000 A 
ATOM     17  C   UNL     1       6.676   5.562  16.161  0.00  0.00    +0.000 A 
ATOM     18  N   UNL     1       7.615   5.266  15.286  0.00  0.00    +0.000 N 
ATOM     19  C   UNL     1       7.019   4.802  14.207  0.00  0.00    +0.000 A 
ATOM     20  C   UNL     1       7.632   4.757  12.959  0.00  0.00    +0.000 A 
ATOM     21  C   UNL     1       6.989   4.125  11.915  0.00  0.00    +0.000 A 
ATOM     22  C   UNL     1       5.821   3.400  12.201  0.00  0.00    +0.000 A 
ATOM     23  C   UNL     1       5.153   3.550  13.471  0.00  0.00    +0.000 A 
ATOM     24  C   UNL     1       5.716   4.427  14.477  0.00  0.00    +0.000 A 
ATOM     25  H   UNL     1       8.632   5.395  15.426  0.00  0.00    +0.000 HD
ENDBRANCH  15  16
ENDBRANCH   2  14
BRANCH   1  26
ATOM     26  C   UNL     1       2.853   5.730  19.990  0.00  0.00    +0.000 C 
BRANCH  26  27
ATOM     27  C   UNL     1       2.045   4.545  19.436  0.00  0.00    +0.000 C 
BRANCH  27  29
ATOM     28  C   UNL     1       1.526   2.866  21.181  0.00  0.00    +0.000 C 
ATOM     29  C   UNL     1       0.947   4.020  20.357  0.00  0.00    +0.000 C 
ENDBRANCH  27  29
ENDBRANCH  26  27
ENDBRANCH   1  26
TORSDOF 6
ENDMDL
MODEL 2
REMARK VINA RESULT:      -7.8      2.625      9.097
REMARK  Name = 
REMARK  7 active torsions:
REMARK  status: ('A' for Active; 'I' for Inactive)
REMARK    1  A    between atoms: C_1  and  C_2
REMARK    2  A    between atoms: C_2  and  C_3
REMARK    3  A    between atoms: C_3  and  C_4
REMARK    4  A    between atoms: C_4  and  N_5
REMARK    5  A    between atoms: C_6  and  C_7
REMARK    6  A    between atoms: C_8  and  C_9
REMARK    7  A    between atoms: C_19  and  N_20
REMARK                            x       y       z     vdW  Elec       q    Type
REMARK                         _______ _______ _______ _____ _____    ______ ____
ROOT
ATOM      1  N   UNL     1       2.742   6.941  18.891  0.00  0.00    +0.000 N 
ATOM      2  C   UNL     1       1.979   6.657  20.103  0.00  0.00    +0.000 A 
ATOM      3  C   UNL     1       1.951   5.368  20.582  0.00  0.00    +0.000 A 
ATOM      4  C   UNL     1       2.622   4.298  19.947  0.00  0.00    +0.000 A 
ATOM      5  C   UNL     1       3.355   4.526  18.769  0.00  0.00    +0.000 A 
ATOM      6  C   UNL     1       4.032   3.459  18.106  0.00  0.00    +0.000 A 
ATOM      7  C   UNL     1       4.774   3.674  16.952  0.00  0.00    +0.000 A 
ATOM      8  C   UNL     1       4.894   4.945  16.438  0.00  0.00    +0.000 A 
ATOM      9  C   UNL     1       4.245   6.021  17.051  0.00  0.00    +0.000 A 
ATOM     10  C   UNL     1       3.433   5.852  18.253  0.00  0.00    +0.000 A 
ENDROOT
BRANCH   4  11
ATOM     11  N   UNL     1       2.503   3.012  20.549  0.00  0.00    +0.000 N 
ATOM     12  H   UNL     1       1.713   2.402  20.309  0.00  0.00    +0.000 HD
ATOM     13  H   UNL     1       3.167   2.643  21.239  0.00  0.00    +0.000 HD
ENDBRANCH   4  11
BRANCH   2  14
ATOM     14  C   UNL     1       1.161   7.723  20.872  0.00  0.00    +0.000 C 
ATOM     15  C   UNL     1       1.549   8.769  21.745  0.00  0.00    +0.000 C 
BRANCH  15  16
ATOM     16  C   UNL     1       0.517   9.860  22.183  0.00  0.00    +0.000 A 
ATOM     17  C   UNL     1      -0.366   9.491  23.185  0.00  0.00    +0.000 A 
ATOM     18  N   UNL     1      -1.285  10.410  23.402  0.00  0.00    +0.000 N 
ATOM     19  C   UNL     1      -1.164  11.321  22.459  0.00  0.00    +0.000 A 
ATOM     20  C   UNL     1      -2.179  12.214  22.130  0.00  0.00    +0.000 A 
ATOM     21  C   UNL     1      -1.919  13.228  21.232  0.00  0.00    +0.000 A 
ATOM     22  C   UNL     1      -0.591  13.422  20.822  0.00  0.00    +0.000 A 
ATOM     23  C   UNL     1       0.416  12.425  21.091  0.00  0.00    +0.000 A 
ATOM     24  C   UNL     1       0.062  11.230  21.828  0.00  0.00    +0.000 A 
ATOM     25  H   UNL     1      -1.980  10.397  24.168  0.00  0.00    +0.000 HD
ENDBRANCH  15  16
ENDBRANCH   2  14
BRANCH   1  26
ATOM     26  C   UNL     1       2.787   8.271  18.265  0.00  0.00    +0.000 C 
BRANCH  26  27
ATOM     27  C   UNL     1       1.480   8.812  17.661  0.00  0.00    +0.000 C 
BRANCH  27  29
ATOM     28  C   UNL     1      -0.511  10.142  18.294  0.00  0.00    +0.000 C 
ATOM     29  C   UNL     1       1.018  10.158  18.211  0.00  0.00    +0.000 C 
ENDBRANCH  27  29
ENDBRANCH  26  27
ENDBRANCH   1  26
TORSDOF 6
ENDMDL
MODEL 3
REMARK VINA RESULT:      -7.7      2.541      5.072
REMARK  Name = 
REMARK  7 active torsions:
REMARK  status: ('A' for Active; 'I' for Inactive)
REMARK    1  A    between atoms: C_1  and  C_2
REMARK    2  A    between atoms: C_2  and  C_3
REMARK    3  A    between atoms: C_3  and  C_4
REMARK    4  A    between atoms: C_4  and  N_5
REMARK    5  A    between atoms: C_6  and  C_7
REMARK    6  A    between atoms: C_8  and  C_9
REMARK    7  A    between atoms: C_19  and  N_20
REMARK                            x       y       z     vdW  Elec       q    Type
REMARK                         _______ _______ _______ _____ _____    ______ ____
ROOT
ATOM      1  N   UNL     1       0.080  10.140  19.858  0.00  0.00    +0.000 N 
ATOM      2  C   UNL     1       0.824   9.017  20.421  0.00  0.00    +0.000 A 
ATOM      3  C   UNL     1       0.793   8.816  21.781  0.00  0.00    +0.000 A 
ATOM      4  C   UNL     1       0.078   9.655  22.665  0.00  0.00    +0.000 A 
ATOM      5  C   UNL     1      -0.640  10.756  22.166  0.00  0.00    +0.000 A 
ATOM      6  C   UNL     1      -1.362  11.623  23.040  0.00  0.00    +0.000 A 
ATOM      7  C   UNL     1      -2.090  12.703  22.558  0.00  0.00    +0.000 A 
ATOM      8  C   UNL     1      -2.150  12.941  21.203  0.00  0.00    +0.000 A 
ATOM      9  C   UNL     1      -1.456  12.122  20.308  0.00  0.00    +0.000 A 
ATOM     10  C   UNL     1      -0.657  10.986  20.759  0.00  0.00    +0.000 A 
ENDROOT
BRANCH   4  11
ATOM     11  N   UNL     1       0.136   9.334  24.052  0.00  0.00    +0.000 N 
ATOM     12  H   UNL     1      -0.649   8.846  24.501  0.00  0.00    +0.000 HD
ATOM     13  H   UNL     1       0.927   9.574  24.659  0.00  0.00    +0.000 HD
ENDBRANCH   4  11
BRANCH   2  14
ATOM     14  C   UNL     1       1.686   8.049  19.575  0.00  0.00    +0.000 C 
ATOM     15  C   UNL     1       2.075   6.701  19.776  0.00  0.00    +0.000 C 
BRANCH  15  16
ATOM     16  C   UNL     1       2.747   5.888  18.621  0.00  0.00    +0.000 A 
ATOM     17  C   UNL     1       2.197   4.644  18.357  0.00  0.00    +0.000 A 
ATOM     18  N   UNL     1       2.898   3.968  17.470  0.00  0.00    +0.000 N 
ATOM     19  C   UNL     1       4.008   4.640  17.247  0.00  0.00    +0.000 A 
ATOM     20  C   UNL     1       5.145   4.066  16.687  0.00  0.00    +0.000 A 
ATOM     21  C   UNL     1       6.213   4.872  16.356  0.00  0.00    +0.000 A 
ATOM     22  C   UNL     1       6.040   6.262  16.435  0.00  0.00    +0.000 A 
ATOM     23  C   UNL     1       4.899   6.826  17.114  0.00  0.00    +0.000 A 
ATOM     24  C   UNL     1       3.900   5.946  17.685  0.00  0.00    +0.000 A 
ATOM     25  H   UNL     1       2.622   3.066  17.045  0.00  0.00    +0.000 HD
ENDBRANCH  15  16
ENDBRANCH   2  14
BRANCH   1  26
ATOM     26  C   UNL     1       0.097  10.476  18.426  0.00  0.00    +0.000 C 
BRANCH  26  27
ATOM     27  C   UNL     1      -0.887   9.726  17.513  0.00  0.00    +0.000 C 
BRANCH  27  29
ATOM     28  C   UNL     1      -3.362   9.699  17.598  0.00  0.00    +0.000 C 
ATOM     29  C   UNL     1      -2.144  10.505  17.136  0.00  0.00    +0.000 C 
ENDBRANCH  27  29
ENDBRANCH  26  27
ENDBRANCH   1  26
TORSDOF 6
ENDMDL
MODEL 4
REMARK VINA RESULT:      -7.7      3.106      5.613
REMARK  Name = 
REMARK  7 active torsions:
REMARK  status: ('A' for Active; 'I' for Inactive)
REMARK    1  A    between atoms: C_1  and  C_2
REMARK    2  A    between atoms: C_2  and  C_3
REMARK    3  A    between atoms: C_3  and  C_4
REMARK    4  A    between atoms: C_4  and  N_5
REMARK    5  A    between atoms: C_6  and  C_7
REMARK    6  A    between atoms: C_8  and  C_9
REMARK    7  A    between atoms: C_19  and  N_20
REMARK                            x       y       z     vdW  Elec       q    Type
REMARK                         _______ _______ _______ _____ _____    ______ ____
ROOT
ATOM      1  N   UNL     1       0.161  10.647  19.750  0.00  0.00    +0.000 N 
ATOM      2  C   UNL     1       1.263  10.129  18.944  0.00  0.00    +0.000 A 
ATOM      3  C   UNL     1       2.044  11.015  18.240  0.00  0.00    +0.000 A 
ATOM      4  C   UNL     1       1.823  12.411  18.253  0.00  0.00    +0.000 A 
ATOM      5  C   UNL     1       0.764  12.950  19.004  0.00  0.00    +0.000 A 
ATOM      6  C   UNL     1       0.515  14.356  19.024  0.00  0.00    +0.000 A 
ATOM      7  C   UNL     1      -0.517  14.902  19.776  0.00  0.00    +0.000 A 
ATOM      8  C   UNL     1      -1.311  14.085  20.549  0.00  0.00    +0.000 A 
ATOM      9  C   UNL     1      -1.109  12.702  20.558  0.00  0.00    +0.000 A 
ATOM     10  C   UNL     1      -0.054  12.070  19.770  0.00  0.00    +0.000 A 
ENDROOT
BRANCH   4  11
ATOM     11  N   UNL     1       2.705  13.213  17.473  0.00  0.00    +0.000 N 
ATOM     12  H   UNL     1       3.719  13.168  17.633  0.00  0.00    +0.000 HD
ATOM     13  H   UNL     1       2.390  13.865  16.746  0.00  0.00    +0.000 HD
ENDBRANCH   4  11
BRANCH   2  14
ATOM     14  C   UNL     1       1.588   8.622  18.803  0.00  0.00    +0.000 C 
ATOM     15  C   UNL     1       2.618   7.934  18.115  0.00  0.00    +0.000 C 
BRANCH  15  16
ATOM     16  C   UNL     1       2.849   6.405  18.357  0.00  0.00    +0.000 A 
ATOM     17  C   UNL     1       3.734   5.783  17.491  0.00  0.00    +0.000 A 
ATOM     18  N   UNL     1       3.772   4.478  17.670  0.00  0.00    +0.000 N 
ATOM     19  C   UNL     1       2.811   4.167  18.515  0.00  0.00    +0.000 A 
ATOM     20  C   UNL     1       2.297   2.880  18.642  0.00  0.00    +0.000 A 
ATOM     21  C   UNL     1       1.394   2.611  19.649  0.00  0.00    +0.000 A 
ATOM     22  C   UNL     1       1.167   3.605  20.614  0.00  0.00    +0.000 A 
ATOM     23  C   UNL     1       1.626   4.956  20.402  0.00  0.00    +0.000 A 
ATOM     24  C   UNL     1       2.365   5.281  19.200  0.00  0.00    +0.000 A 
ATOM     25  H   UNL     1       4.431   3.826  17.212  0.00  0.00    +0.000 HD
ENDBRANCH  15  16
ENDBRANCH   2  14
BRANCH   1  26
ATOM     26  C   UNL     1      -0.767   9.779  20.491  0.00  0.00    +0.000 C 
BRANCH  26  27
ATOM     27  C   UNL     1      -0.160   8.806  21.514  0.00  0.00    +0.000 C 
BRANCH  27  29
ATOM     28  C   UNL     1      -1.020  10.404  23.200  0.00  0.00    +0.000 C 
ATOM     29  C   UNL     1       0.092   9.394  22.900  0.00  0.00    +0.000 C 
ENDBRANCH  27  29
ENDBRANCH  26  27
ENDBRANCH   1  26
TORSDOF 6
ENDMDL
MODEL 5
REMARK VINA RESULT:      -7.6      7.163      8.734
REMARK  Name = 
REMARK  7 active torsions:
REMARK  status: ('A' for Active; 'I' for Inactive)
REMARK    1  A    between atoms: C_1  and  C_2
REMARK    2  A    between atoms: C_2  and  C_3
REMARK    3  A    between atoms: C_3  and  C_4
REMARK    4  A    between atoms: C_4  and  N_5
REMARK    5  A    between atoms: C_6  and  C_7
REMARK    6  A    between atoms: C_8  and  C_9
REMARK    7  A    between atoms: C_19  and  N_20
REMARK                            x       y       z     vdW  Elec       q    Type
REMARK                         _______ _______ _______ _____ _____    ______ ____
ROOT
ATOM      1  N   UNL     1       9.628  12.059  19.995  0.00  0.00    +0.000 N 
ATOM      2  C   UNL     1       9.800  11.089  18.917  0.00  0.00    +0.000 A 
ATOM      3  C   UNL     1      10.693  11.368  17.909  0.00  0.00    +0.000 A 
ATOM      4  C   UNL     1      11.449  12.561  17.862  0.00  0.00    +0.000 A 
ATOM      5  C   UNL     1      11.303  13.528  18.872  0.00  0.00    +0.000 A 
ATOM      6  C   UNL     1      12.050  14.744  18.840  0.00  0.00    +0.000 A 
ATOM      7  C   UNL     1      11.927  15.699  19.841  0.00  0.00    +0.000 A 
ATOM      8  C   UNL     1      11.093  15.472  20.911  0.00  0.00    +0.000 A 
ATOM      9  C   UNL     1      10.338  14.297  20.984  0.00  0.00    +0.000 A 
ATOM     10  C   UNL     1      10.409  13.268  19.951  0.00  0.00    +0.000 A 
ENDROOT
BRANCH   4  11
ATOM     11  N   UNL     1      12.333  12.723  16.757  0.00  0.00    +0.000 N 
ATOM     12  H   UNL     1      12.158  12.220  15.879  0.00  0.00    +0.000 HD
ATOM     13  H   UNL     1      13.169  13.317  16.779  0.00  0.00    +0.000 HD
ENDBRANCH   4  11
BRANCH   2  14
ATOM     14  C   UNL     1       9.003   9.766  18.820  0.00  0.00    +0.000 C 
ATOM     15  C   UNL     1       8.124   9.258  17.831  0.00  0.00    +0.000 C 
BRANCH  15  16
ATOM     16  C   UNL     1       7.653   7.766  17.878  0.00  0.00    +0.000 A 
ATOM     17  C   UNL     1       8.261   6.970  18.836  0.00  0.00    +0.000 A 
ATOM     18  N   UNL     1       7.914   5.704  18.725  0.00  0.00    +0.000 N 
ATOM     19  C   UNL     1       7.222   5.580  17.611  0.00  0.00    +0.000 A 
ATOM     20  C   UNL     1       7.029   4.361  16.968  0.00  0.00    +0.000 A 
ATOM     21  C   UNL     1       6.173   4.298  15.888  0.00  0.00    +0.000 A 
ATOM     22  C   UNL     1       5.399   5.430  15.592  0.00  0.00    +0.000 A 
ATOM     23  C   UNL     1       5.694   6.705  16.201  0.00  0.00    +0.000 A 
ATOM     24  C   UNL     1       6.775   6.807  17.159  0.00  0.00    +0.000 A 
ATOM     25  H   UNL     1       8.160   4.951  19.390  0.00  0.00    +0.000 HD
ENDBRANCH  15  16
ENDBRANCH   2  14
BRANCH   1  26
ATOM     26  C   UNL     1       8.657  11.882  21.085  0.00  0.00    +0.000 C 
BRANCH  26  27
ATOM     27  C   UNL     1       9.186  11.983  22.526  0.00  0.00    +0.000 C 
BRANCH  27  29
ATOM     28  C   UNL     1       7.282  13.479  23.049  0.00  0.00    +0.000 C 
ATOM     29  C   UNL     1       8.137  12.324  23.580  0.00  0.00    +0.000 C 
ENDBRANCH  27  29
ENDBRANCH  26  27
ENDBRANCH   1  26
TORSDOF 6
ENDMDL
MODEL 6
REMARK VINA RESULT:      -7.4      3.201      6.081
REMARK  Name = 
REMARK  7 active torsions:
REMARK  status: ('A' for Active; 'I' for Inactive)
REMARK    1  A    between atoms: C_1  and  C_2
REMARK    2  A    between atoms: C_2  and  C_3
REMARK    3  A    between atoms: C_3  and  C_4
REMARK    4  A    between atoms: C_4  and  N_5
REMARK    5  A    between atoms: C_6  and  C_7
REMARK    6  A    between atoms: C_8  and  C_9
REMARK    7  A    between atoms: C_19  and  N_20
REMARK                            x       y       z     vdW  Elec       q    Type
REMARK                         _______ _______ _______ _____ _____    ______ ____
ROOT
ATOM      1  N   UNL     1       0.226  11.248  19.121  0.00  0.00    +0.000 N 
ATOM      2  C   UNL     1       1.465  10.673  18.607  0.00  0.00    +0.000 A 
ATOM      3  C   UNL     1       2.464  11.518  18.185  0.00  0.00    +0.000 A 
ATOM      4  C   UNL     1       2.343  12.926  18.216  0.00  0.00    +0.000 A 
ATOM      5  C   UNL     1       1.160  13.521  18.690  0.00  0.00    +0.000 A 
ATOM      6  C   UNL     1       1.011  14.940  18.723  0.00  0.00    +0.000 A 
ATOM      7  C   UNL     1      -0.145  15.539  19.205  0.00  0.00    +0.000 A 
ATOM      8  C   UNL     1      -1.171  14.762  19.693  0.00  0.00    +0.000 A 
ATOM      9  C   UNL     1      -1.072  13.368  19.678  0.00  0.00    +0.000 A 
ATOM     10  C   UNL     1       0.109  12.682  19.163  0.00  0.00    +0.000 A 
ENDROOT
BRANCH   4  11
ATOM     11  N   UNL     1       3.453  13.682  17.743  0.00  0.00    +0.000 N 
ATOM     12  H   UNL     1       3.623  13.772  16.734  0.00  0.00    +0.000 HD
ATOM     13  H   UNL     1       4.127  14.150  18.359  0.00  0.00    +0.000 HD
ENDBRANCH   4  11
BRANCH   2  14
ATOM     14  C   UNL     1       1.714   9.151  18.472  0.00  0.00    +0.000 C 
ATOM     15  C   UNL     1       2.804   8.409  17.954  0.00  0.00    +0.000 C 
BRANCH  15  16
ATOM     16  C   UNL     1       2.890   6.863  18.179  0.00  0.00    +0.000 A 
ATOM     17  C   UNL     1       3.676   6.163  17.277  0.00  0.00    +0.000 A 
ATOM     18  N   UNL     1       3.590   4.860  17.449  0.00  0.00    +0.000 N 
ATOM     19  C   UNL     1       2.634   4.638  18.326  0.00  0.00    +0.000 A 
ATOM     20  C   UNL     1       1.999   3.408  18.465  0.00  0.00    +0.000 A 
ATOM     21  C   UNL     1       1.111   3.221  19.503  0.00  0.00    +0.000 A 
ATOM     22  C   UNL     1       1.019   4.224  20.481  0.00  0.00    +0.000 A 
ATOM     23  C   UNL     1       1.603   5.524  20.260  0.00  0.00    +0.000 A 
ATOM     24  C   UNL     1       2.327   5.785  19.033  0.00  0.00    +0.000 A 
ATOM     25  H   UNL     1       4.164   4.149  16.963  0.00  0.00    +0.000 HD
ENDBRANCH  15  16
ENDBRANCH   2  14
BRANCH   1  26
ATOM     26  C   UNL     1      -0.923  10.431  19.540  0.00  0.00    +0.000 C 
BRANCH  26  27
ATOM     27  C   UNL     1      -1.828   9.863  18.434  0.00  0.00    +0.000 C 
BRANCH  27  29
ATOM     28  C   UNL     1      -2.709   9.952  16.121  0.00  0.00    +0.000 C 
ATOM     29  C   UNL     1      -1.998  10.760  17.211  0.00  0.00    +0.000 C 
ENDBRANCH  27  29
ENDBRANCH  26  27
ENDBRANCH   1  26
TORSDOF 6
ENDMDL
MODEL 7
REMARK VINA RESULT:      -7.4      1.639      2.373
REMARK  Name = 
REMARK  7 active torsions:
REMARK  status: ('A' for Active; 'I' for Inactive)
REMARK    1  A    between atoms: C_1  and  C_2
REMARK    2  A    between atoms: C_2  and  C_3
REMARK    3  A    between atoms: C_3  and  C_4
REMARK    4  A    between atoms: C_4  and  N_5
REMARK    5  A    between atoms: C_6  and  C_7
REMARK    6  A    between atoms: C_8  and  C_9
REMARK    7  A    between atoms: C_19  and  N_20
REMARK                            x       y       z     vdW  Elec       q    Type
REMARK                         _______ _______ _______ _____ _____    ______ ____
ROOT
ATOM      1  N   UNL     1       1.352   8.328  20.376  0.00  0.00    +0.000 N 
ATOM      2  C   UNL     1       1.747   8.536  18.986  0.00  0.00    +0.000 A 
ATOM      3  C   UNL     1       1.350   9.687  18.348  0.00  0.00    +0.000 A 
ATOM      4  C   UNL     1       0.564  10.681  18.976  0.00  0.00    +0.000 A 
ATOM      5  C   UNL     1       0.149  10.513  20.309  0.00  0.00    +0.000 A 
ATOM      6  C   UNL     1      -0.653  11.498  20.960  0.00  0.00    +0.000 A 
ATOM      7  C   UNL     1      -1.054  11.352  22.282  0.00  0.00    +0.000 A 
ATOM      8  C   UNL     1      -0.654  10.251  23.005  0.00  0.00    +0.000 A 
ATOM      9  C   UNL     1       0.128   9.258  22.408  0.00  0.00    +0.000 A 
ATOM     10  C   UNL     1       0.561   9.346  21.016  0.00  0.00    +0.000 A 
ENDROOT
BRANCH   4  11
ATOM     11  N   UNL     1       0.219  11.822  18.196  0.00  0.00    +0.000 N 
ATOM     12  H   UNL     1       0.797  12.670  18.241  0.00  0.00    +0.000 HD
ATOM     13  H   UNL     1      -0.599  11.864  17.579  0.00  0.00    +0.000 HD
ENDBRANCH   4  11
BRANCH   2  14
ATOM     14  C   UNL     1       2.566   7.511  18.165  0.00  0.00    +0.000 C 
ATOM     15  C   UNL     1       3.690   6.712  18.492  0.00  0.00    +0.000 C 
BRANCH  15  16
ATOM     16  C   UNL     1       4.158   5.569  17.532  0.00  0.00    +0.000 A 
ATOM     17  C   UNL     1       3.950   4.276  17.984  0.00  0.00    +0.000 A 
ATOM     18  N   UNL     1       4.490   3.377  17.187  0.00  0.00    +0.000 N 
ATOM     19  C   UNL     1       5.213   4.021  16.295  0.00  0.00    +0.000 A 
ATOM     20  C   UNL     1       6.221   3.416  15.551  0.00  0.00    +0.000 A 
ATOM     21  C   UNL     1       6.830   4.127  14.538  0.00  0.00    +0.000 A 
ATOM     22  C   UNL     1       6.285   5.371  14.185  0.00  0.00    +0.000 A 
ATOM     23  C   UNL     1       5.315   6.019  15.034  0.00  0.00    +0.000 A 
ATOM     24  C   UNL     1       4.869   5.359  16.244  0.00  0.00    +0.000 A 
ATOM     25  H   UNL     1       4.374   2.352  17.269  0.00  0.00    +0.000 HD
ENDBRANCH  15  16
ENDBRANCH   2  14
BRANCH   1  26
ATOM     26  C   UNL     1       1.675   7.105  21.127  0.00  0.00    +0.000 C 
BRANCH  26  27
ATOM     27  C   UNL     1       0.997   5.800  20.677  0.00  0.00    +0.000 C 
BRANCH  27  29
ATOM     28  C   UNL     1       1.068   3.358  20.271  0.00  0.00    +0.000 C 
ATOM     29  C   UNL     1       1.805   4.530  20.926  0.00  0.00    +0.000 C 
ENDBRANCH  27  29
ENDBRANCH  26  27
ENDBRANCH   1  26
TORSDOF 6
ENDMDL
MODEL 8
REMARK VINA RESULT:      -7.3      2.526      5.346
REMARK  Name = 
REMARK  7 active torsions:
REMARK  status: ('A' for Active; 'I' for Inactive)
REMARK    1  A    between atoms: C_1  and  C_2
REMARK    2  A    between atoms: C_2  and  C_3
REMARK    3  A    between atoms: C_3  and  C_4
REMARK    4  A    between atoms: C_4  and  N_5
REMARK    5  A    between atoms: C_6  and  C_7
REMARK    6  A    between atoms: C_8  and  C_9
REMARK    7  A    between atoms: C_19  and  N_20
REMARK                            x       y       z     vdW  Elec       q    Type
REMARK                         _______ _______ _______ _____ _____    ______ ____
ROOT
ATOM      1  N   UNL     1       0.534  10.486  19.801  0.00  0.00    +0.000 N 
ATOM      2  C   UNL     1       1.008   9.203  20.313  0.00  0.00    +0.000 A 
ATOM      3  C   UNL     1       0.732   8.867  21.618  0.00  0.00    +0.000 A 
ATOM      4  C   UNL     1       0.016   9.714  22.494  0.00  0.00    +0.000 A 
ATOM      5  C   UNL     1      -0.445  10.964  22.046  0.00  0.00    +0.000 A 
ATOM      6  C   UNL     1      -1.163  11.839  22.915  0.00  0.00    +0.000 A 
ATOM      7  C   UNL     1      -1.639  13.069  22.479  0.00  0.00    +0.000 A 
ATOM      8  C   UNL     1      -1.449  13.456  21.172  0.00  0.00    +0.000 A 
ATOM      9  C   UNL     1      -0.749  12.634  20.284  0.00  0.00    +0.000 A 
ATOM     10  C   UNL     1      -0.206  11.341  20.692  0.00  0.00    +0.000 A 
ENDROOT
BRANCH   4  11
ATOM     11  N   UNL     1      -0.194   9.242  23.822  0.00  0.00    +0.000 N 
ATOM     12  H   UNL     1       0.183   9.767  24.621  0.00  0.00    +0.000 HD
ATOM     13  H   UNL     1      -0.701   8.379  24.046  0.00  0.00    +0.000 HD
ENDBRANCH   4  11
BRANCH   2  14
ATOM     14  C   UNL     1       1.842   8.202  19.478  0.00  0.00    +0.000 C 
ATOM     15  C   UNL     1       2.226   6.858  19.713  0.00  0.00    +0.000 C 
BRANCH  15  16
ATOM     16  C   UNL     1       2.865   6.004  18.568  0.00  0.00    +0.000 A 
ATOM     17  C   UNL     1       2.207   4.825  18.254  0.00  0.00    +0.000 A 
ATOM     18  N   UNL     1       2.876   4.099  17.381  0.00  0.00    +0.000 N 
ATOM     19  C   UNL     1       4.055   4.662  17.220  0.00  0.00    +0.000 A 
ATOM     20  C   UNL     1       5.154   3.988  16.694  0.00  0.00    +0.000 A 
ATOM     21  C   UNL     1       6.309   4.691  16.426  0.00  0.00    +0.000 A 
ATOM     22  C   UNL     1       6.270   6.090  16.528  0.00  0.00    +0.000 A 
ATOM     23  C   UNL     1       5.161   6.751  17.173  0.00  0.00    +0.000 A 
ATOM     24  C   UNL     1       4.057   5.964  17.682  0.00  0.00    +0.000 A 
ATOM     25  H   UNL     1       2.531   3.237  16.926  0.00  0.00    +0.000 HD
ENDBRANCH  15  16
ENDBRANCH   2  14
BRANCH   1  26
ATOM     26  C   UNL     1       0.827  10.964  18.441  0.00  0.00    +0.000 C 
BRANCH  26  27
ATOM     27  C   UNL     1       2.217  11.570  18.190  0.00  0.00    +0.000 C 
BRANCH  27  29
ATOM     28  C   UNL     1       2.715  13.644  19.450  0.00  0.00    +0.000 C 
ATOM     29  C   UNL     1       2.254  13.093  18.098  0.00  0.00    +0.000 C 
ENDBRANCH  27  29
ENDBRANCH  26  27
ENDBRANCH   1  26
TORSDOF 6
ENDMDL
MODEL 9
REMARK VINA RESULT:      -7.3      3.188      8.847
REMARK  Name = 
REMARK  7 active torsions:
REMARK  status: ('A' for Active; 'I' for Inactive)
REMARK    1  A    between atoms: C_1  and  C_2
REMARK    2  A    between atoms: C_2  and  C_3
REMARK    3  A    between atoms: C_3  and  C_4
REMARK    4  A    between atoms: C_4  and  N_5
REMARK    5  A    between atoms: C_6  and  C_7
REMARK    6  A    between atoms: C_8  and  C_9
REMARK    7  A    between atoms: C_19  and  N_20
REMARK                            x       y       z     vdW  Elec       q    Type
REMARK                         _______ _______ _______ _____ _____    ______ ____
ROOT
ATOM      1  N   UNL     1       2.161   5.855  19.045  0.00  0.00    +0.000 N 
ATOM      2  C   UNL     1       1.719   5.999  20.429  0.00  0.00    +0.000 A 
ATOM      3  C   UNL     1       1.871   4.937  21.288  0.00  0.00    +0.000 A 
ATOM      4  C   UNL     1       2.427   3.700  20.890  0.00  0.00    +0.000 A 
ATOM      5  C   UNL     1       2.851   3.514  19.562  0.00  0.00    +0.000 A 
ATOM      6  C   UNL     1       3.408   2.271  19.134  0.00  0.00    +0.000 A 
ATOM      7  C   UNL     1       3.846   2.080  17.831  0.00  0.00    +0.000 A 
ATOM      8  C   UNL     1       3.776   3.113  16.923  0.00  0.00    +0.000 A 
ATOM      9  C   UNL     1       3.235   4.347  17.295  0.00  0.00    +0.000 A 
ATOM     10  C   UNL     1       2.738   4.599  18.645  0.00  0.00    +0.000 A 
ENDROOT
BRANCH   4  11
ATOM     11  N   UNL     1       2.520   2.682  21.882  0.00  0.00    +0.000 N 
ATOM     12  H   UNL     1       2.319   1.705  21.638  0.00  0.00    +0.000 HD
ATOM     13  H   UNL     1       2.770   2.862  22.860  0.00  0.00    +0.000 HD
ENDBRANCH   4  11
BRANCH   2  14
ATOM     14  C   UNL     1       1.051   7.279  20.987  0.00  0.00    +0.000 C 
ATOM     15  C   UNL     1       1.578   8.411  21.656  0.00  0.00    +0.000 C 
BRANCH  15  16
ATOM     16  C   UNL     1       0.694   9.682  21.883  0.00  0.00    +0.000 A 
ATOM     17  C   UNL     1      -0.196   9.619  22.943  0.00  0.00    +0.000 A 
ATOM     18  N   UNL     1      -0.995  10.666  22.986  0.00  0.00    +0.000 N 
ATOM     19  C   UNL     1      -0.796  11.361  21.885  0.00  0.00    +0.000 A 
ATOM     20  C   UNL     1      -1.709  12.291  21.398  0.00  0.00    +0.000 A 
ATOM     21  C   UNL     1      -1.359  13.077  20.320  0.00  0.00    +0.000 A 
ATOM     22  C   UNL     1      -0.030  13.028  19.872  0.00  0.00    +0.000 A 
ATOM     23  C   UNL     1       0.862  11.987  20.320  0.00  0.00    +0.000 A 
ATOM     24  C   UNL     1       0.392  11.005  21.275  0.00  0.00    +0.000 A 
ATOM     25  H   UNL     1      -1.664  10.882  23.744  0.00  0.00    +0.000 HD
ENDBRANCH  15  16
ENDBRANCH   2  14
BRANCH   1  26
ATOM     26  C   UNL     1       1.989   6.909  18.034  0.00  0.00    +0.000 C 
BRANCH  26  27
ATOM     27  C   UNL     1       2.960   8.100  18.083  0.00  0.00    +0.000 C 
BRANCH  27  29
ATOM     28  C   UNL     1       0.796   9.293  17.913  0.00  0.00    +0.000 C 
ATOM     29  C   UNL     1       2.317   9.471  17.891  0.00  0.00    +0.000 C 
ENDBRANCH  27  29
ENDBRANCH  26  27
ENDBRANCH   1  26
TORSDOF 6
ENDMDL
