MODEL 1
REMARK VINA RESULT:      -9.7      0.000      0.000
REMARK  Name = 
REMARK  5 active torsions:
REMARK  status: ('A' for Active; 'I' for Inactive)
REMARK    1  A    between atoms: C_2  and  C_3
REMARK    2  A    between atoms: N_5  and  C_6
REMARK    3  A    between atoms: C_18  and  C_19
REMARK    4  A    between atoms: C_19  and  C_20
REMARK    5  A    between atoms: C_23  and  C_24
REMARK                            x       y       z     vdW  Elec       q    Type
REMARK                         _______ _______ _______ _____ _____    ______ ____
ROOT
ATOM      1  C   UNL     1       4.365   2.266  20.424  0.00  0.00    +0.000 A 
ATOM      2  N   UNL     1       5.254   2.648  19.499  0.00  0.00    +0.000 NA
ATOM      3  N   UNL     1       4.629   3.589  18.734  0.00  0.00    +0.000 N 
ATOM      4  C   UNL     1       3.384   3.910  19.269  0.00  0.00    +0.000 A 
ATOM      5  C   UNL     1       3.187   3.033  20.328  0.00  0.00    +0.000 A 
ATOM      6  C   UNL     1       2.003   3.051  21.232  0.00  0.00    +0.000 C 
ATOM      7  C   UNL     1       0.860   3.869  20.626  0.00  0.00    +0.000 C 
ATOM      8  C   UNL     1       1.366   5.203  20.070  0.00  0.00    +0.000 C 
ATOM      9  C   UNL     1       2.428   5.041  18.934  0.00  0.00    +0.000 C 
ENDROOT
BRANCH   3  10
ATOM     10  C   UNL     1       5.315   4.061  17.577  0.00  0.00    +0.000 A 
ATOM     11  C   UNL     1       4.778   3.926  16.293  0.00  0.00    +0.000 A 
ATOM     12  C   UNL     1       5.488   4.394  15.184  0.00  0.00    +0.000 A 
ATOM     13  C   UNL     1       6.749   4.953  15.352  0.00  0.00    +0.000 A 
ATOM     14  F   UNL     1       7.439   5.361  14.279  0.00  0.00    +0.000 F 
ATOM     15  C   UNL     1       7.313   5.074  16.614  0.00  0.00    +0.000 A 
ATOM     16  C   UNL     1       6.596   4.630  17.729  0.00  0.00    +0.000 A 
ENDBRANCH   3  10
BRANCH   1  18
ATOM     17  O   UNL     1       5.840   0.966  21.760  0.00  0.00    +0.000 OA
ATOM     18  C   UNL     1       4.698   1.226  21.390  0.00  0.00    +0.000 C 
ENDBRANCH   1  18
BRANCH   9  19
ATOM     19  C   UNL     1       3.036   6.440  18.666  0.00  0.00    +0.000 C 
BRANCH  19  20
ATOM     20  C   UNL     1       2.215   7.682  18.899  0.00  0.00    +0.000 A 
ATOM     21  C   UNL     1       1.774   8.089  20.157  0.00  0.00    +0.000 A 
ATOM     22  C   UNL     1       1.075   9.272  20.331  0.00  0.00    +0.000 A 
ATOM     23  C   UNL     1       0.805  10.118  19.254  0.00  0.00    +0.000 A 
ATOM     24  C   UNL     1       1.243   9.714  17.986  0.00  0.00    +0.000 A 
ATOM     25  C   UNL     1       1.934   8.511  17.808  0.00  0.00    +0.000 A 
BRANCH  23  26
ATOM     26  C   UNL     1       0.091  11.392  19.470  0.00  0.00    +0.000 A 
ATOM     27  C   UNL     1      -1.043  11.458  20.303  0.00  0.00    +0.000 A 
ATOM     28  C   UNL     1      -1.747  12.649  20.480  0.00  0.00    +0.000 A 
ATOM     29  C   UNL     1      -1.315  13.806  19.841  0.00  0.00    +0.000 A 
ATOM     30  C   UNL     1      -0.188  13.772  19.023  0.00  0.00    +0.000 A 
ATOM     31  C   UNL     1       0.501  12.574  18.833  0.00  0.00    +0.000 A 
ENDBRANCH  23  26
ENDBRANCH  19  20
ENDBRANCH   9  19
TORSDOF 5
ENDMDL
MODEL 2
REMARK VINA RESULT:      -9.6      0.661      1.108
REMARK  Name = 
REMARK  5 active torsions:
REMARK  status: ('A' for Active; 'I' for Inactive)
REMARK    1  A    between atoms: C_2  and  C_3
REMARK    2  A    between atoms: N_5  and  C_6
REMARK    3  A    between atoms: C_18  and  C_19
REMARK    4  A    between atoms: C_19  and  C_20
REMARK    5  A    between atoms: C_23  and  C_24
REMARK                            x       y       z     vdW  Elec       q    Type
REMARK                         _______ _______ _______ _____ _____    ______ ____
ROOT
ATOM      1  C   UNL     1       4.391   2.259  20.357  0.00  0.00    +0.000 A 
ATOM      2  N   UNL     1       5.277   2.654  19.436  0.00  0.00    +0.000 NA
ATOM      3  N   UNL     1       4.643   3.592  18.674  0.00  0.00    +0.000 N 
ATOM      4  C   UNL     1       3.393   3.898  19.209  0.00  0.00    +0.000 A 
ATOM      5  C   UNL     1       3.204   3.013  20.263  0.00  0.00    +0.000 A 
ATOM      6  C   UNL     1       2.019   3.014  21.166  0.00  0.00    +0.000 C 
ATOM      7  C   UNL     1       0.868   3.823  20.562  0.00  0.00    +0.000 C 
ATOM      8  C   UNL     1       1.360   5.164  20.013  0.00  0.00    +0.000 C 
ATOM      9  C   UNL     1       2.426   5.019  18.878  0.00  0.00    +0.000 C 
ENDROOT
BRANCH   3  10
ATOM     10  C   UNL     1       5.325   4.078  17.521  0.00  0.00    +0.000 A 
ATOM     11  C   UNL     1       4.790   3.946  16.236  0.00  0.00    +0.000 A 
ATOM     12  C   UNL     1       5.496   4.427  15.129  0.00  0.00    +0.000 A 
ATOM     13  C   UNL     1       6.752   4.996  15.302  0.00  0.00    +0.000 A 
ATOM     14  F   UNL     1       7.439   5.416  14.231  0.00  0.00    +0.000 F 
ATOM     15  C   UNL     1       7.314   5.114  16.565  0.00  0.00    +0.000 A 
ATOM     16  C   UNL     1       6.601   4.657  17.676  0.00  0.00    +0.000 A 
ENDBRANCH   3  10
BRANCH   1  18
ATOM     17  O   UNL     1       5.820   1.130  21.885  0.00  0.00    +0.000 OA
ATOM     18  C   UNL     1       4.734   1.217  21.318  0.00  0.00    +0.000 C 
ENDBRANCH   1  18
BRANCH   9  19
ATOM     19  C   UNL     1       3.019   6.426  18.617  0.00  0.00    +0.000 C 
BRANCH  19  20
ATOM     20  C   UNL     1       2.209   7.660  18.924  0.00  0.00    +0.000 A 
ATOM     21  C   UNL     1       1.719   8.523  17.945  0.00  0.00    +0.000 A 
ATOM     22  C   UNL     1       0.926   9.611  18.271  0.00  0.00    +0.000 A 
ATOM     23  C   UNL     1       0.567   9.874  19.593  0.00  0.00    +0.000 A 
ATOM     24  C   UNL     1       1.058   9.013  20.584  0.00  0.00    +0.000 A 
ATOM     25  C   UNL     1       1.873   7.924  20.256  0.00  0.00    +0.000 A 
BRANCH  23  26
ATOM     26  C   UNL     1      -0.310  11.019  19.912  0.00  0.00    +0.000 A 
ATOM     27  C   UNL     1      -0.216  11.683  21.151  0.00  0.00    +0.000 A 
ATOM     28  C   UNL     1      -1.069  12.738  21.475  0.00  0.00    +0.000 A 
ATOM     29  C   UNL     1      -2.019  13.165  20.554  0.00  0.00    +0.000 A 
ATOM     30  C   UNL     1      -2.123  12.534  19.317  0.00  0.00    +0.000 A 
ATOM     31  C   UNL     1      -1.282  11.466  19.005  0.00  0.00    +0.000 A 
ENDBRANCH  23  26
ENDBRANCH  19  20
ENDBRANCH   9  19
TORSDOF 5
ENDMDL
MODEL 3
REMARK VINA RESULT:      -9.4      0.622      1.554
REMARK  Name = 
REMARK  5 active torsions:
REMARK  status: ('A' for Active; 'I' for Inactive)
REMARK    1  A    between atoms: C_2  and  C_3
REMARK    2  A    between atoms: N_5  and  C_6
REMARK    3  A    between atoms: C_18  and  C_19
REMARK    4  A    between atoms: C_19  and  C_20
REMARK    5  A    between atoms: C_23  and  C_24
REMARK                            x       y       z     vdW  Elec       q    Type
REMARK                         _______ _______ _______ _____ _____    ______ ____
ROOT
ATOM      1  C   UNL     1       4.399   2.274  20.266  0.00  0.00    +0.000 A 
ATOM      2  N   UNL     1       5.302   2.669  19.362  0.00  0.00    +0.000 NA
ATOM      3  N   UNL     1       4.669   3.575  18.561  0.00  0.00    +0.000 N 
ATOM      4  C   UNL     1       3.398   3.863  19.053  0.00  0.00    +0.000 A 
ATOM      5  C   UNL     1       3.199   2.999  20.122  0.00  0.00    +0.000 A 
ATOM      6  C   UNL     1       1.989   2.992  20.990  0.00  0.00    +0.000 C 
ATOM      7  C   UNL     1       0.837   3.760  20.336  0.00  0.00    +0.000 C 
ATOM      8  C   UNL     1       1.315   5.100  19.771  0.00  0.00    +0.000 C 
ATOM      9  C   UNL     1       2.415   4.954  18.669  0.00  0.00    +0.000 C 
ENDROOT
BRANCH   3  10
ATOM     10  C   UNL     1       5.373   4.050  17.416  0.00  0.00    +0.000 A 
ATOM     11  C   UNL     1       6.618   4.678  17.523  0.00  0.00    +0.000 A 
ATOM     12  C   UNL     1       7.272   5.138  16.377  0.00  0.00    +0.000 A 
ATOM     13  C   UNL     1       6.662   5.015  15.134  0.00  0.00    +0.000 A 
ATOM     14  F   UNL     1       7.278   5.496  14.046  0.00  0.00    +0.000 F 
ATOM     15  C   UNL     1       5.416   4.419  15.007  0.00  0.00    +0.000 A 
ATOM     16  C   UNL     1       4.771   3.934  16.147  0.00  0.00    +0.000 A 
ENDBRANCH   3  10
BRANCH   1  18
ATOM     17  O   UNL     1       5.808   1.214  21.861  0.00  0.00    +0.000 OA
ATOM     18  C   UNL     1       4.738   1.263  21.261  0.00  0.00    +0.000 C 
ENDBRANCH   1  18
BRANCH   9  19
ATOM     19  C   UNL     1       2.984   6.368  18.393  0.00  0.00    +0.000 C 
BRANCH  19  20
ATOM     20  C   UNL     1       2.234   7.592  18.855  0.00  0.00    +0.000 A 
ATOM     21  C   UNL     1       1.729   8.559  17.987  0.00  0.00    +0.000 A 
ATOM     22  C   UNL     1       0.991   9.635  18.453  0.00  0.00    +0.000 A 
ATOM     23  C   UNL     1       0.704   9.781  19.811  0.00  0.00    +0.000 A 
ATOM     24  C   UNL     1       1.211   8.815  20.690  0.00  0.00    +0.000 A 
ATOM     25  C   UNL     1       1.971   7.737  20.221  0.00  0.00    +0.000 A 
BRANCH  23  26
ATOM     26  C   UNL     1      -0.115  10.917  20.279  0.00  0.00    +0.000 A 
ATOM     27  C   UNL     1      -0.824  11.725  19.370  0.00  0.00    +0.000 A 
ATOM     28  C   UNL     1      -1.567  12.824  19.801  0.00  0.00    +0.000 A 
ATOM     29  C   UNL     1      -1.633  13.122  21.157  0.00  0.00    +0.000 A 
ATOM     30  C   UNL     1      -0.952  12.331  22.079  0.00  0.00    +0.000 A 
ATOM     31  C   UNL     1      -0.194  11.245  21.641  0.00  0.00    +0.000 A 
ENDBRANCH  23  26
ENDBRANCH  19  20
ENDBRANCH   9  19
TORSDOF 5
ENDMDL
MODEL 4
REMARK VINA RESULT:      -9.4      0.553      1.143
REMARK  Name = 
REMARK  5 active torsions:
REMARK  status: ('A' for Active; 'I' for Inactive)
REMARK    1  A    between atoms: C_2  and  C_3
REMARK    2  A    between atoms: N_5  and  C_6
REMARK    3  A    between atoms: C_18  and  C_19
REMARK    4  A    between atoms: C_19  and  C_20
REMARK    5  A    between atoms: C_23  and  C_24
REMARK                            x       y       z     vdW  Elec       q    Type
REMARK                         _______ _______ _______ _____ _____    ______ ____
ROOT
ATOM      1  C   UNL     1       4.400   2.255  20.420  0.00  0.00    +0.000 A 
ATOM      2  N   UNL     1       5.306   2.668  19.526  0.00  0.00    +0.000 NA
ATOM      3  N   UNL     1       4.677   3.591  18.742  0.00  0.00    +0.000 N 
ATOM      4  C   UNL     1       3.405   3.870  19.237  0.00  0.00    +0.000 A 
ATOM      5  C   UNL     1       3.201   2.984  20.287  0.00  0.00    +0.000 A 
ATOM      6  C   UNL     1       1.989   2.961  21.151  0.00  0.00    +0.000 C 
ATOM      7  C   UNL     1       0.840   3.743  20.509  0.00  0.00    +0.000 C 
ATOM      8  C   UNL     1       1.321   5.094  19.973  0.00  0.00    +0.000 C 
ATOM      9  C   UNL     1       2.424   4.970  18.872  0.00  0.00    +0.000 C 
ENDROOT
BRANCH   3  10
ATOM     10  C   UNL     1       5.385   4.089  17.610  0.00  0.00    +0.000 A 
ATOM     11  C   UNL     1       6.481   4.947  17.744  0.00  0.00    +0.000 A 
ATOM     12  C   UNL     1       7.143   5.421  16.607  0.00  0.00    +0.000 A 
ATOM     13  C   UNL     1       6.682   5.077  15.342  0.00  0.00    +0.000 A 
ATOM     14  F   UNL     1       7.297   5.569  14.259  0.00  0.00    +0.000 F 
ATOM     15  C   UNL     1       5.580   4.247  15.186  0.00  0.00    +0.000 A 
ATOM     16  C   UNL     1       4.932   3.751  16.319  0.00  0.00    +0.000 A 
ENDBRANCH   3  10
BRANCH   1  18
ATOM     17  O   UNL     1       5.851   1.069  21.882  0.00  0.00    +0.000 OA
ATOM     18  C   UNL     1       4.735   1.223  21.394  0.00  0.00    +0.000 C 
ENDBRANCH   1  18
BRANCH   9  19
ATOM     19  C   UNL     1       2.995   6.389  18.627  0.00  0.00    +0.000 C 
BRANCH  19  20
ATOM     20  C   UNL     1       2.171   7.607  18.960  0.00  0.00    +0.000 A 
ATOM     21  C   UNL     1       1.796   7.953  20.256  0.00  0.00    +0.000 A 
ATOM     22  C   UNL     1       1.093   9.116  20.520  0.00  0.00    +0.000 A 
ATOM     23  C   UNL     1       0.750  10.002  19.497  0.00  0.00    +0.000 A 
ATOM     24  C   UNL     1       1.121   9.660  18.190  0.00  0.00    +0.000 A 
ATOM     25  C   UNL     1       1.817   8.476  17.922  0.00  0.00    +0.000 A 
BRANCH  23  26
ATOM     26  C   UNL     1       0.032  11.254  19.808  0.00  0.00    +0.000 A 
ATOM     27  C   UNL     1       0.616  12.245  20.621  0.00  0.00    +0.000 A 
ATOM     28  C   UNL     1      -0.072  13.412  20.952  0.00  0.00    +0.000 A 
ATOM     29  C   UNL     1      -1.354  13.620  20.456  0.00  0.00    +0.000 A 
ATOM     30  C   UNL     1      -1.950  12.663  19.639  0.00  0.00    +0.000 A 
ATOM     31  C   UNL     1      -1.266  11.488  19.327  0.00  0.00    +0.000 A 
ENDBRANCH  23  26
ENDBRANCH  19  20
ENDBRANCH   9  19
TORSDOF 5
ENDMDL
MODEL 5
REMARK VINA RESULT:      -9.4      1.010      1.653
REMARK  Name = 
REMARK  5 active torsions:
REMARK  status: ('A' for Active; 'I' for Inactive)
REMARK    1  A    between atoms: C_2  and  C_3
REMARK    2  A    between atoms: N_5  and  C_6
REMARK    3  A    between atoms: C_18  and  C_19
REMARK    4  A    between atoms: C_19  and  C_20
REMARK    5  A    between atoms: C_23  and  C_24
REMARK                            x       y       z     vdW  Elec       q    Type
REMARK                         _______ _______ _______ _____ _____    ______ ____
ROOT
ATOM      1  C   UNL     1       4.360   2.229  20.496  0.00  0.00    +0.000 A 
ATOM      2  N   UNL     1       5.275   2.690  19.636  0.00  0.00    +0.000 NA
ATOM      3  N   UNL     1       4.619   3.554  18.807  0.00  0.00    +0.000 N 
ATOM      4  C   UNL     1       3.309   3.750  19.238  0.00  0.00    +0.000 A 
ATOM      5  C   UNL     1       3.120   2.869  20.295  0.00  0.00    +0.000 A 
ATOM      6  C   UNL     1       1.874   2.774  21.105  0.00  0.00    +0.000 C 
ATOM      7  C   UNL     1       0.704   3.463  20.397  0.00  0.00    +0.000 C 
ATOM      8  C   UNL     1       1.113   4.835  19.857  0.00  0.00    +0.000 C 
ATOM      9  C   UNL     1       2.271   4.772  18.809  0.00  0.00    +0.000 C 
ENDROOT
BRANCH   3  10
ATOM     10  C   UNL     1       5.341   4.082  17.697  0.00  0.00    +0.000 A 
ATOM     11  C   UNL     1       6.429   4.944  17.868  0.00  0.00    +0.000 A 
ATOM     12  C   UNL     1       7.105   5.448  16.753  0.00  0.00    +0.000 A 
ATOM     13  C   UNL     1       6.667   5.129  15.473  0.00  0.00    +0.000 A 
ATOM     14  F   UNL     1       7.296   5.650  14.412  0.00  0.00    +0.000 F 
ATOM     15  C   UNL     1       5.574   4.296  15.281  0.00  0.00    +0.000 A 
ATOM     16  C   UNL     1       4.911   3.769  16.392  0.00  0.00    +0.000 A 
ENDBRANCH   3  10
BRANCH   1  18
ATOM     17  O   UNL     1       5.873   0.997  21.854  0.00  0.00    +0.000 OA
ATOM     18  C   UNL     1       4.721   1.240  21.504  0.00  0.00    +0.000 C 
ENDBRANCH   1  18
BRANCH   9  19
ATOM     19  C   UNL     1       2.752   6.223  18.562  0.00  0.00    +0.000 C 
BRANCH  19  20
ATOM     20  C   UNL     1       2.068   7.378  19.249  0.00  0.00    +0.000 A 
ATOM     21  C   UNL     1       1.798   7.410  20.616  0.00  0.00    +0.000 A 
ATOM     22  C   UNL     1       1.224   8.519  21.214  0.00  0.00    +0.000 A 
ATOM     23  C   UNL     1       0.915   9.661  20.474  0.00  0.00    +0.000 A 
ATOM     24  C   UNL     1       1.181   9.636  19.098  0.00  0.00    +0.000 A 
ATOM     25  C   UNL     1       1.745   8.508  18.492  0.00  0.00    +0.000 A 
BRANCH  23  26
ATOM     26  C   UNL     1       0.338  10.846  21.141  0.00  0.00    +0.000 A 
ATOM     27  C   UNL     1       0.695  12.149  20.744  0.00  0.00    +0.000 A 
ATOM     28  C   UNL     1       0.186  13.272  21.396  0.00  0.00    +0.000 A 
ATOM     29  C   UNL     1      -0.711  13.112  22.446  0.00  0.00    +0.000 A 
ATOM     30  C   UNL     1      -1.092  11.835  22.849  0.00  0.00    +0.000 A 
ATOM     31  C   UNL     1      -0.564  10.713  22.208  0.00  0.00    +0.000 A 
ENDBRANCH  23  26
ENDBRANCH  19  20
ENDBRANCH   9  19
TORSDOF 5
ENDMDL
MODEL 6
REMARK VINA RESULT:      -9.4      1.610      1.934
REMARK  Name = 
REMARK  5 active torsions:
REMARK  status: ('A' for Active; 'I' for Inactive)
REMARK    1  A    between atoms: C_2  and  C_3
REMARK    2  A    between atoms: N_5  and  C_6
REMARK    3  A    between atoms: C_18  and  C_19
REMARK    4  A    between atoms: C_19  and  C_20
REMARK    5  A    between atoms: C_23  and  C_24
REMARK                            x       y       z     vdW  Elec       q    Type
REMARK                         _______ _______ _______ _____ _____    ______ ____
ROOT
ATOM      1  C   UNL     1       4.404   2.499  20.281  0.00  0.00    +0.000 A 
ATOM      2  N   UNL     1       5.392   3.287  19.843  0.00  0.00    +0.000 NA
ATOM      3  N   UNL     1       4.795   4.415  19.359  0.00  0.00    +0.000 N 
ATOM      4  C   UNL     1       3.428   4.401  19.627  0.00  0.00    +0.000 A 
ATOM      5  C   UNL     1       3.160   3.154  20.177  0.00  0.00    +0.000 A 
ATOM      6  C   UNL     1       1.825   2.717  20.672  0.00  0.00    +0.000 C 
ATOM      7  C   UNL     1       0.716   3.632  20.145  0.00  0.00    +0.000 C 
ATOM      8  C   UNL     1       1.096   5.107  20.295  0.00  0.00    +0.000 C 
ATOM      9  C   UNL     1       2.388   5.500  19.508  0.00  0.00    +0.000 C 
ENDROOT
BRANCH   3  10
ATOM     10  C   UNL     1       5.622   5.368  18.697  0.00  0.00    +0.000 A 
ATOM     11  C   UNL     1       5.216   6.008  17.522  0.00  0.00    +0.000 A 
ATOM     12  C   UNL     1       6.062   6.929  16.897  0.00  0.00    +0.000 A 
ATOM     13  C   UNL     1       7.327   7.175  17.419  0.00  0.00    +0.000 A 
ATOM     14  F   UNL     1       8.145   8.028  16.790  0.00  0.00    +0.000 F 
ATOM     15  C   UNL     1       7.760   6.532  18.569  0.00  0.00    +0.000 A 
ATOM     16  C   UNL     1       6.909   5.629  19.211  0.00  0.00    +0.000 A 
ENDBRANCH   3  10
BRANCH   1  18
ATOM     17  O   UNL     1       5.633   0.933  21.580  0.00  0.00    +0.000 OA
ATOM     18  C   UNL     1       4.694   1.179  20.828  0.00  0.00    +0.000 C 
ENDBRANCH   1  18
BRANCH   9  19
ATOM     19  C   UNL     1       2.793   6.924  19.965  0.00  0.00    +0.000 C 
BRANCH  19  20
ATOM     20  C   UNL     1       1.737   7.968  20.226  0.00  0.00    +0.000 A 
ATOM     21  C   UNL     1       1.056   8.090  21.436  0.00  0.00    +0.000 A 
ATOM     22  C   UNL     1       0.138   9.104  21.651  0.00  0.00    +0.000 A 
ATOM     23  C   UNL     1      -0.126  10.061  20.669  0.00  0.00    +0.000 A 
ATOM     24  C   UNL     1       0.552   9.943  19.448  0.00  0.00    +0.000 A 
ATOM     25  C   UNL     1       1.467   8.908  19.226  0.00  0.00    +0.000 A 
BRANCH  23  26
ATOM     26  C   UNL     1      -1.081  11.155  20.935  0.00  0.00    +0.000 A 
ATOM     27  C   UNL     1      -1.775  11.785  19.883  0.00  0.00    +0.000 A 
ATOM     28  C   UNL     1      -2.648  12.846  20.122  0.00  0.00    +0.000 A 
ATOM     29  C   UNL     1      -2.861  13.284  21.425  0.00  0.00    +0.000 A 
ATOM     30  C   UNL     1      -2.198  12.669  22.484  0.00  0.00    +0.000 A 
ATOM     31  C   UNL     1      -1.310  11.621  22.238  0.00  0.00    +0.000 A 
ENDBRANCH  23  26
ENDBRANCH  19  20
ENDBRANCH   9  19
TORSDOF 5
ENDMDL
MODEL 7
REMARK VINA RESULT:      -9.3      1.057      1.739
REMARK  Name = 
REMARK  5 active torsions:
REMARK  status: ('A' for Active; 'I' for Inactive)
REMARK    1  A    between atoms: C_2  and  C_3
REMARK    2  A    between atoms: N_5  and  C_6
REMARK    3  A    between atoms: C_18  and  C_19
REMARK    4  A    between atoms: C_19  and  C_20
REMARK    5  A    between atoms: C_23  and  C_24
REMARK                            x       y       z     vdW  Elec       q    Type
REMARK                         _______ _______ _______ _____ _____    ______ ____
ROOT
ATOM      1  C   UNL     1       4.447   2.254  20.053  0.00  0.00    +0.000 A 
ATOM      2  N   UNL     1       5.354   2.719  19.186  0.00  0.00    +0.000 NA
ATOM      3  N   UNL     1       4.692   3.594  18.374  0.00  0.00    +0.000 N 
ATOM      4  C   UNL     1       3.389   3.794  18.825  0.00  0.00    +0.000 A 
ATOM      5  C   UNL     1       3.208   2.902  19.875  0.00  0.00    +0.000 A 
ATOM      6  C   UNL     1       1.972   2.806  20.700  0.00  0.00    +0.000 C 
ATOM      7  C   UNL     1       0.797   3.509  20.014  0.00  0.00    +0.000 C 
ATOM      8  C   UNL     1       1.207   4.884  19.483  0.00  0.00    +0.000 C 
ATOM      9  C   UNL     1       2.352   4.825  18.420  0.00  0.00    +0.000 C 
ENDROOT
BRANCH   3  10
ATOM     10  C   UNL     1       5.403   4.130  17.262  0.00  0.00    +0.000 A 
ATOM     11  C   UNL     1       6.384   5.115  17.417  0.00  0.00    +0.000 A 
ATOM     12  C   UNL     1       7.052   5.622  16.299  0.00  0.00    +0.000 A 
ATOM     13  C   UNL     1       6.708   5.180  15.026  0.00  0.00    +0.000 A 
ATOM     14  F   UNL     1       7.325   5.701  13.958  0.00  0.00    +0.000 F 
ATOM     15  C   UNL     1       5.721   4.222  14.847  0.00  0.00    +0.000 A 
ATOM     16  C   UNL     1       5.069   3.694  15.964  0.00  0.00    +0.000 A 
ENDBRANCH   3  10
BRANCH   1  18
ATOM     17  O   UNL     1       5.767   1.358  21.816  0.00  0.00    +0.000 OA
ATOM     18  C   UNL     1       4.815   1.251  21.046  0.00  0.00    +0.000 C 
ENDBRANCH   1  18
BRANCH   9  19
ATOM     19  C   UNL     1       2.838   6.277  18.182  0.00  0.00    +0.000 C 
BRANCH  19  20
ATOM     20  C   UNL     1       2.224   7.419  18.951  0.00  0.00    +0.000 A 
ATOM     21  C   UNL     1       1.788   8.602  18.357  0.00  0.00    +0.000 A 
ATOM     22  C   UNL     1       1.173   9.599  19.096  0.00  0.00    +0.000 A 
ATOM     23  C   UNL     1       0.944   9.448  20.465  0.00  0.00    +0.000 A 
ATOM     24  C   UNL     1       1.382   8.262  21.070  0.00  0.00    +0.000 A 
ATOM     25  C   UNL     1       2.019   7.263  20.326  0.00  0.00    +0.000 A 
BRANCH  23  26
ATOM     26  C   UNL     1       0.253  10.509  21.225  0.00  0.00    +0.000 A 
ATOM     27  C   UNL     1      -0.510  10.204  22.368  0.00  0.00    +0.000 A 
ATOM     28  C   UNL     1      -1.199  11.195  23.067  0.00  0.00    +0.000 A 
ATOM     29  C   UNL     1      -1.119  12.518  22.646  0.00  0.00    +0.000 A 
ATOM     30  C   UNL     1      -0.360  12.848  21.526  0.00  0.00    +0.000 A 
ATOM     31  C   UNL     1       0.311  11.851  20.818  0.00  0.00    +0.000 A 
ENDBRANCH  23  26
ENDBRANCH  19  20
ENDBRANCH   9  19
TORSDOF 5
ENDMDL
MODEL 8
REMARK VINA RESULT:      -9.1      1.674      2.134
REMARK  Name = 
REMARK  5 active torsions:
REMARK  status: ('A' for Active; 'I' for Inactive)
REMARK    1  A    between atoms: C_2  and  C_3
REMARK    2  A    between atoms: N_5  and  C_6
REMARK    3  A    between atoms: C_18  and  C_19
REMARK    4  A    between atoms: C_19  and  C_20
REMARK    5  A    between atoms: C_23  and  C_24
REMARK                            x       y       z     vdW  Elec       q    Type
REMARK                         _______ _______ _______ _____ _____    ______ ____
ROOT
ATOM      1  C   UNL     1       4.441   2.288  19.969  0.00  0.00    +0.000 A 
ATOM      2  N   UNL     1       5.442   3.100  19.612  0.00  0.00    +0.000 NA
ATOM      3  N   UNL     1       4.863   4.272  19.222  0.00  0.00    +0.000 N 
ATOM      4  C   UNL     1       3.492   4.251  19.473  0.00  0.00    +0.000 A 
ATOM      5  C   UNL     1       3.206   2.964  19.910  0.00  0.00    +0.000 A 
ATOM      6  C   UNL     1       1.861   2.500  20.351  0.00  0.00    +0.000 C 
ATOM      7  C   UNL     1       0.767   3.470  19.894  0.00  0.00    +0.000 C 
ATOM      8  C   UNL     1       1.161   4.922  20.177  0.00  0.00    +0.000 C 
ATOM      9  C   UNL     1       2.466   5.368  19.440  0.00  0.00    +0.000 C 
ENDROOT
BRANCH   3  10
ATOM     10  C   UNL     1       5.707   5.269  18.653  0.00  0.00    +0.000 A 
ATOM     11  C   UNL     1       6.978   5.542  19.168  0.00  0.00    +0.000 A 
ATOM     12  C   UNL     1       7.772   6.535  18.587  0.00  0.00    +0.000 A 
ATOM     13  C   UNL     1       7.278   7.285  17.526  0.00  0.00    +0.000 A 
ATOM     14  F   UNL     1       8.030   8.262  17.003  0.00  0.00    +0.000 F 
ATOM     15  C   UNL     1       6.010   7.049  17.015  0.00  0.00    +0.000 A 
ATOM     16  C   UNL     1       5.224   6.040  17.576  0.00  0.00    +0.000 A 
ENDBRANCH   3  10
BRANCH   1  18
ATOM     17  O   UNL     1       5.699   0.584  21.048  0.00  0.00    +0.000 OA
ATOM     18  C   UNL     1       4.711   0.922  20.402  0.00  0.00    +0.000 C 
ENDBRANCH   1  18
BRANCH   9  19
ATOM     19  C   UNL     1       2.880   6.742  20.023  0.00  0.00    +0.000 C 
BRANCH  19  20
ATOM     20  C   UNL     1       1.900   7.887  20.039  0.00  0.00    +0.000 A 
ATOM     21  C   UNL     1       1.664   8.715  18.943  0.00  0.00    +0.000 A 
ATOM     22  C   UNL     1       0.708   9.716  18.985  0.00  0.00    +0.000 A 
ATOM     23  C   UNL     1      -0.075   9.922  20.122  0.00  0.00    +0.000 A 
ATOM     24  C   UNL     1       0.158   9.095  21.229  0.00  0.00    +0.000 A 
ATOM     25  C   UNL     1       1.136   8.095  21.192  0.00  0.00    +0.000 A 
BRANCH  23  26
ATOM     26  C   UNL     1      -1.113  10.971  20.129  0.00  0.00    +0.000 A 
ATOM     27  C   UNL     1      -1.350  11.750  21.279  0.00  0.00    +0.000 A 
ATOM     28  C   UNL     1      -2.357  12.715  21.307  0.00  0.00    +0.000 A 
ATOM     29  C   UNL     1      -3.134  12.935  20.174  0.00  0.00    +0.000 A 
ATOM     30  C   UNL     1      -2.911  12.188  19.021  0.00  0.00    +0.000 A 
ATOM     31  C   UNL     1      -1.916  11.209  19.003  0.00  0.00    +0.000 A 
ENDBRANCH  23  26
ENDBRANCH  19  20
ENDBRANCH   9  19
TORSDOF 5
ENDMDL
MODEL 9
REMARK VINA RESULT:      -8.5      2.889      4.746
REMARK  Name = 
REMARK  5 active torsions:
REMARK  status: ('A' for Active; 'I' for Inactive)
REMARK    1  A    between atoms: C_2  and  C_3
REMARK    2  A    between atoms: N_5  and  C_6
REMARK    3  A    between atoms: C_18  and  C_19
REMARK    4  A    between atoms: C_19  and  C_20
REMARK    5  A    between atoms: C_23  and  C_24
REMARK                            x       y       z     vdW  Elec       q    Type
REMARK                         _______ _______ _______ _____ _____    ______ ____
ROOT
ATOM      1  C   UNL     1       5.108   3.914  16.452  0.00  0.00    +0.000 A 
ATOM      2  N   UNL     1       4.274   3.235  17.248  0.00  0.00    +0.000 NA
ATOM      3  N   UNL     1       3.763   4.143  18.130  0.00  0.00    +0.000 N 
ATOM      4  C   UNL     1       4.167   5.434  17.795  0.00  0.00    +0.000 A 
ATOM      5  C   UNL     1       5.068   5.292  16.747  0.00  0.00    +0.000 A 
ATOM      6  C   UNL     1       5.715   6.424  16.029  0.00  0.00    +0.000 C 
ATOM      7  C   UNL     1       5.588   7.726  16.825  0.00  0.00    +0.000 C 
ATOM      8  C   UNL     1       4.162   7.920  17.346  0.00  0.00    +0.000 C 
ATOM      9  C   UNL     1       3.690   6.781  18.307  0.00  0.00    +0.000 C 
ENDROOT
BRANCH   3  10
ATOM     10  C   UNL     1       2.947   3.649  19.188  0.00  0.00    +0.000 A 
ATOM     11  C   UNL     1       1.553   3.765  19.162  0.00  0.00    +0.000 A 
ATOM     12  C   UNL     1       0.789   3.275  20.225  0.00  0.00    +0.000 A 
ATOM     13  C   UNL     1       1.417   2.715  21.331  0.00  0.00    +0.000 A 
ATOM     14  F   UNL     1       0.678   2.287  22.362  0.00  0.00    +0.000 F 
ATOM     15  C   UNL     1       2.800   2.613  21.389  0.00  0.00    +0.000 A 
ATOM     16  C   UNL     1       3.566   3.077  20.318  0.00  0.00    +0.000 A 
ENDBRANCH   3  10
BRANCH   1  18
ATOM     17  O   UNL     1       5.989   3.640  14.261  0.00  0.00    +0.000 OA
ATOM     18  C   UNL     1       5.865   3.228  15.412  0.00  0.00    +0.000 C 
ENDBRANCH   1  18
BRANCH   9  19
ATOM     19  C   UNL     1       2.168   6.965  18.531  0.00  0.00    +0.000 C 
BRANCH  19  20
ATOM     20  C   UNL     1       1.653   8.151  19.307  0.00  0.00    +0.000 A 
ATOM     21  C   UNL     1       1.257   9.348  18.713  0.00  0.00    +0.000 A 
ATOM     22  C   UNL     1       0.731  10.388  19.460  0.00  0.00    +0.000 A 
ATOM     23  C   UNL     1       0.554  10.270  20.840  0.00  0.00    +0.000 A 
ATOM     24  C   UNL     1       0.952   9.070  21.445  0.00  0.00    +0.000 A 
ATOM     25  C   UNL     1       1.499   8.026  20.692  0.00  0.00    +0.000 A 
BRANCH  23  26
ATOM     26  C   UNL     1      -0.044  11.379  21.610  0.00  0.00    +0.000 A 
ATOM     27  C   UNL     1      -1.053  11.140  22.563  0.00  0.00    +0.000 A 
ATOM     28  C   UNL     1      -1.652  12.186  23.265  0.00  0.00    +0.000 A 
ATOM     29  C   UNL     1      -1.234  13.494  23.042  0.00  0.00    +0.000 A 
ATOM     30  C   UNL     1      -0.228  13.756  22.116  0.00  0.00    +0.000 A 
ATOM     31  C   UNL     1       0.354  12.708  21.401  0.00  0.00    +0.000 A 
ENDBRANCH  23  26
ENDBRANCH  19  20
ENDBRANCH   9  19
TORSDOF 5
ENDMDL
