MODEL 1
REMARK VINA RESULT:      -9.1      0.000      0.000
REMARK  Name = 
REMARK  5 active torsions:
REMARK  status: ('A' for Active; 'I' for Inactive)
REMARK    1  A    between atoms: C_4  and  C_5
REMARK    2  A    between atoms: C_5  and  N_6
REMARK    3  A    between atoms: C_8  and  C_9
REMARK    4  A    between atoms: N_22  and  C_23
REMARK    5  A    between atoms: C_23  and  C_24
REMARK                            x       y       z     vdW  Elec       q    Type
REMARK                         _______ _______ _______ _____ _____    ______ ____
ROOT
ATOM      1  O   UNL     1      -1.816   9.615  16.625  0.00  0.00    +0.000 OA
ATOM      2  C   UNL     1      -1.842  10.107  17.741  0.00  0.00    +0.000 C 
ATOM      3  O   UNL     1      -1.044   9.701  18.761  0.00  0.00    +0.000 OA
ATOM      4  C   UNL     1       0.127  10.473  19.177  0.00  0.00    +0.000 C 
ATOM      5  C   UNL     1      -0.019  11.995  19.023  0.00  0.00    +0.000 C 
ATOM      6  C   UNL     1      -1.303  12.494  19.578  0.00  0.00    +0.000 A 
ATOM      7  C   UNL     1      -1.546  13.441  20.542  0.00  0.00    +0.000 A 
ATOM      8  N   UNL     1      -2.907  13.654  20.597  0.00  0.00    +0.000 N 
ATOM      9  C   UNL     1      -3.556  12.810  19.716  0.00  0.00    +0.000 A 
ATOM     10  C   UNL     1      -4.907  12.642  19.372  0.00  0.00    +0.000 A 
ATOM     11  C   UNL     1      -5.229  11.653  18.427  0.00  0.00    +0.000 A 
ATOM     12  C   UNL     1      -4.249  10.830  17.868  0.00  0.00    +0.000 A 
ATOM     13  C   UNL     1      -2.912  10.999  18.236  0.00  0.00    +0.000 A 
ATOM     14  C   UNL     1      -2.565  12.025  19.131  0.00  0.00    +0.000 A 
ENDROOT
BRANCH   4  15
ATOM     15  C   UNL     1       1.359  10.001  18.405  0.00  0.00    +0.000 C 
BRANCH  15  16
ATOM     16  N   UNL     1       1.779   8.681  18.821  0.00  0.00    +0.000 N 
ATOM     17  C   UNL     1       2.260   7.696  18.024  0.00  0.00    +0.000 A 
ATOM     18  C   UNL     1       2.473   6.647  18.884  0.00  0.00    +0.000 A 
ATOM     19  N   UNL     1       2.113   7.025  20.154  0.00  0.00    +0.000 NA
ATOM     20  N   UNL     1       1.698   8.287  20.102  0.00  0.00    +0.000 NA
BRANCH  18  21
ATOM     21  C   UNL     1       2.918   5.326  18.490  0.00  0.00    +0.000 A 
ATOM     22  C   UNL     1       4.173   4.853  18.902  0.00  0.00    +0.000 A 
ATOM     23  C   UNL     1       4.557   3.540  18.612  0.00  0.00    +0.000 A 
ATOM     24  C   UNL     1       3.695   2.706  17.906  0.00  0.00    +0.000 A 
ATOM     25  F   UNL     1       4.054   1.440  17.658  0.00  0.00    +0.000 F 
ATOM     26  C   UNL     1       2.466   3.163  17.460  0.00  0.00    +0.000 A 
ATOM     27  C   UNL     1       2.091   4.470  17.747  0.00  0.00    +0.000 A 
ATOM     28  F   UNL     1       0.900   4.884  17.287  0.00  0.00    +0.000 F 
ENDBRANCH  18  21
ENDBRANCH  15  16
ENDBRANCH   4  15
BRANCH   8  29
ATOM     29  C   UNL     1      -3.544  14.568  21.539  0.00  0.00    +0.000 C 
BRANCH  29  30
ATOM     30  C   UNL     1      -4.252  13.854  22.664  0.00  0.00    +0.000 A 
ATOM     31  C   UNL     1      -5.649  13.909  22.765  0.00  0.00    +0.000 A 
ATOM     32  C   UNL     1      -6.320  13.174  23.744  0.00  0.00    +0.000 A 
ATOM     33  C   UNL     1      -5.604  12.379  24.636  0.00  0.00    +0.000 A 
ATOM     34  C   UNL     1      -4.215  12.333  24.563  0.00  0.00    +0.000 A 
ATOM     35  C   UNL     1      -3.543  13.064  23.583  0.00  0.00    +0.000 A 
ENDBRANCH  29  30
ENDBRANCH   8  29
TORSDOF 5
ENDMDL
MODEL 2
REMARK VINA RESULT:      -8.8      0.879      1.448
REMARK  Name = 
REMARK  5 active torsions:
REMARK  status: ('A' for Active; 'I' for Inactive)
REMARK    1  A    between atoms: C_4  and  C_5
REMARK    2  A    between atoms: C_5  and  N_6
REMARK    3  A    between atoms: C_8  and  C_9
REMARK    4  A    between atoms: N_22  and  C_23
REMARK    5  A    between atoms: C_23  and  C_24
REMARK                            x       y       z     vdW  Elec       q    Type
REMARK                         _______ _______ _______ _____ _____    ______ ____
ROOT
ATOM      1  O   UNL     1      -1.777   9.666  16.632  0.00  0.00    +0.000 OA
ATOM      2  C   UNL     1      -1.897  10.133  17.752  0.00  0.00    +0.000 C 
ATOM      3  O   UNL     1      -1.161   9.729  18.819  0.00  0.00    +0.000 OA
ATOM      4  C   UNL     1      -0.047  10.525  19.333  0.00  0.00    +0.000 C 
ATOM      5  C   UNL     1      -0.226  12.044  19.197  0.00  0.00    +0.000 C 
ATOM      6  C   UNL     1      -1.561  12.496  19.667  0.00  0.00    +0.000 A 
ATOM      7  C   UNL     1      -1.899  13.416  20.629  0.00  0.00    +0.000 A 
ATOM      8  N   UNL     1      -3.266  13.588  20.591  0.00  0.00    +0.000 N 
ATOM      9  C   UNL     1      -3.826  12.745  19.649  0.00  0.00    +0.000 A 
ATOM     10  C   UNL     1      -5.144  12.547  19.206  0.00  0.00    +0.000 A 
ATOM     11  C   UNL     1      -5.368  11.568  18.222  0.00  0.00    +0.000 A 
ATOM     12  C   UNL     1      -4.327  10.785  17.720  0.00  0.00    +0.000 A 
ATOM     13  C   UNL     1      -3.025  10.984  18.186  0.00  0.00    +0.000 A 
ATOM     14  C   UNL     1      -2.773  12.000  19.123  0.00  0.00    +0.000 A 
ENDROOT
BRANCH   4  15
ATOM     15  C   UNL     1       1.251  10.103  18.642  0.00  0.00    +0.000 C 
BRANCH  15  16
ATOM     16  N   UNL     1       1.665   8.777  19.043  0.00  0.00    +0.000 N 
ATOM     17  C   UNL     1       2.149   7.802  18.235  0.00  0.00    +0.000 A 
ATOM     18  C   UNL     1       2.353   6.740  19.082  0.00  0.00    +0.000 A 
ATOM     19  N   UNL     1       1.986   7.102  20.355  0.00  0.00    +0.000 NA
ATOM     20  N   UNL     1       1.575   8.365  20.318  0.00  0.00    +0.000 NA
BRANCH  18  21
ATOM     21  C   UNL     1       2.797   5.423  18.672  0.00  0.00    +0.000 A 
ATOM     22  C   UNL     1       1.934   4.581  17.954  0.00  0.00    +0.000 A 
ATOM     23  C   UNL     1       2.397   3.355  17.466  0.00  0.00    +0.000 A 
ATOM     24  C   UNL     1       3.713   2.968  17.703  0.00  0.00    +0.000 A 
ATOM     25  F   UNL     1       4.160   1.807  17.208  0.00  0.00    +0.000 F 
ATOM     26  C   UNL     1       4.571   3.768  18.439  0.00  0.00    +0.000 A 
ATOM     27  C   UNL     1       4.105   4.984  18.925  0.00  0.00    +0.000 A 
ATOM     28  F   UNL     1       4.958   5.727  19.646  0.00  0.00    +0.000 F 
ENDBRANCH  18  21
ENDBRANCH  15  16
ENDBRANCH   4  15
BRANCH   8  29
ATOM     29  C   UNL     1      -3.996  14.465  21.501  0.00  0.00    +0.000 C 
BRANCH  29  30
ATOM     30  C   UNL     1      -4.778  13.707  22.545  0.00  0.00    +0.000 A 
ATOM     31  C   UNL     1      -4.108  13.008  23.559  0.00  0.00    +0.000 A 
ATOM     32  C   UNL     1      -4.821  12.385  24.584  0.00  0.00    +0.000 A 
ATOM     33  C   UNL     1      -6.213  12.446  24.606  0.00  0.00    +0.000 A 
ATOM     34  C   UNL     1      -6.894  13.116  23.593  0.00  0.00    +0.000 A 
ATOM     35  C   UNL     1      -6.182  13.743  22.570  0.00  0.00    +0.000 A 
ENDBRANCH  29  30
ENDBRANCH   8  29
TORSDOF 5
ENDMDL
MODEL 3
REMARK VINA RESULT:      -8.7      0.946      1.254
REMARK  Name = 
REMARK  5 active torsions:
REMARK  status: ('A' for Active; 'I' for Inactive)
REMARK    1  A    between atoms: C_4  and  C_5
REMARK    2  A    between atoms: C_5  and  N_6
REMARK    3  A    between atoms: C_8  and  C_9
REMARK    4  A    between atoms: N_22  and  C_23
REMARK    5  A    between atoms: C_23  and  C_24
REMARK                            x       y       z     vdW  Elec       q    Type
REMARK                         _______ _______ _______ _____ _____    ______ ____
ROOT
ATOM      1  O   UNL     1      -1.784   9.738  16.574  0.00  0.00    +0.000 OA
ATOM      2  C   UNL     1      -1.931  10.220  17.685  0.00  0.00    +0.000 C 
ATOM      3  O   UNL     1      -1.102   9.969  18.730  0.00  0.00    +0.000 OA
ATOM      4  C   UNL     1      -0.104  10.941  19.174  0.00  0.00    +0.000 C 
ATOM      5  C   UNL     1      -0.519  12.411  19.003  0.00  0.00    +0.000 C 
ATOM      6  C   UNL     1      -1.888  12.670  19.518  0.00  0.00    +0.000 A 
ATOM      7  C   UNL     1      -2.326  13.560  20.468  0.00  0.00    +0.000 A 
ATOM      8  N   UNL     1      -3.704  13.522  20.483  0.00  0.00    +0.000 N 
ATOM      9  C   UNL     1      -4.164  12.572  19.590  0.00  0.00    +0.000 A 
ATOM     10  C   UNL     1      -5.452  12.161  19.209  0.00  0.00    +0.000 A 
ATOM     11  C   UNL     1      -5.561  11.127  18.263  0.00  0.00    +0.000 A 
ATOM     12  C   UNL     1      -4.432  10.494  17.739  0.00  0.00    +0.000 A 
ATOM     13  C   UNL     1      -3.159  10.904  18.143  0.00  0.00    +0.000 A 
ATOM     14  C   UNL     1      -3.030  11.978  19.040  0.00  0.00    +0.000 A 
ENDROOT
BRANCH   4  15
ATOM     15  C   UNL     1       1.215  10.699  18.440  0.00  0.00    +0.000 C 
BRANCH  15  16
ATOM     16  N   UNL     1       1.717   9.362  18.668  0.00  0.00    +0.000 N 
ATOM     17  C   UNL     1       2.333   8.563  17.763  0.00  0.00    +0.000 A 
ATOM     18  C   UNL     1       2.576   7.402  18.454  0.00  0.00    +0.000 A 
ATOM     19  N   UNL     1       2.101   7.533  19.736  0.00  0.00    +0.000 NA
ATOM     20  N   UNL     1       1.585   8.752  19.857  0.00  0.00    +0.000 NA
BRANCH  18  21
ATOM     21  C   UNL     1       3.157   6.202  17.887  0.00  0.00    +0.000 A 
ATOM     22  C   UNL     1       4.419   6.252  17.276  0.00  0.00    +0.000 A 
ATOM     23  C   UNL     1       5.026   5.075  16.825  0.00  0.00    +0.000 A 
ATOM     24  C   UNL     1       4.371   3.856  16.975  0.00  0.00    +0.000 A 
ATOM     25  F   UNL     1       4.969   2.729  16.569  0.00  0.00    +0.000 F 
ATOM     26  C   UNL     1       3.110   3.789  17.544  0.00  0.00    +0.000 A 
ATOM     27  C   UNL     1       2.509   4.962  17.987  0.00  0.00    +0.000 A 
ATOM     28  F   UNL     1       1.282   4.862  18.519  0.00  0.00    +0.000 F 
ENDBRANCH  18  21
ENDBRANCH  15  16
ENDBRANCH   4  15
BRANCH   8  29
ATOM     29  C   UNL     1      -4.524  14.308  21.398  0.00  0.00    +0.000 C 
BRANCH  29  30
ATOM     30  C   UNL     1      -5.018  13.508  22.578  0.00  0.00    +0.000 A 
ATOM     31  C   UNL     1      -4.113  13.039  23.541  0.00  0.00    +0.000 A 
ATOM     32  C   UNL     1      -4.570  12.382  24.685  0.00  0.00    +0.000 A 
ATOM     33  C   UNL     1      -5.934  12.179  24.878  0.00  0.00    +0.000 A 
ATOM     34  C   UNL     1      -6.843  12.617  23.919  0.00  0.00    +0.000 A 
ATOM     35  C   UNL     1      -6.389  13.278  22.777  0.00  0.00    +0.000 A 
ENDBRANCH  29  30
ENDBRANCH   8  29
TORSDOF 5
ENDMDL
MODEL 4
REMARK VINA RESULT:      -8.4      1.480      1.910
REMARK  Name = 
REMARK  5 active torsions:
REMARK  status: ('A' for Active; 'I' for Inactive)
REMARK    1  A    between atoms: C_4  and  C_5
REMARK    2  A    between atoms: C_5  and  N_6
REMARK    3  A    between atoms: C_8  and  C_9
REMARK    4  A    between atoms: N_22  and  C_23
REMARK    5  A    between atoms: C_23  and  C_24
REMARK                            x       y       z     vdW  Elec       q    Type
REMARK                         _______ _______ _______ _____ _____    ______ ____
ROOT
ATOM      1  O   UNL     1      -2.073  10.461  16.420  0.00  0.00    +0.000 OA
ATOM      2  C   UNL     1      -2.287  10.641  17.607  0.00  0.00    +0.000 C 
ATOM      3  O   UNL     1      -1.526  10.112  18.598  0.00  0.00    +0.000 OA
ATOM      4  C   UNL     1      -0.553  10.917  19.337  0.00  0.00    +0.000 C 
ATOM      5  C   UNL     1      -0.951  12.388  19.529  0.00  0.00    +0.000 C 
ATOM      6  C   UNL     1      -2.348  12.533  20.012  0.00  0.00    +0.000 A 
ATOM      7  C   UNL     1      -2.841  13.155  21.133  0.00  0.00    +0.000 A 
ATOM      8  N   UNL     1      -4.218  13.141  21.057  0.00  0.00    +0.000 N 
ATOM      9  C   UNL     1      -4.625  12.463  19.922  0.00  0.00    +0.000 A 
ATOM     10  C   UNL     1      -5.888  12.191  19.373  0.00  0.00    +0.000 A 
ATOM     11  C   UNL     1      -5.943  11.438  18.187  0.00  0.00    +0.000 A 
ATOM     12  C   UNL     1      -4.786  10.941  17.583  0.00  0.00    +0.000 A 
ATOM     13  C   UNL     1      -3.539  11.207  18.154  0.00  0.00    +0.000 A 
ATOM     14  C   UNL     1      -3.461  12.010  19.305  0.00  0.00    +0.000 A 
ENDROOT
BRANCH   4  15
ATOM     15  C   UNL     1       0.808  10.847  18.644  0.00  0.00    +0.000 C 
BRANCH  15  16
ATOM     16  N   UNL     1       1.426   9.549  18.808  0.00  0.00    +0.000 N 
ATOM     17  C   UNL     1       2.107   8.852  17.866  0.00  0.00    +0.000 A 
ATOM     18  C   UNL     1       2.453   7.685  18.501  0.00  0.00    +0.000 A 
ATOM     19  N   UNL     1       1.972   7.713  19.787  0.00  0.00    +0.000 NA
ATOM     20  N   UNL     1       1.351   8.874  19.966  0.00  0.00    +0.000 NA
BRANCH  18  21
ATOM     21  C   UNL     1       3.135   6.570  17.877  0.00  0.00    +0.000 A 
ATOM     22  C   UNL     1       4.354   6.772  17.213  0.00  0.00    +0.000 A 
ATOM     23  C   UNL     1       5.065   5.681  16.705  0.00  0.00    +0.000 A 
ATOM     24  C   UNL     1       4.556   4.393  16.850  0.00  0.00    +0.000 A 
ATOM     25  F   UNL     1       5.254   3.349  16.389  0.00  0.00    +0.000 F 
ATOM     26  C   UNL     1       3.337   4.175  17.472  0.00  0.00    +0.000 A 
ATOM     27  C   UNL     1       2.633   5.264  17.972  0.00  0.00    +0.000 A 
ATOM     28  F   UNL     1       1.450   5.017  18.554  0.00  0.00    +0.000 F 
ENDBRANCH  18  21
ENDBRANCH  15  16
ENDBRANCH   4  15
BRANCH   8  29
ATOM     29  C   UNL     1      -5.090  13.679  22.095  0.00  0.00    +0.000 C 
BRANCH  29  30
ATOM     30  C   UNL     1      -4.351  14.529  23.099  0.00  0.00    +0.000 A 
ATOM     31  C   UNL     1      -3.835  13.951  24.268  0.00  0.00    +0.000 A 
ATOM     32  C   UNL     1      -3.068  14.707  25.156  0.00  0.00    +0.000 A 
ATOM     33  C   UNL     1      -2.812  16.051  24.891  0.00  0.00    +0.000 A 
ATOM     34  C   UNL     1      -3.338  16.645  23.747  0.00  0.00    +0.000 A 
ATOM     35  C   UNL     1      -4.102  15.889  22.857  0.00  0.00    +0.000 A 
ENDBRANCH  29  30
ENDBRANCH   8  29
TORSDOF 5
ENDMDL
MODEL 5
REMARK VINA RESULT:      -8.4      1.428      1.719
REMARK  Name = 
REMARK  5 active torsions:
REMARK  status: ('A' for Active; 'I' for Inactive)
REMARK    1  A    between atoms: C_4  and  C_5
REMARK    2  A    between atoms: C_5  and  N_6
REMARK    3  A    between atoms: C_8  and  C_9
REMARK    4  A    between atoms: N_22  and  C_23
REMARK    5  A    between atoms: C_23  and  C_24
REMARK                            x       y       z     vdW  Elec       q    Type
REMARK                         _______ _______ _______ _____ _____    ______ ____
ROOT
ATOM      1  O   UNL     1      -1.449   9.794  16.860  0.00  0.00    +0.000 OA
ATOM      2  C   UNL     1      -1.656  10.310  17.945  0.00  0.00    +0.000 C 
ATOM      3  O   UNL     1      -0.860  10.129  19.030  0.00  0.00    +0.000 OA
ATOM      4  C   UNL     1       0.084  11.154  19.472  0.00  0.00    +0.000 C 
ATOM      5  C   UNL     1      -0.375  12.599  19.230  0.00  0.00    +0.000 C 
ATOM      6  C   UNL     1      -1.772  12.827  19.682  0.00  0.00    +0.000 A 
ATOM      7  C   UNL     1      -2.278  13.735  20.580  0.00  0.00    +0.000 A 
ATOM      8  N   UNL     1      -3.653  13.646  20.545  0.00  0.00    +0.000 N 
ATOM      9  C   UNL     1      -4.044  12.647  19.673  0.00  0.00    +0.000 A 
ATOM     10  C   UNL     1      -5.300  12.175  19.260  0.00  0.00    +0.000 A 
ATOM     11  C   UNL     1      -5.336  11.103  18.352  0.00  0.00    +0.000 A 
ATOM     12  C   UNL     1      -4.166  10.493  17.894  0.00  0.00    +0.000 A 
ATOM     13  C   UNL     1      -2.925  10.965  18.330  0.00  0.00    +0.000 A 
ATOM     14  C   UNL     1      -2.869  12.076  19.189  0.00  0.00    +0.000 A 
ENDROOT
BRANCH   4  15
ATOM     15  C   UNL     1       1.439  10.933  18.799  0.00  0.00    +0.000 C 
BRANCH  15  16
ATOM     16  N   UNL     1       1.725   9.527  18.617  0.00  0.00    +0.000 N 
ATOM     17  C   UNL     1       1.863   8.597  19.594  0.00  0.00    +0.000 A 
ATOM     18  C   UNL     1       2.160   7.442  18.913  0.00  0.00    +0.000 A 
ATOM     19  N   UNL     1       2.197   7.710  17.566  0.00  0.00    +0.000 NA
ATOM     20  N   UNL     1       1.914   8.998  17.398  0.00  0.00    +0.000 NA
BRANCH  18  21
ATOM     21  C   UNL     1       2.476   6.170  19.531  0.00  0.00    +0.000 A 
ATOM     22  C   UNL     1       1.618   5.625  20.498  0.00  0.00    +0.000 A 
ATOM     23  C   UNL     1       1.865   4.350  21.016  0.00  0.00    +0.000 A 
ATOM     24  C   UNL     1       2.971   3.626  20.576  0.00  0.00    +0.000 A 
ATOM     25  F   UNL     1       3.187   2.394  21.052  0.00  0.00    +0.000 F 
ATOM     26  C   UNL     1       3.849   4.160  19.648  0.00  0.00    +0.000 A 
ATOM     27  C   UNL     1       3.601   5.430  19.139  0.00  0.00    +0.000 A 
ATOM     28  F   UNL     1       4.480   5.921  18.254  0.00  0.00    +0.000 F 
ENDBRANCH  18  21
ENDBRANCH  15  16
ENDBRANCH   4  15
BRANCH   8  29
ATOM     29  C   UNL     1      -4.536  14.435  21.398  0.00  0.00    +0.000 C 
BRANCH  29  30
ATOM     30  C   UNL     1      -4.981  13.688  22.632  0.00  0.00    +0.000 A 
ATOM     31  C   UNL     1      -6.341  13.420  22.840  0.00  0.00    +0.000 A 
ATOM     32  C   UNL     1      -6.755  12.648  23.927  0.00  0.00    +0.000 A 
ATOM     33  C   UNL     1      -5.816  12.139  24.821  0.00  0.00    +0.000 A 
ATOM     34  C   UNL     1      -4.464  12.416  24.641  0.00  0.00    +0.000 A 
ATOM     35  C   UNL     1      -4.049  13.185  23.552  0.00  0.00    +0.000 A 
ENDBRANCH  29  30
ENDBRANCH   8  29
TORSDOF 5
ENDMDL
MODEL 6
REMARK VINA RESULT:      -8.3      1.567      2.003
REMARK  Name = 
REMARK  5 active torsions:
REMARK  status: ('A' for Active; 'I' for Inactive)
REMARK    1  A    between atoms: C_4  and  C_5
REMARK    2  A    between atoms: C_5  and  N_6
REMARK    3  A    between atoms: C_8  and  C_9
REMARK    4  A    between atoms: N_22  and  C_23
REMARK    5  A    between atoms: C_23  and  C_24
REMARK                            x       y       z     vdW  Elec       q    Type
REMARK                         _______ _______ _______ _____ _____    ______ ____
ROOT
ATOM      1  O   UNL     1      -0.476   9.900  17.314  0.00  0.00    +0.000 OA
ATOM      2  C   UNL     1      -1.291  10.206  18.167  0.00  0.00    +0.000 C 
ATOM      3  O   UNL     1      -1.212   9.806  19.462  0.00  0.00    +0.000 OA
ATOM      4  C   UNL     1      -0.761  10.707  20.522  0.00  0.00    +0.000 C 
ATOM      5  C   UNL     1      -1.136  12.182  20.313  0.00  0.00    +0.000 C 
ATOM      6  C   UNL     1      -2.564  12.351  19.941  0.00  0.00    +0.000 A 
ATOM      7  C   UNL     1      -3.558  13.083  20.542  0.00  0.00    +0.000 A 
ATOM      8  N   UNL     1      -4.673  13.033  19.732  0.00  0.00    +0.000 N 
ATOM      9  C   UNL     1      -4.429  12.226  18.637  0.00  0.00    +0.000 A 
ATOM     10  C   UNL     1      -5.203  11.868  17.521  0.00  0.00    +0.000 A 
ATOM     11  C   UNL     1      -4.639  10.988  16.581  0.00  0.00    +0.000 A 
ATOM     12  C   UNL     1      -3.362  10.451  16.759  0.00  0.00    +0.000 A 
ATOM     13  C   UNL     1      -2.614  10.804  17.884  0.00  0.00    +0.000 A 
ATOM     14  C   UNL     1      -3.137  11.731  18.801  0.00  0.00    +0.000 A 
ENDROOT
BRANCH   4  15
ATOM     15  C   UNL     1       0.754  10.588  20.692  0.00  0.00    +0.000 C 
BRANCH  15  16
ATOM     16  N   UNL     1       1.208   9.228  20.504  0.00  0.00    +0.000 N 
ATOM     17  C   UNL     1       1.861   8.735  19.423  0.00  0.00    +0.000 A 
ATOM     18  C   UNL     1       2.033   7.405  19.716  0.00  0.00    +0.000 A 
ATOM     19  N   UNL     1       1.481   7.140  20.946  0.00  0.00    +0.000 NA
ATOM     20  N   UNL     1       0.986   8.277  21.425  0.00  0.00    +0.000 NA
BRANCH  18  21
ATOM     21  C   UNL     1       2.620   6.426  18.825  0.00  0.00    +0.000 A 
ATOM     22  C   UNL     1       3.637   6.804  17.935  0.00  0.00    +0.000 A 
ATOM     23  C   UNL     1       4.278   5.839  17.151  0.00  0.00    +0.000 A 
ATOM     24  C   UNL     1       3.897   4.503  17.248  0.00  0.00    +0.000 A 
ATOM     25  F   UNL     1       4.533   3.579  16.519  0.00  0.00    +0.000 F 
ATOM     26  C   UNL     1       2.872   4.114  18.095  0.00  0.00    +0.000 A 
ATOM     27  C   UNL     1       2.236   5.078  18.869  0.00  0.00    +0.000 A 
ATOM     28  F   UNL     1       1.238   4.667  19.665  0.00  0.00    +0.000 F 
ENDBRANCH  18  21
ENDBRANCH  15  16
ENDBRANCH   4  15
BRANCH   8  29
ATOM     29  C   UNL     1      -5.944  13.665  20.067  0.00  0.00    +0.000 C 
BRANCH  29  30
ATOM     30  C   UNL     1      -6.485  13.223  21.405  0.00  0.00    +0.000 A 
ATOM     31  C   UNL     1      -6.241  13.991  22.552  0.00  0.00    +0.000 A 
ATOM     32  C   UNL     1      -6.818  13.643  23.776  0.00  0.00    +0.000 A 
ATOM     33  C   UNL     1      -7.638  12.521  23.869  0.00  0.00    +0.000 A 
ATOM     34  C   UNL     1      -7.870  11.736  22.743  0.00  0.00    +0.000 A 
ATOM     35  C   UNL     1      -7.299  12.084  21.519  0.00  0.00    +0.000 A 
ENDBRANCH  29  30
ENDBRANCH   8  29
TORSDOF 5
ENDMDL
MODEL 7
REMARK VINA RESULT:      -8.3      1.252      1.536
REMARK  Name = 
REMARK  5 active torsions:
REMARK  status: ('A' for Active; 'I' for Inactive)
REMARK    1  A    between atoms: C_4  and  C_5
REMARK    2  A    between atoms: C_5  and  N_6
REMARK    3  A    between atoms: C_8  and  C_9
REMARK    4  A    between atoms: N_22  and  C_23
REMARK    5  A    between atoms: C_23  and  C_24
REMARK                            x       y       z     vdW  Elec       q    Type
REMARK                         _______ _______ _______ _____ _____    ______ ____
ROOT
ATOM      1  O   UNL     1      -2.003   9.723  16.591  0.00  0.00    +0.000 OA
ATOM      2  C   UNL     1      -2.147  10.216  17.697  0.00  0.00    +0.000 C 
ATOM      3  O   UNL     1      -1.341   9.941  18.754  0.00  0.00    +0.000 OA
ATOM      4  C   UNL     1      -0.313  10.879  19.205  0.00  0.00    +0.000 C 
ATOM      5  C   UNL     1      -0.671  12.361  19.021  0.00  0.00    +0.000 C 
ATOM      6  C   UNL     1      -2.036  12.675  19.516  0.00  0.00    +0.000 A 
ATOM      7  C   UNL     1      -2.453  13.586  20.455  0.00  0.00    +0.000 A 
ATOM      8  N   UNL     1      -3.832  13.599  20.452  0.00  0.00    +0.000 N 
ATOM      9  C   UNL     1      -4.315  12.661  19.559  0.00  0.00    +0.000 A 
ATOM     10  C   UNL     1      -5.612  12.296  19.164  0.00  0.00    +0.000 A 
ATOM     11  C   UNL     1      -5.747  11.260  18.223  0.00  0.00    +0.000 A 
ATOM     12  C   UNL     1      -4.636  10.583  17.716  0.00  0.00    +0.000 A 
ATOM     13  C   UNL     1      -3.354  10.948  18.135  0.00  0.00    +0.000 A 
ATOM     14  C   UNL     1      -3.197  12.022  19.027  0.00  0.00    +0.000 A 
ENDROOT
BRANCH   4  15
ATOM     15  C   UNL     1       1.006  10.583  18.490  0.00  0.00    +0.000 C 
BRANCH  15  16
ATOM     16  N   UNL     1       1.525   9.280  18.841  0.00  0.00    +0.000 N 
ATOM     17  C   UNL     1       2.136   8.401  18.010  0.00  0.00    +0.000 A 
ATOM     18  C   UNL     1       2.401   7.316  18.808  0.00  0.00    +0.000 A 
ATOM     19  N   UNL     1       1.942   7.569  20.078  0.00  0.00    +0.000 NA
ATOM     20  N   UNL     1       1.415   8.789  20.086  0.00  0.00    +0.000 NA
BRANCH  18  21
ATOM     21  C   UNL     1       2.987   6.072  18.353  0.00  0.00    +0.000 A 
ATOM     22  C   UNL     1       2.312   4.859  18.560  0.00  0.00    +0.000 A 
ATOM     23  C   UNL     1       2.824   3.672  18.027  0.00  0.00    +0.000 A 
ATOM     24  C   UNL     1       4.011   3.695  17.299  0.00  0.00    +0.000 A 
ATOM     25  F   UNL     1       4.482   2.561  16.765  0.00  0.00    +0.000 F 
ATOM     26  C   UNL     1       4.711   4.875  17.114  0.00  0.00    +0.000 A 
ATOM     27  C   UNL     1       4.199   6.052  17.649  0.00  0.00    +0.000 A 
ATOM     28  F   UNL     1       4.911   7.174  17.463  0.00  0.00    +0.000 F 
ENDBRANCH  18  21
ENDBRANCH  15  16
ENDBRANCH   4  15
BRANCH   8  29
ATOM     29  C   UNL     1      -4.634  14.420  21.353  0.00  0.00    +0.000 C 
BRANCH  29  30
ATOM     30  C   UNL     1      -4.339  14.155  22.809  0.00  0.00    +0.000 A 
ATOM     31  C   UNL     1      -4.649  12.910  23.374  0.00  0.00    +0.000 A 
ATOM     32  C   UNL     1      -4.293  12.620  24.693  0.00  0.00    +0.000 A 
ATOM     33  C   UNL     1      -3.630  13.572  25.464  0.00  0.00    +0.000 A 
ATOM     34  C   UNL     1      -3.337  14.821  24.924  0.00  0.00    +0.000 A 
ATOM     35  C   UNL     1      -3.689  15.111  23.604  0.00  0.00    +0.000 A 
ENDBRANCH  29  30
ENDBRANCH   8  29
TORSDOF 5
ENDMDL
MODEL 8
REMARK VINA RESULT:      -8.3      3.911     11.268
REMARK  Name = 
REMARK  5 active torsions:
REMARK  status: ('A' for Active; 'I' for Inactive)
REMARK    1  A    between atoms: C_4  and  C_5
REMARK    2  A    between atoms: C_5  and  N_6
REMARK    3  A    between atoms: C_8  and  C_9
REMARK    4  A    between atoms: N_22  and  C_23
REMARK    5  A    between atoms: C_23  and  C_24
REMARK                            x       y       z     vdW  Elec       q    Type
REMARK                         _______ _______ _______ _____ _____    ______ ____
ROOT
ATOM      1  O   UNL     1       1.876   6.447  20.676  0.00  0.00    +0.000 OA
ATOM      2  C   UNL     1       2.154   6.182  19.519  0.00  0.00    +0.000 C 
ATOM      3  O   UNL     1       1.724   6.909  18.456  0.00  0.00    +0.000 OA
ATOM      4  C   UNL     1       2.604   7.840  17.752  0.00  0.00    +0.000 C 
ATOM      5  C   UNL     1       4.080   7.418  17.704  0.00  0.00    +0.000 C 
ATOM      6  C   UNL     1       4.244   6.000  17.291  0.00  0.00    +0.000 A 
ATOM      7  C   UNL     1       4.953   5.454  16.249  0.00  0.00    +0.000 A 
ATOM      8  N   UNL     1       4.911   4.082  16.378  0.00  0.00    +0.000 N 
ATOM      9  C   UNL     1       4.133   3.730  17.465  0.00  0.00    +0.000 A 
ATOM     10  C   UNL     1       3.794   2.494  18.039  0.00  0.00    +0.000 A 
ATOM     11  C   UNL     1       2.942   2.497  19.156  0.00  0.00    +0.000 A 
ATOM     12  C   UNL     1       2.412   3.683  19.668  0.00  0.00    +0.000 A 
ATOM     13  C   UNL     1       2.746   4.902  19.073  0.00  0.00    +0.000 A 
ATOM     14  C   UNL     1       3.646   4.923  17.994  0.00  0.00    +0.000 A 
ENDROOT
BRANCH   4  15
ATOM     15  C   UNL     1       2.496   9.230  18.381  0.00  0.00    +0.000 C 
BRANCH  15  16
ATOM     16  N   UNL     1       1.124   9.576  18.681  0.00  0.00    +0.000 N 
ATOM     17  C   UNL     1       0.175   9.965  17.793  0.00  0.00    +0.000 A 
ATOM     18  C   UNL     1      -0.928  10.210  18.572  0.00  0.00    +0.000 A 
ATOM     19  N   UNL     1      -0.613   9.971  19.888  0.00  0.00    +0.000 NA
ATOM     20  N   UNL     1       0.653   9.569  19.938  0.00  0.00    +0.000 NA
BRANCH  18  21
ATOM     21  C   UNL     1      -2.191  10.729  18.086  0.00  0.00    +0.000 A 
ATOM     22  C   UNL     1      -2.686  10.320  16.839  0.00  0.00    +0.000 A 
ATOM     23  C   UNL     1      -3.953  10.735  16.418  0.00  0.00    +0.000 A 
ATOM     24  C   UNL     1      -4.718  11.564  17.235  0.00  0.00    +0.000 A 
ATOM     25  F   UNL     1      -5.942  11.936  16.841  0.00  0.00    +0.000 F 
ATOM     26  C   UNL     1      -4.233  12.008  18.454  0.00  0.00    +0.000 A 
ATOM     27  C   UNL     1      -2.971  11.595  18.866  0.00  0.00    +0.000 A 
ATOM     28  F   UNL     1      -2.527  12.056  20.045  0.00  0.00    +0.000 F 
ENDBRANCH  18  21
ENDBRANCH  15  16
ENDBRANCH   4  15
BRANCH   8  29
ATOM     29  C   UNL     1       5.524   3.162  15.426  0.00  0.00    +0.000 C 
BRANCH  29  30
ATOM     30  C   UNL     1       6.212   3.870  14.285  0.00  0.00    +0.000 A 
ATOM     31  C   UNL     1       7.162   4.868  14.546  0.00  0.00    +0.000 A 
ATOM     32  C   UNL     1       7.875   5.460  13.501  0.00  0.00    +0.000 A 
ATOM     33  C   UNL     1       7.642   5.069  12.185  0.00  0.00    +0.000 A 
ATOM     34  C   UNL     1       6.685   4.096  11.909  0.00  0.00    +0.000 A 
ATOM     35  C   UNL     1       5.975   3.500  12.952  0.00  0.00    +0.000 A 
ENDBRANCH  29  30
ENDBRANCH   8  29
TORSDOF 5
ENDMDL
MODEL 9
REMARK VINA RESULT:      -8.2      1.649      2.260
REMARK  Name = 
REMARK  5 active torsions:
REMARK  status: ('A' for Active; 'I' for Inactive)
REMARK    1  A    between atoms: C_4  and  C_5
REMARK    2  A    between atoms: C_5  and  N_6
REMARK    3  A    between atoms: C_8  and  C_9
REMARK    4  A    between atoms: N_22  and  C_23
REMARK    5  A    between atoms: C_23  and  C_24
REMARK                            x       y       z     vdW  Elec       q    Type
REMARK                         _______ _______ _______ _____ _____    ______ ____
ROOT
ATOM      1  O   UNL     1      -2.108  10.641  16.310  0.00  0.00    +0.000 OA
ATOM      2  C   UNL     1      -2.358  10.730  17.500  0.00  0.00    +0.000 C 
ATOM      3  O   UNL     1      -1.625  10.128  18.470  0.00  0.00    +0.000 OA
ATOM      4  C   UNL     1      -0.678  10.875  19.297  0.00  0.00    +0.000 C 
ATOM      5  C   UNL     1      -1.086  12.327  19.589  0.00  0.00    +0.000 C 
ATOM      6  C   UNL     1      -2.498  12.433  20.039  0.00  0.00    +0.000 A 
ATOM      7  C   UNL     1      -3.027  12.967  21.188  0.00  0.00    +0.000 A 
ATOM      8  N   UNL     1      -4.400  12.957  21.069  0.00  0.00    +0.000 N 
ATOM      9  C   UNL     1      -4.771  12.368  19.875  0.00  0.00    +0.000 A 
ATOM     10  C   UNL     1      -6.016  12.136  19.268  0.00  0.00    +0.000 A 
ATOM     11  C   UNL     1      -6.032  11.476  18.027  0.00  0.00    +0.000 A 
ATOM     12  C   UNL     1      -4.856  11.028  17.423  0.00  0.00    +0.000 A 
ATOM     13  C   UNL     1      -3.628  11.251  18.050  0.00  0.00    +0.000 A 
ATOM     14  C   UNL     1      -3.587  11.964  19.260  0.00  0.00    +0.000 A 
ENDROOT
BRANCH   4  15
ATOM     15  C   UNL     1       0.704  10.859  18.643  0.00  0.00    +0.000 C 
BRANCH  15  16
ATOM     16  N   UNL     1       1.358   9.580  18.804  0.00  0.00    +0.000 N 
ATOM     17  C   UNL     1       2.062   8.906  17.861  0.00  0.00    +0.000 A 
ATOM     18  C   UNL     1       2.439   7.747  18.492  0.00  0.00    +0.000 A 
ATOM     19  N   UNL     1       1.953   7.755  19.777  0.00  0.00    +0.000 NA
ATOM     20  N   UNL     1       1.299   8.898  19.959  0.00  0.00    +0.000 NA
BRANCH  18  21
ATOM     21  C   UNL     1       3.155   6.654  17.867  0.00  0.00    +0.000 A 
ATOM     22  C   UNL     1       4.357   6.899  17.185  0.00  0.00    +0.000 A 
ATOM     23  C   UNL     1       5.103   5.832  16.674  0.00  0.00    +0.000 A 
ATOM     24  C   UNL     1       4.645   4.527  16.834  0.00  0.00    +0.000 A 
ATOM     25  F   UNL     1       5.377   3.507  16.370  0.00  0.00    +0.000 F 
ATOM     26  C   UNL     1       3.444   4.266  17.473  0.00  0.00    +0.000 A 
ATOM     27  C   UNL     1       2.705   5.331  17.976  0.00  0.00    +0.000 A 
ATOM     28  F   UNL     1       1.539   5.043  18.575  0.00  0.00    +0.000 F 
ENDBRANCH  18  21
ENDBRANCH  15  16
ENDBRANCH   4  15
BRANCH   8  29
ATOM     29  C   UNL     1      -5.305  13.414  22.119  0.00  0.00    +0.000 C 
BRANCH  29  30
ATOM     30  C   UNL     1      -5.608  14.889  22.032  0.00  0.00    +0.000 A 
ATOM     31  C   UNL     1      -6.034  15.589  23.170  0.00  0.00    +0.000 A 
ATOM     32  C   UNL     1      -6.223  16.972  23.124  0.00  0.00    +0.000 A 
ATOM     33  C   UNL     1      -5.996  17.670  21.940  0.00  0.00    +0.000 A 
ATOM     34  C   UNL     1      -5.596  16.986  20.796  0.00  0.00    +0.000 A 
ATOM     35  C   UNL     1      -5.402  15.604  20.842  0.00  0.00    +0.000 A 
ENDBRANCH  29  30
ENDBRANCH   8  29
TORSDOF 5
ENDMDL
