MODEL 1
REMARK VINA RESULT:      -9.1      0.000      0.000
REMARK  Name = 
REMARK  4 active torsions:
REMARK  status: ('A' for Active; 'I' for Inactive)
REMARK    1  A    between atoms: C_1  and  C_2
REMARK    2  A    between atoms: C_4  and  N_5
REMARK    3  A    between atoms: N_8  and  C_9
REMARK    4  A    between atoms: C_12  and  C_13
REMARK                            x       y       z     vdW  Elec       q    Type
REMARK                         _______ _______ _______ _____ _____    ______ ____
ROOT
ATOM      1  C   UNL     1       1.485   9.206  19.622  0.00  0.00    +0.000 A 
ATOM      2  C   UNL     1       1.799   8.027  20.299  0.00  0.00    +0.000 A 
ATOM      3  C   UNL     1       2.466   6.988  19.652  0.00  0.00    +0.000 A 
ATOM      4  C   UNL     1       2.800   7.070  18.289  0.00  0.00    +0.000 A 
ATOM      5  C   UNL     1       2.329   8.203  17.598  0.00  0.00    +0.000 A 
ATOM      6  C   UNL     1       1.711   9.272  18.249  0.00  0.00    +0.000 A 
ENDROOT
BRANCH   4   7
ATOM      7  C   UNL     1       3.596   6.016  17.627  0.00  0.00    +0.000 A 
ATOM      8  C   UNL     1       4.669   6.354  16.760  0.00  0.00    +0.000 A 
ATOM      9  C   UNL     1       5.471   5.394  16.144  0.00  0.00    +0.000 A 
ATOM     10  C   UNL     1       5.261   4.040  16.380  0.00  0.00    +0.000 A 
ATOM     11  C   UNL     1       4.201   3.696  17.221  0.00  0.00    +0.000 A 
ATOM     12  N   UNL     1       3.775   2.466  17.646  0.00  0.00    +0.000 N 
ATOM     13  N   UNL     1       2.696   2.495  18.432  0.00  0.00    +0.000 NA
ATOM     14  C   UNL     1       2.402   3.786  18.518  0.00  0.00    +0.000 A 
ATOM     15  N   UNL     1       1.325   4.199  19.201  0.00  0.00    +0.000 N 
ATOM     16  C   UNL     1       3.343   4.621  17.823  0.00  0.00    +0.000 A 
ATOM     17  H   UNL     1       4.186   1.566  17.430  0.00  0.00    +0.000 HD
ATOM     18  H   UNL     1       0.736   3.496  19.633  0.00  0.00    +0.000 HD
ATOM     19  H   UNL     1       0.844   5.064  18.960  0.00  0.00    +0.000 HD
ENDBRANCH   4   7
BRANCH   1  23
ATOM     20  N   UNL     1      -0.676  11.742  21.043  0.00  0.00    +0.000 N 
ATOM     21  C   UNL     1      -0.388  10.560  20.388  0.00  0.00    +0.000 C 
ATOM     22  O   UNL     1      -1.222   9.769  19.954  0.00  0.00    +0.000 OA
ATOM     23  N   UNL     1       0.979  10.340  20.290  0.00  0.00    +0.000 N 
ATOM     24  H   UNL     1       0.076  12.404  21.135  0.00  0.00    +0.000 HD
ATOM     25  H   UNL     1       1.523  10.689  21.072  0.00  0.00    +0.000 HD
BRANCH  20  29
ATOM     26  C   UNL     1      -4.191  12.495  24.493  0.00  0.00    +0.000 C 
ATOM     27  C   UNL     1      -3.725  12.565  23.072  0.00  0.00    +0.000 A 
ATOM     28  C   UNL     1      -2.436  12.140  22.736  0.00  0.00    +0.000 A 
ATOM     29  C   UNL     1      -1.971  12.172  21.413  0.00  0.00    +0.000 A 
ATOM     30  C   UNL     1      -2.819  12.662  20.413  0.00  0.00    +0.000 A 
ATOM     31  C   UNL     1      -4.109  13.100  20.739  0.00  0.00    +0.000 A 
ATOM     32  C   UNL     1      -4.547  13.044  22.058  0.00  0.00    +0.000 A 
ATOM     33  F   UNL     1      -5.783  13.464  22.338  0.00  0.00    +0.000 F 
ENDBRANCH  20  29
ENDBRANCH   1  23
TORSDOF 3
ENDMDL
MODEL 2
REMARK VINA RESULT:      -9.1      1.319      2.196
REMARK  Name = 
REMARK  4 active torsions:
REMARK  status: ('A' for Active; 'I' for Inactive)
REMARK    1  A    between atoms: C_1  and  C_2
REMARK    2  A    between atoms: C_4  and  N_5
REMARK    3  A    between atoms: N_8  and  C_9
REMARK    4  A    between atoms: C_12  and  C_13
REMARK                            x       y       z     vdW  Elec       q    Type
REMARK                         _______ _______ _______ _____ _____    ______ ____
ROOT
ATOM      1  C   UNL     1       1.520   9.239  19.462  0.00  0.00    +0.000 A 
ATOM      2  C   UNL     1       1.820   8.964  18.127  0.00  0.00    +0.000 A 
ATOM      3  C   UNL     1       2.197   7.682  17.729  0.00  0.00    +0.000 A 
ATOM      4  C   UNL     1       2.337   6.639  18.660  0.00  0.00    +0.000 A 
ATOM      5  C   UNL     1       2.183   6.986  20.016  0.00  0.00    +0.000 A 
ATOM      6  C   UNL     1       1.751   8.252  20.418  0.00  0.00    +0.000 A 
ENDROOT
BRANCH   4   7
ATOM      7  C   UNL     1       2.635   5.258  18.229  0.00  0.00    +0.000 A 
ATOM      8  C   UNL     1       1.676   4.223  18.390  0.00  0.00    +0.000 A 
ATOM      9  C   UNL     1       1.899   2.914  17.963  0.00  0.00    +0.000 A 
ATOM     10  C   UNL     1       3.088   2.571  17.328  0.00  0.00    +0.000 A 
ATOM     11  C   UNL     1       4.043   3.577  17.176  0.00  0.00    +0.000 A 
ATOM     12  N   UNL     1       5.276   3.541  16.581  0.00  0.00    +0.000 N 
ATOM     13  N   UNL     1       5.953   4.690  16.638  0.00  0.00    +0.000 NA
ATOM     14  C   UNL     1       5.139   5.504  17.300  0.00  0.00    +0.000 A 
ATOM     15  N   UNL     1       5.516   6.755  17.595  0.00  0.00    +0.000 N 
ATOM     16  C   UNL     1       3.882   4.890  17.628  0.00  0.00    +0.000 A 
ATOM     17  H   UNL     1       5.709   2.752  16.115  0.00  0.00    +0.000 HD
ATOM     18  H   UNL     1       6.442   7.053  17.315  0.00  0.00    +0.000 HD
ATOM     19  H   UNL     1       5.142   7.242  18.409  0.00  0.00    +0.000 HD
ENDBRANCH   4   7
BRANCH   1  23
ATOM     20  N   UNL     1      -0.740  11.863  20.523  0.00  0.00    +0.000 N 
ATOM     21  C   UNL     1      -0.383  10.570  20.191  0.00  0.00    +0.000 C 
ATOM     22  O   UNL     1      -1.141   9.602  20.196  0.00  0.00    +0.000 OA
ATOM     23  N   UNL     1       0.963  10.469  19.866  0.00  0.00    +0.000 N 
ATOM     24  H   UNL     1      -0.101  12.592  20.254  0.00  0.00    +0.000 HD
ATOM     25  H   UNL     1       1.571  11.100  20.377  0.00  0.00    +0.000 HD
BRANCH  20  29
ATOM     26  C   UNL     1      -3.893  12.546  24.319  0.00  0.00    +0.000 C 
ATOM     27  C   UNL     1      -3.582  12.613  22.856  0.00  0.00    +0.000 A 
ATOM     28  C   UNL     1      -2.323  12.226  22.389  0.00  0.00    +0.000 A 
ATOM     29  C   UNL     1      -2.002  12.255  21.023  0.00  0.00    +0.000 A 
ATOM     30  C   UNL     1      -2.968  12.703  20.115  0.00  0.00    +0.000 A 
ATOM     31  C   UNL     1      -4.230  13.103  20.572  0.00  0.00    +0.000 A 
ATOM     32  C   UNL     1      -4.524  13.051  21.931  0.00  0.00    +0.000 A 
ATOM     33  F   UNL     1      -5.736  13.433  22.336  0.00  0.00    +0.000 F 
ENDBRANCH  20  29
ENDBRANCH   1  23
TORSDOF 3
ENDMDL
MODEL 3
REMARK VINA RESULT:      -8.9      1.405      2.524
REMARK  Name = 
REMARK  4 active torsions:
REMARK  status: ('A' for Active; 'I' for Inactive)
REMARK    1  A    between atoms: C_1  and  C_2
REMARK    2  A    between atoms: C_4  and  N_5
REMARK    3  A    between atoms: N_8  and  C_9
REMARK    4  A    between atoms: C_12  and  C_13
REMARK                            x       y       z     vdW  Elec       q    Type
REMARK                         _______ _______ _______ _____ _____    ______ ____
ROOT
ATOM      1  C   UNL     1       1.567   9.113  19.425  0.00  0.00    +0.000 A 
ATOM      2  C   UNL     1       1.866   8.803  18.098  0.00  0.00    +0.000 A 
ATOM      3  C   UNL     1       2.236   7.510  17.733  0.00  0.00    +0.000 A 
ATOM      4  C   UNL     1       2.369   6.489  18.689  0.00  0.00    +0.000 A 
ATOM      5  C   UNL     1       2.216   6.872  20.036  0.00  0.00    +0.000 A 
ATOM      6  C   UNL     1       1.790   8.149  20.406  0.00  0.00    +0.000 A 
ENDROOT
BRANCH   4   7
ATOM      7  C   UNL     1       2.660   5.096  18.294  0.00  0.00    +0.000 A 
ATOM      8  C   UNL     1       1.683   4.077  18.450  0.00  0.00    +0.000 A 
ATOM      9  C   UNL     1       1.899   2.757  18.056  0.00  0.00    +0.000 A 
ATOM     10  C   UNL     1       3.099   2.386  17.458  0.00  0.00    +0.000 A 
ATOM     11  C   UNL     1       4.071   3.377  17.311  0.00  0.00    +0.000 A 
ATOM     12  N   UNL     1       5.318   3.312  16.749  0.00  0.00    +0.000 N 
ATOM     13  N   UNL     1       6.010   4.454  16.801  0.00  0.00    +0.000 NA
ATOM     14  C   UNL     1       5.190   5.291  17.425  0.00  0.00    +0.000 A 
ATOM     15  N   UNL     1       5.575   6.544  17.706  0.00  0.00    +0.000 N 
ATOM     16  C   UNL     1       3.916   4.700  17.732  0.00  0.00    +0.000 A 
ATOM     17  H   UNL     1       5.753   2.509  16.310  0.00  0.00    +0.000 HD
ATOM     18  H   UNL     1       6.513   6.824  17.443  0.00  0.00    +0.000 HD
ATOM     19  H   UNL     1       5.188   7.051  18.499  0.00  0.00    +0.000 HD
ENDBRANCH   4   7
BRANCH   1  23
ATOM     20  N   UNL     1      -0.623  11.741  20.615  0.00  0.00    +0.000 N 
ATOM     21  C   UNL     1      -0.252  10.435  20.358  0.00  0.00    +0.000 C 
ATOM     22  O   UNL     1      -0.934   9.443  20.605  0.00  0.00    +0.000 OA
ATOM     23  N   UNL     1       1.015  10.356  19.798  0.00  0.00    +0.000 N 
ATOM     24  H   UNL     1      -0.091  12.463  20.156  0.00  0.00    +0.000 HD
ATOM     25  H   UNL     1       1.666  11.066  20.117  0.00  0.00    +0.000 HD
BRANCH  20  29
ATOM     26  C   UNL     1      -5.243  13.607  20.620  0.00  0.00    +0.000 C 
ATOM     27  C   UNL     1      -4.067  13.039  21.352  0.00  0.00    +0.000 A 
ATOM     28  C   UNL     1      -2.923  12.651  20.647  0.00  0.00    +0.000 A 
ATOM     29  C   UNL     1      -1.795  12.134  21.301  0.00  0.00    +0.000 A 
ATOM     30  C   UNL     1      -1.831  11.988  22.692  0.00  0.00    +0.000 A 
ATOM     31  C   UNL     1      -2.974  12.365  23.409  0.00  0.00    +0.000 A 
ATOM     32  C   UNL     1      -4.074  12.887  22.734  0.00  0.00    +0.000 A 
ATOM     33  F   UNL     1      -5.147  13.240  23.444  0.00  0.00    +0.000 F 
ENDBRANCH  20  29
ENDBRANCH   1  23
TORSDOF 3
ENDMDL
MODEL 4
REMARK VINA RESULT:      -8.8      0.459      1.277
REMARK  Name = 
REMARK  4 active torsions:
REMARK  status: ('A' for Active; 'I' for Inactive)
REMARK    1  A    between atoms: C_1  and  C_2
REMARK    2  A    between atoms: C_4  and  N_5
REMARK    3  A    between atoms: N_8  and  C_9
REMARK    4  A    between atoms: C_12  and  C_13
REMARK                            x       y       z     vdW  Elec       q    Type
REMARK                         _______ _______ _______ _____ _____    ______ ____
ROOT
ATOM      1  C   UNL     1       1.479   9.122  19.664  0.00  0.00    +0.000 A 
ATOM      2  C   UNL     1       1.820   7.971  20.378  0.00  0.00    +0.000 A 
ATOM      3  C   UNL     1       2.445   6.898  19.745  0.00  0.00    +0.000 A 
ATOM      4  C   UNL     1       2.708   6.915  18.365  0.00  0.00    +0.000 A 
ATOM      5  C   UNL     1       2.210   8.019  17.647  0.00  0.00    +0.000 A 
ATOM      6  C   UNL     1       1.634   9.123  18.280  0.00  0.00    +0.000 A 
ENDROOT
BRANCH   4   7
ATOM      7  C   UNL     1       3.461   5.825  17.711  0.00  0.00    +0.000 A 
ATOM      8  C   UNL     1       4.556   6.112  16.853  0.00  0.00    +0.000 A 
ATOM      9  C   UNL     1       5.319   5.115  16.246  0.00  0.00    +0.000 A 
ATOM     10  C   UNL     1       5.045   3.772  16.481  0.00  0.00    +0.000 A 
ATOM     11  C   UNL     1       3.963   3.479  17.313  0.00  0.00    +0.000 A 
ATOM     12  N   UNL     1       3.477   2.270  17.736  0.00  0.00    +0.000 N 
ATOM     13  N   UNL     1       2.394   2.349  18.512  0.00  0.00    +0.000 NA
ATOM     14  C   UNL     1       2.158   3.653  18.594  0.00  0.00    +0.000 A 
ATOM     15  N   UNL     1       1.096   4.115  19.267  0.00  0.00    +0.000 N 
ATOM     16  C   UNL     1       3.143   4.443  17.907  0.00  0.00    +0.000 A 
ATOM     17  H   UNL     1       3.849   1.352  17.525  0.00  0.00    +0.000 HD
ATOM     18  H   UNL     1       0.472   3.441  19.694  0.00  0.00    +0.000 HD
ATOM     19  H   UNL     1       0.657   5.001  19.020  0.00  0.00    +0.000 HD
ENDBRANCH   4   7
BRANCH   1  23
ATOM     20  N   UNL     1      -0.585  11.696  21.159  0.00  0.00    +0.000 N 
ATOM     21  C   UNL     1      -0.334  10.474  20.563  0.00  0.00    +0.000 C 
ATOM     22  O   UNL     1      -1.184   9.626  20.302  0.00  0.00    +0.000 OA
ATOM     23  N   UNL     1       1.017  10.289  20.304  0.00  0.00    +0.000 N 
ATOM     24  H   UNL     1       0.146  12.386  21.102  0.00  0.00    +0.000 HD
ATOM     25  H   UNL     1       1.641  10.717  20.981  0.00  0.00    +0.000 HD
BRANCH  20  29
ATOM     26  C   UNL     1      -5.050  13.805  20.498  0.00  0.00    +0.000 C 
ATOM     27  C   UNL     1      -4.043  13.137  21.382  0.00  0.00    +0.000 A 
ATOM     28  C   UNL     1      -2.814  12.725  20.858  0.00  0.00    +0.000 A 
ATOM     29  C   UNL     1      -1.838  12.115  21.660  0.00  0.00    +0.000 A 
ATOM     30  C   UNL     1      -2.118  11.899  23.014  0.00  0.00    +0.000 A 
ATOM     31  C   UNL     1      -3.350  12.298  23.548  0.00  0.00    +0.000 A 
ATOM     32  C   UNL     1      -4.293  12.913  22.731  0.00  0.00    +0.000 A 
ATOM     33  F   UNL     1      -5.456  13.286  23.270  0.00  0.00    +0.000 F 
ENDBRANCH  20  29
ENDBRANCH   1  23
TORSDOF 3
ENDMDL
MODEL 5
REMARK VINA RESULT:      -8.7      3.683      4.719
REMARK  Name = 
REMARK  4 active torsions:
REMARK  status: ('A' for Active; 'I' for Inactive)
REMARK    1  A    between atoms: C_1  and  C_2
REMARK    2  A    between atoms: C_4  and  N_5
REMARK    3  A    between atoms: N_8  and  C_9
REMARK    4  A    between atoms: C_12  and  C_13
REMARK                            x       y       z     vdW  Elec       q    Type
REMARK                         _______ _______ _______ _____ _____    ______ ____
ROOT
ATOM      1  C   UNL     1       1.495   9.322  18.587  0.00  0.00    +0.000 A 
ATOM      2  C   UNL     1       2.160   8.419  17.756  0.00  0.00    +0.000 A 
ATOM      3  C   UNL     1       2.461   7.131  18.198  0.00  0.00    +0.000 A 
ATOM      4  C   UNL     1       2.152   6.714  19.503  0.00  0.00    +0.000 A 
ATOM      5  C   UNL     1       1.626   7.697  20.365  0.00  0.00    +0.000 A 
ATOM      6  C   UNL     1       1.270   8.970  19.916  0.00  0.00    +0.000 A 
ENDROOT
BRANCH   4   7
ATOM      7  C   UNL     1       2.376   5.321  19.940  0.00  0.00    +0.000 A 
ATOM      8  C   UNL     1       1.362   4.605  20.631  0.00  0.00    +0.000 A 
ATOM      9  C   UNL     1       1.514   3.277  21.027  0.00  0.00    +0.000 A 
ATOM     10  C   UNL     1       2.682   2.581  20.735  0.00  0.00    +0.000 A 
ATOM     11  C   UNL     1       3.690   3.279  20.067  0.00  0.00    +0.000 A 
ATOM     12  N   UNL     1       4.918   2.856  19.635  0.00  0.00    +0.000 N 
ATOM     13  N   UNL     1       5.657   3.804  19.051  0.00  0.00    +0.000 NA
ATOM     14  C   UNL     1       4.888   4.885  19.110  0.00  0.00    +0.000 A 
ATOM     15  N   UNL     1       5.331   6.065  18.655  0.00  0.00    +0.000 N 
ATOM     16  C   UNL     1       3.600   4.622  19.690  0.00  0.00    +0.000 A 
ATOM     17  H   UNL     1       5.308   1.925  19.711  0.00  0.00    +0.000 HD
ATOM     18  H   UNL     1       6.273   6.109  18.283  0.00  0.00    +0.000 HD
ATOM     19  H   UNL     1       4.985   6.943  19.038  0.00  0.00    +0.000 HD
ENDBRANCH   4   7
BRANCH   1  23
ATOM     20  N   UNL     1       0.644  12.824  18.222  0.00  0.00    +0.000 N 
ATOM     21  C   UNL     1       1.224  11.729  18.834  0.00  0.00    +0.000 C 
ATOM     22  O   UNL     1       1.871  11.760  19.878  0.00  0.00    +0.000 OA
ATOM     23  N   UNL     1       1.015  10.560  18.114  0.00  0.00    +0.000 N 
ATOM     24  H   UNL     1      -0.047  12.635  17.515  0.00  0.00    +0.000 HD
ATOM     25  H   UNL     1       0.981  10.682  17.107  0.00  0.00    +0.000 HD
BRANCH  20  29
ATOM     26  C   UNL     1       3.473  16.857  18.961  0.00  0.00    +0.000 C 
ATOM     27  C   UNL     1       2.143  16.171  19.016  0.00  0.00    +0.000 A 
ATOM     28  C   UNL     1       2.020  14.847  18.587  0.00  0.00    +0.000 A 
ATOM     29  C   UNL     1       0.795  14.165  18.642  0.00  0.00    +0.000 A 
ATOM     30  C   UNL     1      -0.331  14.842  19.123  0.00  0.00    +0.000 A 
ATOM     31  C   UNL     1      -0.222  16.172  19.548  0.00  0.00    +0.000 A 
ATOM     32  C   UNL     1       1.009  16.819  19.493  0.00  0.00    +0.000 A 
ATOM     33  F   UNL     1       1.082  18.085  19.908  0.00  0.00    +0.000 F 
ENDBRANCH  20  29
ENDBRANCH   1  23
TORSDOF 3
ENDMDL
MODEL 6
REMARK VINA RESULT:      -8.7      3.569      4.461
REMARK  Name = 
REMARK  4 active torsions:
REMARK  status: ('A' for Active; 'I' for Inactive)
REMARK    1  A    between atoms: C_1  and  C_2
REMARK    2  A    between atoms: C_4  and  N_5
REMARK    3  A    between atoms: N_8  and  C_9
REMARK    4  A    between atoms: C_12  and  C_13
REMARK                            x       y       z     vdW  Elec       q    Type
REMARK                         _______ _______ _______ _____ _____    ______ ____
ROOT
ATOM      1  C   UNL     1       1.510   9.361  18.552  0.00  0.00    +0.000 A 
ATOM      2  C   UNL     1       2.170   8.454  17.722  0.00  0.00    +0.000 A 
ATOM      3  C   UNL     1       2.472   7.168  18.168  0.00  0.00    +0.000 A 
ATOM      4  C   UNL     1       2.171   6.758  19.478  0.00  0.00    +0.000 A 
ATOM      5  C   UNL     1       1.652   7.745  20.337  0.00  0.00    +0.000 A 
ATOM      6  C   UNL     1       1.293   9.016  19.885  0.00  0.00    +0.000 A 
ENDROOT
BRANCH   4   7
ATOM      7  C   UNL     1       2.397   5.366  19.920  0.00  0.00    +0.000 A 
ATOM      8  C   UNL     1       1.386   4.653  20.618  0.00  0.00    +0.000 A 
ATOM      9  C   UNL     1       1.541   3.327  21.020  0.00  0.00    +0.000 A 
ATOM     10  C   UNL     1       2.708   2.630  20.726  0.00  0.00    +0.000 A 
ATOM     11  C   UNL     1       3.713   3.326  20.051  0.00  0.00    +0.000 A 
ATOM     12  N   UNL     1       4.940   2.902  19.616  0.00  0.00    +0.000 N 
ATOM     13  N   UNL     1       5.676   3.846  19.026  0.00  0.00    +0.000 NA
ATOM     14  C   UNL     1       4.907   4.927  19.083  0.00  0.00    +0.000 A 
ATOM     15  N   UNL     1       5.348   6.105  18.621  0.00  0.00    +0.000 N 
ATOM     16  C   UNL     1       3.621   4.667  19.669  0.00  0.00    +0.000 A 
ATOM     17  H   UNL     1       5.331   1.970  19.695  0.00  0.00    +0.000 HD
ATOM     18  H   UNL     1       6.288   6.148  18.245  0.00  0.00    +0.000 HD
ATOM     19  H   UNL     1       5.003   6.985  19.001  0.00  0.00    +0.000 HD
ENDBRANCH   4   7
BRANCH   1  23
ATOM     20  N   UNL     1       0.602  12.850  18.204  0.00  0.00    +0.000 N 
ATOM     21  C   UNL     1       1.174  11.757  18.825  0.00  0.00    +0.000 C 
ATOM     22  O   UNL     1       1.767  11.783  19.901  0.00  0.00    +0.000 OA
ATOM     23  N   UNL     1       1.027  10.597  18.076  0.00  0.00    +0.000 N 
ATOM     24  H   UNL     1      -0.048  12.659  17.459  0.00  0.00    +0.000 HD
ATOM     25  H   UNL     1       1.042  10.736  17.071  0.00  0.00    +0.000 HD
BRANCH  20  29
ATOM     26  C   UNL     1      -1.458  16.966  20.110  0.00  0.00    +0.000 C 
ATOM     27  C   UNL     1      -0.262  16.228  19.592  0.00  0.00    +0.000 A 
ATOM     28  C   UNL     1      -0.390  14.904  19.162  0.00  0.00    +0.000 A 
ATOM     29  C   UNL     1       0.703  14.186  18.653  0.00  0.00    +0.000 A 
ATOM     30  C   UNL     1       1.953  14.814  18.595  0.00  0.00    +0.000 A 
ATOM     31  C   UNL     1       2.094  16.137  19.032  0.00  0.00    +0.000 A 
ATOM     32  C   UNL     1       0.990  16.828  19.521  0.00  0.00    +0.000 A 
ATOM     33  F   UNL     1       1.154  18.089  19.926  0.00  0.00    +0.000 F 
ENDBRANCH  20  29
ENDBRANCH   1  23
TORSDOF 3
ENDMDL
MODEL 7
REMARK VINA RESULT:      -8.7      3.646     10.722
REMARK  Name = 
REMARK  4 active torsions:
REMARK  status: ('A' for Active; 'I' for Inactive)
REMARK    1  A    between atoms: C_1  and  C_2
REMARK    2  A    between atoms: C_4  and  N_5
REMARK    3  A    between atoms: N_8  and  C_9
REMARK    4  A    between atoms: C_12  and  C_13
REMARK                            x       y       z     vdW  Elec       q    Type
REMARK                         _______ _______ _______ _____ _____    ______ ____
ROOT
ATOM      1  C   UNL     1      -0.071  10.804  21.874  0.00  0.00    +0.000 A 
ATOM      2  C   UNL     1      -0.761  10.715  23.084  0.00  0.00    +0.000 A 
ATOM      3  C   UNL     1      -1.912  11.469  23.306  0.00  0.00    +0.000 A 
ATOM      4  C   UNL     1      -2.388  12.378  22.346  0.00  0.00    +0.000 A 
ATOM      5  C   UNL     1      -1.582  12.561  21.206  0.00  0.00    +0.000 A 
ATOM      6  C   UNL     1      -0.460  11.770  20.950  0.00  0.00    +0.000 A 
ENDROOT
BRANCH   4   7
ATOM      7  C   UNL     1      -3.662  13.101  22.535  0.00  0.00    +0.000 A 
ATOM      8  C   UNL     1      -4.821  12.735  21.801  0.00  0.00    +0.000 A 
ATOM      9  C   UNL     1      -6.054  13.364  21.975  0.00  0.00    +0.000 A 
ATOM     10  C   UNL     1      -6.203  14.381  22.912  0.00  0.00    +0.000 A 
ATOM     11  C   UNL     1      -5.067  14.757  23.631  0.00  0.00    +0.000 A 
ATOM     12  N   UNL     1      -4.917  15.695  24.617  0.00  0.00    +0.000 N 
ATOM     13  N   UNL     1      -3.670  15.823  25.075  0.00  0.00    +0.000 NA
ATOM     14  C   UNL     1      -2.978  14.945  24.359  0.00  0.00    +0.000 A 
ATOM     15  N   UNL     1      -1.652  14.829  24.514  0.00  0.00    +0.000 N 
ATOM     16  C   UNL     1      -3.802  14.187  23.458  0.00  0.00    +0.000 A 
ATOM     17  H   UNL     1      -5.638  16.280  25.021  0.00  0.00    +0.000 HD
ATOM     18  H   UNL     1      -1.194  15.442  25.178  0.00  0.00    +0.000 HD
ATOM     19  H   UNL     1      -1.056  14.510  23.752  0.00  0.00    +0.000 HD
ENDBRANCH   4   7
BRANCH   1  23
ATOM     20  N   UNL     1       1.889   7.941  20.833  0.00  0.00    +0.000 N 
ATOM     21  C   UNL     1       0.727   8.655  21.052  0.00  0.00    +0.000 C 
ATOM     22  O   UNL     1      -0.410   8.247  20.825  0.00  0.00    +0.000 OA
ATOM     23  N   UNL     1       0.983   9.927  21.548  0.00  0.00    +0.000 N 
ATOM     24  H   UNL     1       2.724   8.288  21.275  0.00  0.00    +0.000 HD
ATOM     25  H   UNL     1       1.840  10.350  21.207  0.00  0.00    +0.000 HD
BRANCH  20  29
ATOM     26  C   UNL     1       1.298   2.996  20.959  0.00  0.00    +0.000 C 
ATOM     27  C   UNL     1       1.680   4.243  20.224  0.00  0.00    +0.000 A 
ATOM     28  C   UNL     1       1.592   5.485  20.861  0.00  0.00    +0.000 A 
ATOM     29  C   UNL     1       1.960   6.673  20.212  0.00  0.00    +0.000 A 
ATOM     30  C   UNL     1       2.406   6.607  18.887  0.00  0.00    +0.000 A 
ATOM     31  C   UNL     1       2.489   5.369  18.236  0.00  0.00    +0.000 A 
ATOM     32  C   UNL     1       2.129   4.206  18.909  0.00  0.00    +0.000 A 
ATOM     33  F   UNL     1       2.223   3.041  18.264  0.00  0.00    +0.000 F 
ENDBRANCH  20  29
ENDBRANCH   1  23
TORSDOF 3
ENDMDL
MODEL 8
REMARK VINA RESULT:      -8.7      1.726      2.852
REMARK  Name = 
REMARK  4 active torsions:
REMARK  status: ('A' for Active; 'I' for Inactive)
REMARK    1  A    between atoms: C_1  and  C_2
REMARK    2  A    between atoms: C_4  and  N_5
REMARK    3  A    between atoms: N_8  and  C_9
REMARK    4  A    between atoms: C_12  and  C_13
REMARK                            x       y       z     vdW  Elec       q    Type
REMARK                         _______ _______ _______ _____ _____    ______ ____
ROOT
ATOM      1  C   UNL     1       1.406   9.282  19.155  0.00  0.00    +0.000 A 
ATOM      2  C   UNL     1       1.777   8.965  17.847  0.00  0.00    +0.000 A 
ATOM      3  C   UNL     1       2.242   7.690  17.527  0.00  0.00    +0.000 A 
ATOM      4  C   UNL     1       2.400   6.700  18.511  0.00  0.00    +0.000 A 
ATOM      5  C   UNL     1       2.169   7.099  19.842  0.00  0.00    +0.000 A 
ATOM      6  C   UNL     1       1.650   8.355  20.165  0.00  0.00    +0.000 A 
ENDROOT
BRANCH   4   7
ATOM      7  C   UNL     1       2.793   5.320  18.159  0.00  0.00    +0.000 A 
ATOM      8  C   UNL     1       1.900   4.235  18.367  0.00  0.00    +0.000 A 
ATOM      9  C   UNL     1       2.214   2.923  18.015  0.00  0.00    +0.000 A 
ATOM     10  C   UNL     1       3.431   2.624  17.411  0.00  0.00    +0.000 A 
ATOM     11  C   UNL     1       4.321   3.681  17.214  0.00  0.00    +0.000 A 
ATOM     12  N   UNL     1       5.562   3.693  16.634  0.00  0.00    +0.000 N 
ATOM     13  N   UNL     1       6.162   4.886  16.636  0.00  0.00    +0.000 NA
ATOM     14  C   UNL     1       5.289   5.679  17.244  0.00  0.00    +0.000 A 
ATOM     15  N   UNL     1       5.579   6.967  17.474  0.00  0.00    +0.000 N 
ATOM     16  C   UNL     1       4.069   5.003  17.592  0.00  0.00    +0.000 A 
ATOM     17  H   UNL     1       6.051   2.911  16.217  0.00  0.00    +0.000 HD
ATOM     18  H   UNL     1       6.488   7.309  17.187  0.00  0.00    +0.000 HD
ATOM     19  H   UNL     1       5.164   7.471  18.256  0.00  0.00    +0.000 HD
ENDBRANCH   4   7
BRANCH   1  23
ATOM     20  N   UNL     1      -1.046  11.888  19.719  0.00  0.00    +0.000 N 
ATOM     21  C   UNL     1      -0.618  10.612  19.403  0.00  0.00    +0.000 C 
ATOM     22  O   UNL     1      -1.350   9.671  19.108  0.00  0.00    +0.000 OA
ATOM     23  N   UNL     1       0.764  10.495  19.477  0.00  0.00    +0.000 N 
ATOM     24  H   UNL     1      -0.350  12.615  19.708  0.00  0.00    +0.000 HD
ATOM     25  H   UNL     1       1.201  11.067  20.192  0.00  0.00    +0.000 HD
BRANCH  20  29
ATOM     26  C   UNL     1      -5.737  12.019  18.045  0.00  0.00    +0.000 C 
ATOM     27  C   UNL     1      -4.714  12.366  19.082  0.00  0.00    +0.000 A 
ATOM     28  C   UNL     1      -3.386  11.957  18.920  0.00  0.00    +0.000 A 
ATOM     29  C   UNL     1      -2.396  12.280  19.860  0.00  0.00    +0.000 A 
ATOM     30  C   UNL     1      -2.759  13.014  20.995  0.00  0.00    +0.000 A 
ATOM     31  C   UNL     1      -4.088  13.421  21.173  0.00  0.00    +0.000 A 
ATOM     32  C   UNL     1      -5.046  13.096  20.217  0.00  0.00    +0.000 A 
ATOM     33  F   UNL     1      -6.303  13.502  20.412  0.00  0.00    +0.000 F 
ENDBRANCH  20  29
ENDBRANCH   1  23
TORSDOF 3
ENDMDL
MODEL 9
REMARK VINA RESULT:      -8.6      6.519      9.141
REMARK  Name = 
REMARK  4 active torsions:
REMARK  status: ('A' for Active; 'I' for Inactive)
REMARK    1  A    between atoms: C_1  and  C_2
REMARK    2  A    between atoms: C_4  and  N_5
REMARK    3  A    between atoms: N_8  and  C_9
REMARK    4  A    between atoms: C_12  and  C_13
REMARK                            x       y       z     vdW  Elec       q    Type
REMARK                         _______ _______ _______ _____ _____    ______ ____
ROOT
ATOM      1  C   UNL     1       7.541   6.759  18.566  0.00  0.00    +0.000 A 
ATOM      2  C   UNL     1       6.628   6.920  17.523  0.00  0.00    +0.000 A 
ATOM      3  C   UNL     1       5.533   6.067  17.395  0.00  0.00    +0.000 A 
ATOM      4  C   UNL     1       5.336   4.991  18.277  0.00  0.00    +0.000 A 
ATOM      5  C   UNL     1       6.358   4.761  19.219  0.00  0.00    +0.000 A 
ATOM      6  C   UNL     1       7.428   5.642  19.390  0.00  0.00    +0.000 A 
ENDROOT
BRANCH   4   7
ATOM      7  C   UNL     1       4.124   4.149  18.207  0.00  0.00    +0.000 A 
ATOM      8  C   UNL     1       4.095   2.985  17.394  0.00  0.00    +0.000 A 
ATOM      9  C   UNL     1       2.987   2.141  17.328  0.00  0.00    +0.000 A 
ATOM     10  C   UNL     1       1.853   2.400  18.090  0.00  0.00    +0.000 A 
ATOM     11  C   UNL     1       1.867   3.548  18.884  0.00  0.00    +0.000 A 
ATOM     12  N   UNL     1       0.920   4.039  19.742  0.00  0.00    +0.000 N 
ATOM     13  N   UNL     1       1.247   5.194  20.327  0.00  0.00    +0.000 NA
ATOM     14  C   UNL     1       2.446   5.472  19.829  0.00  0.00    +0.000 A 
ATOM     15  N   UNL     1       3.078   6.606  20.159  0.00  0.00    +0.000 N 
ATOM     16  C   UNL     1       2.935   4.447  18.947  0.00  0.00    +0.000 A 
ATOM     17  H   UNL     1       0.024   3.624  19.970  0.00  0.00    +0.000 HD
ATOM     18  H   UNL     1       2.606   7.250  20.784  0.00  0.00    +0.000 HD
ATOM     19  H   UNL     1       3.747   7.043  19.527  0.00  0.00    +0.000 HD
ENDBRANCH   4   7
BRANCH   1  23
ATOM     20  N   UNL     1       9.553   9.768  18.690  0.00  0.00    +0.000 N 
ATOM     21  C   UNL     1       8.448   9.009  18.358  0.00  0.00    +0.000 C 
ATOM     22  O   UNL     1       7.469   9.416  17.737  0.00  0.00    +0.000 OA
ATOM     23  N   UNL     1       8.549   7.708  18.831  0.00  0.00    +0.000 N 
ATOM     24  H   UNL     1      10.376   9.267  18.983  0.00  0.00    +0.000 HD
ATOM     25  H   UNL     1       9.044   7.614  19.712  0.00  0.00    +0.000 HD
BRANCH  20  29
ATOM     26  C   UNL     1      11.668  13.614  16.332  0.00  0.00    +0.000 C 
ATOM     27  C   UNL     1      10.689  13.077  17.329  0.00  0.00    +0.000 A 
ATOM     28  C   UNL     1      10.575  11.697  17.525  0.00  0.00    +0.000 A 
ATOM     29  C   UNL     1       9.683  11.158  18.464  0.00  0.00    +0.000 A 
ATOM     30  C   UNL     1       8.877  12.029  19.206  0.00  0.00    +0.000 A 
ATOM     31  C   UNL     1       8.975  13.413  19.010  0.00  0.00    +0.000 A 
ATOM     32  C   UNL     1       9.878  13.920  18.080  0.00  0.00    +0.000 A 
ATOM     33  F   UNL     1       9.952  15.243  17.920  0.00  0.00    +0.000 F 
ENDBRANCH  20  29
ENDBRANCH   1  23
TORSDOF 3
ENDMDL
