MODEL 1
REMARK VINA RESULT:      -7.2      0.000      0.000
REMARK  Name = 
REMARK  4 active torsions:
REMARK  status: ('A' for Active; 'I' for Inactive)
REMARK    1  A    between atoms: C_2  and  C_3
REMARK    2  A    between atoms: C_8  and  C_9
REMARK    3  A    between atoms: C_9  and  S_10
REMARK    4  A    between atoms: S_10  and  C_13
REMARK                            x       y       z     vdW  Elec       q    Type
REMARK                         _______ _______ _______ _____ _____    ______ ____
ROOT
ATOM      1  S   UNL     1       5.449   4.748  19.040  0.00  0.00    +0.000 S 
ATOM      2  O   UNL     1       6.386   5.582  19.771  0.00  0.00    +0.000 OA
ATOM      3  O   UNL     1       5.375   3.322  19.314  0.00  0.00    +0.000 OA
ENDROOT
BRANCH   1   4
ATOM      4  C   UNL     1       5.945   4.863  17.342  0.00  0.00    +0.000 A 
ATOM      5  C   UNL     1       4.977   5.327  16.425  0.00  0.00    +0.000 A 
ATOM      6  C   UNL     1       5.280   5.440  15.069  0.00  0.00    +0.000 A 
ATOM      7  C   UNL     1       6.541   5.092  14.618  0.00  0.00    +0.000 A 
ATOM      8  C   UNL     1       7.486   4.644  15.536  0.00  0.00    +0.000 A 
ATOM      9  N   UNL     1       7.205   4.532  16.894  0.00  0.00    +0.000 N 
ATOM     10  O   UNL     1       8.128   4.136  17.667  0.00  0.00    +0.000 OA
ENDBRANCH   1   4
BRANCH   1  11
ATOM     11  C   UNL     1       3.818   5.446  19.212  0.00  0.00    +0.000 C 
BRANCH  11  17
ATOM     12  C   UNL     1       2.118   3.519  19.119  0.00  0.00    +0.000 A 
ATOM     13  C   UNL     1       1.340   2.560  19.786  0.00  0.00    +0.000 A 
ATOM     14  C   UNL     1       1.287   2.532  21.180  0.00  0.00    +0.000 A 
ATOM     15  C   UNL     1       1.998   3.473  21.915  0.00  0.00    +0.000 A 
ATOM     16  C   UNL     1       2.775   4.431  21.262  0.00  0.00    +0.000 A 
ATOM     17  C   UNL     1       2.863   4.460  19.857  0.00  0.00    +0.000 A 
BRANCH  12  19
ATOM     18  N   UNL     1       2.158   3.397  16.525  0.00  0.00    +0.000 NA
ATOM     19  C   UNL     1       2.145   3.467  17.682  0.00  0.00    +0.000 C 
ENDBRANCH  12  19
ENDBRANCH  11  17
ENDBRANCH   1  11
TORSDOF 4
ENDMDL
MODEL 2
REMARK VINA RESULT:      -7.1      2.854      3.883
REMARK  Name = 
REMARK  4 active torsions:
REMARK  status: ('A' for Active; 'I' for Inactive)
REMARK    1  A    between atoms: C_2  and  C_3
REMARK    2  A    between atoms: C_8  and  C_9
REMARK    3  A    between atoms: C_9  and  S_10
REMARK    4  A    between atoms: S_10  and  C_13
REMARK                            x       y       z     vdW  Elec       q    Type
REMARK                         _______ _______ _______ _____ _____    ______ ____
ROOT
ATOM      1  S   UNL     1       6.389   5.036  15.887  0.00  0.00    +0.000 S 
ATOM      2  O   UNL     1       5.593   6.251  15.871  0.00  0.00    +0.000 OA
ATOM      3  O   UNL     1       7.757   5.070  16.379  0.00  0.00    +0.000 OA
ENDROOT
BRANCH   1   4
ATOM      4  C   UNL     1       6.524   4.541  14.190  0.00  0.00    +0.000 A 
ATOM      5  C   UNL     1       5.538   3.654  13.706  0.00  0.00    +0.000 A 
ATOM      6  C   UNL     1       5.573   3.207  12.386  0.00  0.00    +0.000 A 
ATOM      7  C   UNL     1       6.585   3.635  11.544  0.00  0.00    +0.000 A 
ATOM      8  C   UNL     1       7.543   4.516  12.035  0.00  0.00    +0.000 A 
ATOM      9  N   UNL     1       7.521   4.980  13.347  0.00  0.00    +0.000 N 
ATOM     10  O   UNL     1       8.419   5.797  13.710  0.00  0.00    +0.000 OA
ENDBRANCH   1   4
BRANCH   1  11
ATOM     11  C   UNL     1       5.492   3.785  16.783  0.00  0.00    +0.000 C 
BRANCH  11  17
ATOM     12  C   UNL     1       4.691   5.113  18.835  0.00  0.00    +0.000 A 
ATOM     13  C   UNL     1       3.654   5.754  19.531  0.00  0.00    +0.000 A 
ATOM     14  C   UNL     1       2.340   5.684  19.069  0.00  0.00    +0.000 A 
ATOM     15  C   UNL     1       2.050   4.961  17.919  0.00  0.00    +0.000 A 
ATOM     16  C   UNL     1       3.074   4.320  17.218  0.00  0.00    +0.000 A 
ATOM     17  C   UNL     1       4.411   4.399  17.653  0.00  0.00    +0.000 A 
BRANCH  12  19
ATOM     18  N   UNL     1       7.110   5.352  19.751  0.00  0.00    +0.000 NA
ATOM     19  C   UNL     1       6.024   5.253  19.355  0.00  0.00    +0.000 C 
ENDBRANCH  12  19
ENDBRANCH  11  17
ENDBRANCH   1  11
TORSDOF 4
ENDMDL
MODEL 3
REMARK VINA RESULT:      -6.9      2.093      6.073
REMARK  Name = 
REMARK  4 active torsions:
REMARK  status: ('A' for Active; 'I' for Inactive)
REMARK    1  A    between atoms: C_2  and  C_3
REMARK    2  A    between atoms: C_8  and  C_9
REMARK    3  A    between atoms: C_9  and  S_10
REMARK    4  A    between atoms: S_10  and  C_13
REMARK                            x       y       z     vdW  Elec       q    Type
REMARK                         _______ _______ _______ _____ _____    ______ ____
ROOT
ATOM      1  S   UNL     1       3.093   3.409  17.564  0.00  0.00    +0.000 S 
ATOM      2  O   UNL     1       1.855   3.440  16.804  0.00  0.00    +0.000 OA
ATOM      3  O   UNL     1       4.104   2.406  17.268  0.00  0.00    +0.000 OA
ENDROOT
BRANCH   1   4
ATOM      4  C   UNL     1       2.607   3.092  19.238  0.00  0.00    +0.000 A 
ATOM      5  C   UNL     1       1.237   3.242  19.544  0.00  0.00    +0.000 A 
ATOM      6  C   UNL     1       0.770   3.021  20.838  0.00  0.00    +0.000 A 
ATOM      7  C   UNL     1       1.659   2.653  21.834  0.00  0.00    +0.000 A 
ATOM      8  C   UNL     1       3.004   2.501  21.514  0.00  0.00    +0.000 A 
ATOM      9  N   UNL     1       3.489   2.710  20.226  0.00  0.00    +0.000 N 
ATOM     10  O   UNL     1       4.725   2.530  20.014  0.00  0.00    +0.000 OA
ENDBRANCH   1   4
BRANCH   1  11
ATOM     11  C   UNL     1       3.847   5.021  17.478  0.00  0.00    +0.000 C 
BRANCH  11  17
ATOM     12  C   UNL     1       6.398   5.038  17.154  0.00  0.00    +0.000 A 
ATOM     13  C   UNL     1       7.511   4.898  16.309  0.00  0.00    +0.000 A 
ATOM     14  C   UNL     1       7.342   4.731  14.935  0.00  0.00    +0.000 A 
ATOM     15  C   UNL     1       6.062   4.718  14.394  0.00  0.00    +0.000 A 
ATOM     16  C   UNL     1       4.949   4.856  15.224  0.00  0.00    +0.000 A 
ATOM     17  C   UNL     1       5.096   5.000  16.618  0.00  0.00    +0.000 A 
BRANCH  12  19
ATOM     18  N   UNL     1       6.824   5.282  19.705  0.00  0.00    +0.000 NA
ATOM     19  C   UNL     1       6.650   5.177  18.563  0.00  0.00    +0.000 C 
ENDBRANCH  12  19
ENDBRANCH  11  17
ENDBRANCH   1  11
TORSDOF 4
ENDMDL
MODEL 4
REMARK VINA RESULT:      -6.9      2.010      2.409
REMARK  Name = 
REMARK  4 active torsions:
REMARK  status: ('A' for Active; 'I' for Inactive)
REMARK    1  A    between atoms: C_2  and  C_3
REMARK    2  A    between atoms: C_8  and  C_9
REMARK    3  A    between atoms: C_9  and  S_10
REMARK    4  A    between atoms: S_10  and  C_13
REMARK                            x       y       z     vdW  Elec       q    Type
REMARK                         _______ _______ _______ _____ _____    ______ ____
ROOT
ATOM      1  S   UNL     1       5.118   4.398  18.045  0.00  0.00    +0.000 S 
ATOM      2  O   UNL     1       4.286   5.578  18.202  0.00  0.00    +0.000 OA
ATOM      3  O   UNL     1       6.233   4.168  18.950  0.00  0.00    +0.000 OA
ENDROOT
BRANCH   1   4
ATOM      4  C   UNL     1       5.855   4.555  16.440  0.00  0.00    +0.000 A 
ATOM      5  C   UNL     1       5.231   3.859  15.382  0.00  0.00    +0.000 A 
ATOM      6  C   UNL     1       5.749   3.920  14.090  0.00  0.00    +0.000 A 
ATOM      7  C   UNL     1       6.888   4.669  13.842  0.00  0.00    +0.000 A 
ATOM      8  C   UNL     1       7.485   5.356  14.895  0.00  0.00    +0.000 A 
ATOM      9  N   UNL     1       6.978   5.313  16.191  0.00  0.00    +0.000 N 
ATOM     10  O   UNL     1       7.570   5.983  17.088  0.00  0.00    +0.000 OA
ENDBRANCH   1   4
BRANCH   1  11
ATOM     11  C   UNL     1       4.067   2.960  18.058  0.00  0.00    +0.000 C 
BRANCH  11  17
ATOM     12  C   UNL     1       3.271   2.554  20.469  0.00  0.00    +0.000 A 
ATOM     13  C   UNL     1       2.319   2.764  21.480  0.00  0.00    +0.000 A 
ATOM     14  C   UNL     1       1.132   3.444  21.207  0.00  0.00    +0.000 A 
ATOM     15  C   UNL     1       0.881   3.905  19.921  0.00  0.00    +0.000 A 
ATOM     16  C   UNL     1       1.821   3.702  18.908  0.00  0.00    +0.000 A 
ATOM     17  C   UNL     1       3.037   3.041  19.168  0.00  0.00    +0.000 A 
BRANCH  12  19
ATOM     18  N   UNL     1       5.452   1.320  21.153  0.00  0.00    +0.000 NA
ATOM     19  C   UNL     1       4.482   1.870  20.832  0.00  0.00    +0.000 C 
ENDBRANCH  12  19
ENDBRANCH  11  17
ENDBRANCH   1  11
TORSDOF 4
ENDMDL
MODEL 5
REMARK VINA RESULT:      -6.8      2.481      3.164
REMARK  Name = 
REMARK  4 active torsions:
REMARK  status: ('A' for Active; 'I' for Inactive)
REMARK    1  A    between atoms: C_2  and  C_3
REMARK    2  A    between atoms: C_8  and  C_9
REMARK    3  A    between atoms: C_9  and  S_10
REMARK    4  A    between atoms: S_10  and  C_13
REMARK                            x       y       z     vdW  Elec       q    Type
REMARK                         _______ _______ _______ _____ _____    ______ ____
ROOT
ATOM      1  S   UNL     1       5.194   4.310  17.604  0.00  0.00    +0.000 S 
ATOM      2  O   UNL     1       5.297   3.562  18.845  0.00  0.00    +0.000 OA
ATOM      3  O   UNL     1       5.554   3.681  16.343  0.00  0.00    +0.000 OA
ENDROOT
BRANCH   1   4
ATOM      4  C   UNL     1       6.323   5.666  17.779  0.00  0.00    +0.000 A 
ATOM      5  C   UNL     1       7.241   5.596  18.849  0.00  0.00    +0.000 A 
ATOM      6  C   UNL     1       8.158   6.623  19.066  0.00  0.00    +0.000 A 
ATOM      7  C   UNL     1       8.166   7.723  18.225  0.00  0.00    +0.000 A 
ATOM      8  C   UNL     1       7.260   7.772  17.170  0.00  0.00    +0.000 A 
ATOM      9  N   UNL     1       6.342   6.753  16.933  0.00  0.00    +0.000 N 
ATOM     10  O   UNL     1       5.565   6.865  15.939  0.00  0.00    +0.000 OA
ENDBRANCH   1   4
BRANCH   1  11
ATOM     11  C   UNL     1       3.538   4.953  17.468  0.00  0.00    +0.000 C 
BRANCH  11  17
ATOM     12  C   UNL     1       1.918   4.829  19.461  0.00  0.00    +0.000 A 
ATOM     13  C   UNL     1       0.960   4.115  20.198  0.00  0.00    +0.000 A 
ATOM     14  C   UNL     1       0.663   2.790  19.881  0.00  0.00    +0.000 A 
ATOM     15  C   UNL     1       1.332   2.164  18.835  0.00  0.00    +0.000 A 
ATOM     16  C   UNL     1       2.286   2.865  18.096  0.00  0.00    +0.000 A 
ATOM     17  C   UNL     1       2.583   4.211  18.384  0.00  0.00    +0.000 A 
BRANCH  12  19
ATOM     18  N   UNL     1       2.315   7.303  20.145  0.00  0.00    +0.000 NA
ATOM     19  C   UNL     1       2.151   6.199  19.829  0.00  0.00    +0.000 C 
ENDBRANCH  12  19
ENDBRANCH  11  17
ENDBRANCH   1  11
TORSDOF 4
ENDMDL
MODEL 6
REMARK VINA RESULT:      -6.8      2.180      5.520
REMARK  Name = 
REMARK  4 active torsions:
REMARK  status: ('A' for Active; 'I' for Inactive)
REMARK    1  A    between atoms: C_2  and  C_3
REMARK    2  A    between atoms: C_8  and  C_9
REMARK    3  A    between atoms: C_9  and  S_10
REMARK    4  A    between atoms: S_10  and  C_13
REMARK                            x       y       z     vdW  Elec       q    Type
REMARK                         _______ _______ _______ _____ _____    ______ ____
ROOT
ATOM      1  S   UNL     1       3.192   3.299  17.491  0.00  0.00    +0.000 S 
ATOM      2  O   UNL     1       1.978   3.236  16.694  0.00  0.00    +0.000 OA
ATOM      3  O   UNL     1       4.232   2.299  17.311  0.00  0.00    +0.000 OA
ENDROOT
BRANCH   1   4
ATOM      4  C   UNL     1       2.660   3.111  19.171  0.00  0.00    +0.000 A 
ATOM      5  C   UNL     1       1.322   3.460  19.459  0.00  0.00    +0.000 A 
ATOM      6  C   UNL     1       0.824   3.351  20.755  0.00  0.00    +0.000 A 
ATOM      7  C   UNL     1       1.649   2.898  21.771  0.00  0.00    +0.000 A 
ATOM      8  C   UNL     1       2.962   2.550  21.469  0.00  0.00    +0.000 A 
ATOM      9  N   UNL     1       3.475   2.645  20.179  0.00  0.00    +0.000 N 
ATOM     10  O   UNL     1       4.675   2.288  19.983  0.00  0.00    +0.000 OA
ENDBRANCH   1   4
BRANCH   1  11
ATOM     11  C   UNL     1       3.914   4.916  17.293  0.00  0.00    +0.000 C 
BRANCH  11  17
ATOM     12  C   UNL     1       6.443   4.630  16.927  0.00  0.00    +0.000 A 
ATOM     13  C   UNL     1       7.757   4.781  17.397  0.00  0.00    +0.000 A 
ATOM     14  C   UNL     1       8.000   5.225  18.697  0.00  0.00    +0.000 A 
ATOM     15  C   UNL     1       6.932   5.505  19.541  0.00  0.00    +0.000 A 
ATOM     16  C   UNL     1       5.621   5.359  19.084  0.00  0.00    +0.000 A 
ATOM     17  C   UNL     1       5.354   4.937  17.767  0.00  0.00    +0.000 A 
BRANCH  12  19
ATOM     18  N   UNL     1       6.135   3.818  14.479  0.00  0.00    +0.000 NA
ATOM     19  C   UNL     1       6.272   4.196  15.567  0.00  0.00    +0.000 C 
ENDBRANCH  12  19
ENDBRANCH  11  17
ENDBRANCH   1  11
TORSDOF 4
ENDMDL
MODEL 7
REMARK VINA RESULT:      -6.8      1.456      1.552
REMARK  Name = 
REMARK  4 active torsions:
REMARK  status: ('A' for Active; 'I' for Inactive)
REMARK    1  A    between atoms: C_2  and  C_3
REMARK    2  A    between atoms: C_8  and  C_9
REMARK    3  A    between atoms: C_9  and  S_10
REMARK    4  A    between atoms: S_10  and  C_13
REMARK                            x       y       z     vdW  Elec       q    Type
REMARK                         _______ _______ _______ _____ _____    ______ ____
ROOT
ATOM      1  S   UNL     1       5.235   4.410  18.113  0.00  0.00    +0.000 S 
ATOM      2  O   UNL     1       4.433   5.607  18.298  0.00  0.00    +0.000 OA
ATOM      3  O   UNL     1       6.374   4.156  18.980  0.00  0.00    +0.000 OA
ENDROOT
BRANCH   1   4
ATOM      4  C   UNL     1       5.920   4.552  16.484  0.00  0.00    +0.000 A 
ATOM      5  C   UNL     1       5.316   3.779  15.469  0.00  0.00    +0.000 A 
ATOM      6  C   UNL     1       5.797   3.823  14.162  0.00  0.00    +0.000 A 
ATOM      7  C   UNL     1       6.879   4.631  13.857  0.00  0.00    +0.000 A 
ATOM      8  C   UNL     1       7.457   5.394  14.867  0.00  0.00    +0.000 A 
ATOM      9  N   UNL     1       6.986   5.369  16.177  0.00  0.00    +0.000 N 
ATOM     10  O   UNL     1       7.556   6.108  17.033  0.00  0.00    +0.000 OA
ENDBRANCH   1   4
BRANCH   1  11
ATOM     11  C   UNL     1       4.155   2.994  18.162  0.00  0.00    +0.000 C 
BRANCH  11  17
ATOM     12  C   UNL     1       1.872   3.553  19.207  0.00  0.00    +0.000 A 
ATOM     13  C   UNL     1       0.998   3.494  20.303  0.00  0.00    +0.000 A 
ATOM     14  C   UNL     1       1.425   2.975  21.526  0.00  0.00    +0.000 A 
ATOM     15  C   UNL     1       2.733   2.526  21.665  0.00  0.00    +0.000 A 
ATOM     16  C   UNL     1       3.611   2.579  20.581  0.00  0.00    +0.000 A 
ATOM     17  C   UNL     1       3.192   3.075  19.331  0.00  0.00    +0.000 A 
BRANCH  12  19
ATOM     18  N   UNL     1       0.930   4.467  16.966  0.00  0.00    +0.000 NA
ATOM     19  C   UNL     1       1.353   4.074  17.972  0.00  0.00    +0.000 C 
ENDBRANCH  12  19
ENDBRANCH  11  17
ENDBRANCH   1  11
TORSDOF 4
ENDMDL
MODEL 8
REMARK VINA RESULT:      -6.8      0.938      1.071
REMARK  Name = 
REMARK  4 active torsions:
REMARK  status: ('A' for Active; 'I' for Inactive)
REMARK    1  A    between atoms: C_2  and  C_3
REMARK    2  A    between atoms: C_8  and  C_9
REMARK    3  A    between atoms: C_9  and  S_10
REMARK    4  A    between atoms: S_10  and  C_13
REMARK                            x       y       z     vdW  Elec       q    Type
REMARK                         _______ _______ _______ _____ _____    ______ ____
ROOT
ATOM      1  S   UNL     1       5.367   4.866  19.074  0.00  0.00    +0.000 S 
ATOM      2  O   UNL     1       4.224   5.754  19.191  0.00  0.00    +0.000 OA
ATOM      3  O   UNL     1       6.565   5.115  19.860  0.00  0.00    +0.000 OA
ENDROOT
BRANCH   1   4
ATOM      4  C   UNL     1       5.890   4.995  17.386  0.00  0.00    +0.000 A 
ATOM      5  C   UNL     1       4.962   5.536  16.471  0.00  0.00    +0.000 A 
ATOM      6  C   UNL     1       5.287   5.665  15.122  0.00  0.00    +0.000 A 
ATOM      7  C   UNL     1       6.532   5.256  14.675  0.00  0.00    +0.000 A 
ATOM      8  C   UNL     1       7.439   4.733  15.592  0.00  0.00    +0.000 A 
ATOM      9  N   UNL     1       7.135   4.603  16.944  0.00  0.00    +0.000 N 
ATOM     10  O   UNL     1       8.024   4.136  17.716  0.00  0.00    +0.000 OA
ENDBRANCH   1   4
BRANCH   1  11
ATOM     11  C   UNL     1       4.820   3.199  19.382  0.00  0.00    +0.000 C 
BRANCH  11  17
ATOM     12  C   UNL     1       2.280   3.091  18.991  0.00  0.00    +0.000 A 
ATOM     13  C   UNL     1       0.982   2.953  19.507  0.00  0.00    +0.000 A 
ATOM     14  C   UNL     1       0.767   2.904  20.884  0.00  0.00    +0.000 A 
ATOM     15  C   UNL     1       1.845   3.008  21.755  0.00  0.00    +0.000 A 
ATOM     16  C   UNL     1       3.140   3.145  21.253  0.00  0.00    +0.000 A 
ATOM     17  C   UNL     1       3.382   3.171  19.865  0.00  0.00    +0.000 A 
BRANCH  12  19
ATOM     18  N   UNL     1       2.516   3.109  16.404  0.00  0.00    +0.000 NA
ATOM     19  C   UNL     1       2.426   3.105  17.561  0.00  0.00    +0.000 C 
ENDBRANCH  12  19
ENDBRANCH  11  17
ENDBRANCH   1  11
TORSDOF 4
ENDMDL
MODEL 9
REMARK VINA RESULT:      -6.7      2.697      3.761
REMARK  Name = 
REMARK  4 active torsions:
REMARK  status: ('A' for Active; 'I' for Inactive)
REMARK    1  A    between atoms: C_2  and  C_3
REMARK    2  A    between atoms: C_8  and  C_9
REMARK    3  A    between atoms: C_9  and  S_10
REMARK    4  A    between atoms: S_10  and  C_13
REMARK                            x       y       z     vdW  Elec       q    Type
REMARK                         _______ _______ _______ _____ _____    ______ ____
ROOT
ATOM      1  S   UNL     1       6.828   5.141  16.017  0.00  0.00    +0.000 S 
ATOM      2  O   UNL     1       7.585   6.381  16.030  0.00  0.00    +0.000 OA
ATOM      3  O   UNL     1       7.337   3.971  16.715  0.00  0.00    +0.000 OA
ENDROOT
BRANCH   1   4
ATOM      4  C   UNL     1       6.747   4.660  14.313  0.00  0.00    +0.000 A 
ATOM      5  C   UNL     1       5.687   3.804  13.943  0.00  0.00    +0.000 A 
ATOM      6  C   UNL     1       5.552   3.369  12.626  0.00  0.00    +0.000 A 
ATOM      7  C   UNL     1       6.469   3.779  11.672  0.00  0.00    +0.000 A 
ATOM      8  C   UNL     1       7.502   4.630  12.052  0.00  0.00    +0.000 A 
ATOM      9  N   UNL     1       7.649   5.081  13.361  0.00  0.00    +0.000 N 
ATOM     10  O   UNL     1       8.605   5.870  13.619  0.00  0.00    +0.000 OA
ENDBRANCH   1   4
BRANCH   1  11
ATOM     11  C   UNL     1       5.179   5.480  16.600  0.00  0.00    +0.000 C 
BRANCH  11  17
ATOM     12  C   UNL     1       5.100   4.126  18.785  0.00  0.00    +0.000 A 
ATOM     13  C   UNL     1       4.494   3.133  19.571  0.00  0.00    +0.000 A 
ATOM     14  C   UNL     1       3.459   2.353  19.056  0.00  0.00    +0.000 A 
ATOM     15  C   UNL     1       3.034   2.548  17.747  0.00  0.00    +0.000 A 
ATOM     16  C   UNL     1       3.630   3.533  16.957  0.00  0.00    +0.000 A 
ATOM     17  C   UNL     1       4.658   4.349  17.466  0.00  0.00    +0.000 A 
BRANCH  12  19
ATOM     18  N   UNL     1       6.999   5.530  19.867  0.00  0.00    +0.000 NA
ATOM     19  C   UNL     1       6.140   4.910  19.394  0.00  0.00    +0.000 C 
ENDBRANCH  12  19
ENDBRANCH  11  17
ENDBRANCH   1  11
TORSDOF 4
ENDMDL
