MODEL 1
REMARK VINA RESULT:      -6.9      0.000      0.000
REMARK  Name = 
REMARK  7 active torsions:
REMARK  status: ('A' for Active; 'I' for Inactive)
REMARK    1  A    between atoms: C_1  and  O_2
REMARK    2  A    between atoms: O_2  and  C_3
REMARK    3  A    between atoms: C_3  and  C_5
REMARK    4  A    between atoms: C_11  and  N_12
REMARK    5  A    between atoms: C_13  and  C_15
REMARK    6  A    between atoms: C_20  and  O_21
REMARK    7  A    between atoms: O_21  and  C_22
REMARK                            x       y       z     vdW  Elec       q    Type
REMARK                         _______ _______ _______ _____ _____    ______ ____
ROOT
ATOM      1  N   UNL     1       4.783   4.295  16.197  0.00  0.00    +0.000 N 
ATOM      2  C   UNL     1       4.299   5.394  16.904  0.00  0.00    +0.000 C 
ATOM      3  O   UNL     1       4.362   6.564  16.541  0.00  0.00    +0.000 OA
ATOM      4  H   UNL     1       4.606   3.374  16.588  0.00  0.00    +0.000 HD
ENDROOT
BRANCH   1  11
ATOM      5  C   UNL     1       6.763   4.910  14.843  0.00  0.00    +0.000 A 
ATOM      6  C   UNL     1       7.439   4.897  13.605  0.00  0.00    +0.000 A 
ATOM      7 CL   UNL     1       8.960   5.683  13.338  0.00  0.00    +0.000 Cl
ATOM      8  C   UNL     1       6.874   4.262  12.496  0.00  0.00    +0.000 A 
ATOM      9  C   UNL     1       5.626   3.668  12.600  0.00  0.00    +0.000 A 
ATOM     10  C   UNL     1       4.931   3.711  13.810  0.00  0.00    +0.000 A 
ATOM     11  C   UNL     1       5.484   4.307  14.955  0.00  0.00    +0.000 A 
BRANCH   5  12
ATOM     12  C   UNL     1       7.480   5.443  16.028  0.00  0.00    +0.000 C 
ATOM     13  O   UNL     1       7.644   6.631  16.248  0.00  0.00    +0.000 OA
BRANCH  12  15
ATOM     14  C   UNL     1       7.760   4.663  18.204  0.00  0.00    +0.000 C 
ATOM     15  O   UNL     1       7.952   4.429  16.803  0.00  0.00    +0.000 OA
ENDBRANCH  12  15
ENDBRANCH   5  12
ENDBRANCH   1  11
BRANCH   2  16
ATOM     16  C   UNL     1       3.658   5.085  18.215  0.00  0.00    +0.000 A 
ATOM     17  C   UNL     1       2.942   6.130  18.837  0.00  0.00    +0.000 A 
ATOM     18  C   UNL     1       2.239   5.921  20.025  0.00  0.00    +0.000 A 
ATOM     19  C   UNL     1       2.238   4.662  20.611  0.00  0.00    +0.000 A 
ATOM     20  C   UNL     1       2.913   3.611  19.992  0.00  0.00    +0.000 A 
ATOM     21  C   UNL     1       3.623   3.800  18.791  0.00  0.00    +0.000 A 
BRANCH  21  22
ATOM     22  O   UNL     1       4.111   2.617  18.306  0.00  0.00    +0.000 OA
ATOM     23  C   UNL     1       3.424   1.414  18.614  0.00  0.00    +0.000 C 
ENDBRANCH  21  22
ENDBRANCH   2  16
TORSDOF 5
ENDMDL
MODEL 2
REMARK VINA RESULT:      -6.7      3.846      6.026
REMARK  Name = 
REMARK  7 active torsions:
REMARK  status: ('A' for Active; 'I' for Inactive)
REMARK    1  A    between atoms: C_1  and  O_2
REMARK    2  A    between atoms: O_2  and  C_3
REMARK    3  A    between atoms: C_3  and  C_5
REMARK    4  A    between atoms: C_11  and  N_12
REMARK    5  A    between atoms: C_13  and  C_15
REMARK    6  A    between atoms: C_20  and  O_21
REMARK    7  A    between atoms: O_21  and  C_22
REMARK                            x       y       z     vdW  Elec       q    Type
REMARK                         _______ _______ _______ _____ _____    ______ ____
ROOT
ATOM      1  N   UNL     1       2.370   7.132  18.598  0.00  0.00    +0.000 N 
ATOM      2  C   UNL     1       2.144   8.380  18.020  0.00  0.00    +0.000 C 
ATOM      3  O   UNL     1       2.719   8.828  17.034  0.00  0.00    +0.000 OA
ATOM      4  H   UNL     1       1.775   6.864  19.377  0.00  0.00    +0.000 HD
ENDROOT
BRANCH   1  11
ATOM      5  C   UNL     1       2.996   4.781  18.136  0.00  0.00    +0.000 A 
ATOM      6  C   UNL     1       3.965   3.840  17.730  0.00  0.00    +0.000 A 
ATOM      7 CL   UNL     1       3.684   2.131  17.702  0.00  0.00    +0.000 Cl
ATOM      8  C   UNL     1       5.246   4.257  17.358  0.00  0.00    +0.000 A 
ATOM      9  C   UNL     1       5.581   5.601  17.419  0.00  0.00    +0.000 A 
ATOM     10  C   UNL     1       4.641   6.536  17.858  0.00  0.00    +0.000 A 
ATOM     11  C   UNL     1       3.333   6.158  18.203  0.00  0.00    +0.000 A 
BRANCH   5  12
ATOM     12  C   UNL     1       1.606   4.308  18.351  0.00  0.00    +0.000 C 
ATOM     13  O   UNL     1       0.860   3.957  17.453  0.00  0.00    +0.000 OA
BRANCH  12  15
ATOM     14  C   UNL     1       1.114   3.057  20.252  0.00  0.00    +0.000 C 
ATOM     15  O   UNL     1       1.277   4.356  19.671  0.00  0.00    +0.000 OA
ENDBRANCH  12  15
ENDBRANCH   5  12
ENDBRANCH   1  11
BRANCH   2  16
ATOM     16  C   UNL     1       1.108   9.220  18.688  0.00  0.00    +0.000 A 
ATOM     17  C   UNL     1       0.199   9.899  17.848  0.00  0.00    +0.000 A 
ATOM     18  C   UNL     1      -0.856  10.646  18.374  0.00  0.00    +0.000 A 
ATOM     19  C   UNL     1      -1.024  10.726  19.750  0.00  0.00    +0.000 A 
ATOM     20  C   UNL     1      -0.154  10.034  20.593  0.00  0.00    +0.000 A 
ATOM     21  C   UNL     1       0.913   9.271  20.082  0.00  0.00    +0.000 A 
BRANCH  21  22
ATOM     22  O   UNL     1       1.565   8.592  21.075  0.00  0.00    +0.000 OA
ATOM     23  C   UNL     1       1.436   9.045  22.414  0.00  0.00    +0.000 C 
ENDBRANCH  21  22
ENDBRANCH   2  16
TORSDOF 5
ENDMDL
MODEL 3
REMARK VINA RESULT:      -6.6      2.786      6.694
REMARK  Name = 
REMARK  7 active torsions:
REMARK  status: ('A' for Active; 'I' for Inactive)
REMARK    1  A    between atoms: C_1  and  O_2
REMARK    2  A    between atoms: O_2  and  C_3
REMARK    3  A    between atoms: C_3  and  C_5
REMARK    4  A    between atoms: C_11  and  N_12
REMARK    5  A    between atoms: C_13  and  C_15
REMARK    6  A    between atoms: C_20  and  O_21
REMARK    7  A    between atoms: O_21  and  C_22
REMARK                            x       y       z     vdW  Elec       q    Type
REMARK                         _______ _______ _______ _____ _____    ______ ____
ROOT
ATOM      1  N   UNL     1       4.155   4.756  17.670  0.00  0.00    +0.000 N 
ATOM      2  C   UNL     1       5.535   4.573  17.601  0.00  0.00    +0.000 C 
ATOM      3  O   UNL     1       6.286   4.420  18.558  0.00  0.00    +0.000 OA
ATOM      4  H   UNL     1       3.647   4.807  16.791  0.00  0.00    +0.000 HD
ENDROOT
BRANCH   1  11
ATOM      5  C   UNL     1       3.132   3.724  19.674  0.00  0.00    +0.000 A 
ATOM      6  C   UNL     1       2.345   3.850  20.838  0.00  0.00    +0.000 A 
ATOM      7 CL   UNL     1       1.940   2.517  21.867  0.00  0.00    +0.000 Cl
ATOM      8  C   UNL     1       1.810   5.089  21.200  0.00  0.00    +0.000 A 
ATOM      9  C   UNL     1       2.024   6.197  20.394  0.00  0.00    +0.000 A 
ATOM     10  C   UNL     1       2.768   6.073  19.220  0.00  0.00    +0.000 A 
ATOM     11  C   UNL     1       3.354   4.853  18.845  0.00  0.00    +0.000 A 
BRANCH   5  12
ATOM     12  C   UNL     1       3.820   2.431  19.430  0.00  0.00    +0.000 C 
ATOM     13  O   UNL     1       4.700   1.982  20.145  0.00  0.00    +0.000 OA
BRANCH  12  15
ATOM     14  C   UNL     1       1.928   1.770  18.244  0.00  0.00    +0.000 C 
ATOM     15  O   UNL     1       3.358   1.845  18.292  0.00  0.00    +0.000 OA
ENDBRANCH  12  15
ENDBRANCH   5  12
ENDBRANCH   1  11
BRANCH   2  16
ATOM     16  C   UNL     1       6.116   4.573  16.227  0.00  0.00    +0.000 A 
ATOM     17  C   UNL     1       5.508   3.724  15.277  0.00  0.00    +0.000 A 
ATOM     18  C   UNL     1       5.926   3.710  13.945  0.00  0.00    +0.000 A 
ATOM     19  C   UNL     1       6.957   4.545  13.538  0.00  0.00    +0.000 A 
ATOM     20  C   UNL     1       7.546   5.414  14.457  0.00  0.00    +0.000 A 
ATOM     21  C   UNL     1       7.136   5.447  15.803  0.00  0.00    +0.000 A 
BRANCH  21  22
ATOM     22  O   UNL     1       7.767   6.445  16.495  0.00  0.00    +0.000 OA
ATOM     23  C   UNL     1       6.981   7.448  17.121  0.00  0.00    +0.000 C 
ENDBRANCH  21  22
ENDBRANCH   2  16
TORSDOF 5
ENDMDL
MODEL 4
REMARK VINA RESULT:      -6.6      2.784      6.628
REMARK  Name = 
REMARK  7 active torsions:
REMARK  status: ('A' for Active; 'I' for Inactive)
REMARK    1  A    between atoms: C_1  and  O_2
REMARK    2  A    between atoms: O_2  and  C_3
REMARK    3  A    between atoms: C_3  and  C_5
REMARK    4  A    between atoms: C_11  and  N_12
REMARK    5  A    between atoms: C_13  and  C_15
REMARK    6  A    between atoms: C_20  and  O_21
REMARK    7  A    between atoms: O_21  and  C_22
REMARK                            x       y       z     vdW  Elec       q    Type
REMARK                         _______ _______ _______ _____ _____    ______ ____
ROOT
ATOM      1  N   UNL     1       3.951   4.986  17.173  0.00  0.00    +0.000 N 
ATOM      2  C   UNL     1       5.287   4.587  17.150  0.00  0.00    +0.000 C 
ATOM      3  O   UNL     1       5.962   4.286  18.129  0.00  0.00    +0.000 OA
ATOM      4  H   UNL     1       3.497   5.145  16.278  0.00  0.00    +0.000 HD
ENDROOT
BRANCH   1  11
ATOM      5  C   UNL     1       2.415   4.084  18.893  0.00  0.00    +0.000 A 
ATOM      6  C   UNL     1       1.613   4.293  20.034  0.00  0.00    +0.000 A 
ATOM      7 CL   UNL     1       0.638   3.057  20.757  0.00  0.00    +0.000 Cl
ATOM      8  C   UNL     1       1.540   5.557  20.627  0.00  0.00    +0.000 A 
ATOM      9  C   UNL     1       2.232   6.622  20.072  0.00  0.00    +0.000 A 
ATOM     10  C   UNL     1       2.997   6.434  18.919  0.00  0.00    +0.000 A 
ATOM     11  C   UNL     1       3.124   5.171  18.319  0.00  0.00    +0.000 A 
BRANCH   5  12
ATOM     12  C   UNL     1       2.597   2.693  18.409  0.00  0.00    +0.000 C 
ATOM     13  O   UNL     1       2.385   2.338  17.261  0.00  0.00    +0.000 OA
BRANCH  12  15
ATOM     14  C   UNL     1       4.346   2.110  19.830  0.00  0.00    +0.000 C 
ATOM     15  O   UNL     1       2.993   1.876  19.422  0.00  0.00    +0.000 OA
ENDBRANCH  12  15
ENDBRANCH   5  12
ENDBRANCH   1  11
BRANCH   2  16
ATOM     16  C   UNL     1       5.921   4.538  15.800  0.00  0.00    +0.000 A 
ATOM     17  C   UNL     1       5.255   3.785  14.810  0.00  0.00    +0.000 A 
ATOM     18  C   UNL     1       5.722   3.742  13.495  0.00  0.00    +0.000 A 
ATOM     19  C   UNL     1       6.863   4.453  13.146  0.00  0.00    +0.000 A 
ATOM     20  C   UNL     1       7.514   5.228  14.106  0.00  0.00    +0.000 A 
ATOM     21  C   UNL     1       7.055   5.289  15.435  0.00  0.00    +0.000 A 
BRANCH  21  22
ATOM     22  O   UNL     1       7.773   6.192  16.172  0.00  0.00    +0.000 OA
ATOM     23  C   UNL     1       7.077   7.216  16.867  0.00  0.00    +0.000 C 
ENDBRANCH  21  22
ENDBRANCH   2  16
TORSDOF 5
ENDMDL
MODEL 5
REMARK VINA RESULT:      -6.5      2.754      6.408
REMARK  Name = 
REMARK  7 active torsions:
REMARK  status: ('A' for Active; 'I' for Inactive)
REMARK    1  A    between atoms: C_1  and  O_2
REMARK    2  A    between atoms: O_2  and  C_3
REMARK    3  A    between atoms: C_3  and  C_5
REMARK    4  A    between atoms: C_11  and  N_12
REMARK    5  A    between atoms: C_13  and  C_15
REMARK    6  A    between atoms: C_20  and  O_21
REMARK    7  A    between atoms: O_21  and  C_22
REMARK                            x       y       z     vdW  Elec       q    Type
REMARK                         _______ _______ _______ _____ _____    ______ ____
ROOT
ATOM      1  N   UNL     1       3.808   3.826  16.697  0.00  0.00    +0.000 N 
ATOM      2  C   UNL     1       5.195   3.909  16.807  0.00  0.00    +0.000 C 
ATOM      3  O   UNL     1       5.840   3.790  17.844  0.00  0.00    +0.000 OA
ATOM      4  H   UNL     1       3.410   3.881  15.764  0.00  0.00    +0.000 HD
ENDROOT
BRANCH   1  11
ATOM      5  C   UNL     1       2.559   4.694  18.651  0.00  0.00    +0.000 A 
ATOM      6  C   UNL     1       1.615   4.487  19.679  0.00  0.00    +0.000 A 
ATOM      7 CL   UNL     1       1.235   5.674  20.881  0.00  0.00    +0.000 Cl
ATOM      8  C   UNL     1       0.952   3.262  19.796  0.00  0.00    +0.000 A 
ATOM      9  C   UNL     1       1.247   2.230  18.919  0.00  0.00    +0.000 A 
ATOM     10  C   UNL     1       2.209   2.412  17.923  0.00  0.00    +0.000 A 
ATOM     11  C   UNL     1       2.867   3.640  17.752  0.00  0.00    +0.000 A 
BRANCH   5  12
ATOM     12  C   UNL     1       3.102   6.062  18.464  0.00  0.00    +0.000 C 
ATOM     13  O   UNL     1       4.201   6.418  18.856  0.00  0.00    +0.000 OA
BRANCH  12  15
ATOM     14  C   UNL     1       2.331   8.242  18.187  0.00  0.00    +0.000 C 
ATOM     15  O   UNL     1       2.199   6.859  17.833  0.00  0.00    +0.000 OA
ENDBRANCH  12  15
ENDBRANCH   5  12
ENDBRANCH   1  11
BRANCH   2  16
ATOM     16  C   UNL     1       5.927   4.171  15.535  0.00  0.00    +0.000 A 
ATOM     17  C   UNL     1       5.431   3.542  14.372  0.00  0.00    +0.000 A 
ATOM     18  C   UNL     1       5.996   3.786  13.119  0.00  0.00    +0.000 A 
ATOM     19  C   UNL     1       7.065   4.664  13.005  0.00  0.00    +0.000 A 
ATOM     20  C   UNL     1       7.546   5.318  14.139  0.00  0.00    +0.000 A 
ATOM     21  C   UNL     1       6.987   5.090  15.411  0.00  0.00    +0.000 A 
BRANCH  21  22
ATOM     22  O   UNL     1       7.535   5.916  16.354  0.00  0.00    +0.000 OA
ATOM     23  C   UNL     1       6.792   7.043  16.793  0.00  0.00    +0.000 C 
ENDBRANCH  21  22
ENDBRANCH   2  16
TORSDOF 5
ENDMDL
MODEL 6
REMARK VINA RESULT:      -6.5      3.999      6.416
REMARK  Name = 
REMARK  7 active torsions:
REMARK  status: ('A' for Active; 'I' for Inactive)
REMARK    1  A    between atoms: C_1  and  O_2
REMARK    2  A    between atoms: O_2  and  C_3
REMARK    3  A    between atoms: C_3  and  C_5
REMARK    4  A    between atoms: C_11  and  N_12
REMARK    5  A    between atoms: C_13  and  C_15
REMARK    6  A    between atoms: C_20  and  O_21
REMARK    7  A    between atoms: O_21  and  C_22
REMARK                            x       y       z     vdW  Elec       q    Type
REMARK                         _______ _______ _______ _____ _____    ______ ____
ROOT
ATOM      1  N   UNL     1       2.418   7.281  19.309  0.00  0.00    +0.000 N 
ATOM      2  C   UNL     1       1.741   8.436  18.923  0.00  0.00    +0.000 C 
ATOM      3  O   UNL     1       1.653   8.867  17.778  0.00  0.00    +0.000 OA
ATOM      4  H   UNL     1       2.355   7.007  20.285  0.00  0.00    +0.000 HD
ENDROOT
BRANCH   1  11
ATOM      5  C   UNL     1       3.042   4.998  18.582  0.00  0.00    +0.000 A 
ATOM      6  C   UNL     1       3.797   4.155  17.739  0.00  0.00    +0.000 A 
ATOM      7 CL   UNL     1       3.774   2.426  17.847  0.00  0.00    +0.000 Cl
ATOM      8  C   UNL     1       4.651   4.698  16.776  0.00  0.00    +0.000 A 
ATOM      9  C   UNL     1       4.787   6.073  16.668  0.00  0.00    +0.000 A 
ATOM     10  C   UNL     1       4.074   6.915  17.524  0.00  0.00    +0.000 A 
ATOM     11  C   UNL     1       3.178   6.406  18.478  0.00  0.00    +0.000 A 
BRANCH   5  12
ATOM     12  C   UNL     1       2.024   4.376  19.464  0.00  0.00    +0.000 C 
ATOM     13  O   UNL     1       1.031   3.797  19.056  0.00  0.00    +0.000 OA
BRANCH  12  15
ATOM     14  C   UNL     1       2.110   3.410  21.581  0.00  0.00    +0.000 C 
ATOM     15  O   UNL     1       2.333   4.573  20.775  0.00  0.00    +0.000 OA
ENDBRANCH  12  15
ENDBRANCH   5  12
ENDBRANCH   1  11
BRANCH   2  16
ATOM     16  C   UNL     1       1.080   9.193  20.025  0.00  0.00    +0.000 A 
ATOM     17  C   UNL     1       0.818   8.484  21.218  0.00  0.00    +0.000 A 
ATOM     18  C   UNL     1       0.276   9.121  22.336  0.00  0.00    +0.000 A 
ATOM     19  C   UNL     1      -0.012  10.478  22.282  0.00  0.00    +0.000 A 
ATOM     20  C   UNL     1       0.271  11.199  21.123  0.00  0.00    +0.000 A 
ATOM     21  C   UNL     1       0.822  10.577  19.987  0.00  0.00    +0.000 A 
BRANCH  21  22
ATOM     22  O   UNL     1       1.120  11.488  19.011  0.00  0.00    +0.000 OA
ATOM     23  C   UNL     1       1.815  12.673  19.369  0.00  0.00    +0.000 C 
ENDBRANCH  21  22
ENDBRANCH   2  16
TORSDOF 5
ENDMDL
MODEL 7
REMARK VINA RESULT:      -6.5      1.057      1.978
REMARK  Name = 
REMARK  7 active torsions:
REMARK  status: ('A' for Active; 'I' for Inactive)
REMARK    1  A    between atoms: C_1  and  O_2
REMARK    2  A    between atoms: O_2  and  C_3
REMARK    3  A    between atoms: C_3  and  C_5
REMARK    4  A    between atoms: C_11  and  N_12
REMARK    5  A    between atoms: C_13  and  C_15
REMARK    6  A    between atoms: C_20  and  O_21
REMARK    7  A    between atoms: O_21  and  C_22
REMARK                            x       y       z     vdW  Elec       q    Type
REMARK                         _______ _______ _______ _____ _____    ______ ____
ROOT
ATOM      1  N   UNL     1       4.907   3.943  15.986  0.00  0.00    +0.000 N 
ATOM      2  C   UNL     1       4.374   4.952  16.786  0.00  0.00    +0.000 C 
ATOM      3  O   UNL     1       4.391   6.152  16.532  0.00  0.00    +0.000 OA
ATOM      4  H   UNL     1       4.765   2.984  16.290  0.00  0.00    +0.000 HD
ENDROOT
BRANCH   1  11
ATOM      5  C   UNL     1       6.831   4.821  14.699  0.00  0.00    +0.000 A 
ATOM      6  C   UNL     1       7.515   4.948  13.472  0.00  0.00    +0.000 A 
ATOM      7 CL   UNL     1       8.958   5.884  13.274  0.00  0.00    +0.000 Cl
ATOM      8  C   UNL     1       7.020   4.333  12.318  0.00  0.00    +0.000 A 
ATOM      9  C   UNL     1       5.831   3.622  12.369  0.00  0.00    +0.000 A 
ATOM     10  C   UNL     1       5.126   3.525  13.571  0.00  0.00    +0.000 A 
ATOM     11  C   UNL     1       5.612   4.096  14.757  0.00  0.00    +0.000 A 
BRANCH   5  12
ATOM     12  C   UNL     1       7.486   5.342  15.924  0.00  0.00    +0.000 C 
ATOM     13  O   UNL     1       7.625   6.529  16.170  0.00  0.00    +0.000 OA
BRANCH  12  15
ATOM     14  C   UNL     1       7.806   4.593  18.105  0.00  0.00    +0.000 C 
ATOM     15  O   UNL     1       7.936   4.322  16.704  0.00  0.00    +0.000 OA
ENDBRANCH  12  15
ENDBRANCH   5  12
ENDBRANCH   1  11
BRANCH   2  16
ATOM     16  C   UNL     1       3.739   4.499  18.057  0.00  0.00    +0.000 A 
ATOM     17  C   UNL     1       4.249   3.318  18.639  0.00  0.00    +0.000 A 
ATOM     18  C   UNL     1       3.779   2.854  19.869  0.00  0.00    +0.000 A 
ATOM     19  C   UNL     1       2.791   3.562  20.540  0.00  0.00    +0.000 A 
ATOM     20  C   UNL     1       2.301   4.748  19.995  0.00  0.00    +0.000 A 
ATOM     21  C   UNL     1       2.765   5.236  18.759  0.00  0.00    +0.000 A 
BRANCH  21  22
ATOM     22  O   UNL     1       2.232   6.463  18.471  0.00  0.00    +0.000 OA
ATOM     23  C   UNL     1       2.247   7.469  19.473  0.00  0.00    +0.000 C 
ENDBRANCH  21  22
ENDBRANCH   2  16
TORSDOF 5
ENDMDL
MODEL 8
REMARK VINA RESULT:      -6.4      4.263      6.786
REMARK  Name = 
REMARK  7 active torsions:
REMARK  status: ('A' for Active; 'I' for Inactive)
REMARK    1  A    between atoms: C_1  and  O_2
REMARK    2  A    between atoms: O_2  and  C_3
REMARK    3  A    between atoms: C_3  and  C_5
REMARK    4  A    between atoms: C_11  and  N_12
REMARK    5  A    between atoms: C_13  and  C_15
REMARK    6  A    between atoms: C_20  and  O_21
REMARK    7  A    between atoms: O_21  and  C_22
REMARK                            x       y       z     vdW  Elec       q    Type
REMARK                         _______ _______ _______ _____ _____    ______ ____
ROOT
ATOM      1  N   UNL     1       2.301   6.832  20.225  0.00  0.00    +0.000 N 
ATOM      2  C   UNL     1       1.838   8.028  19.680  0.00  0.00    +0.000 C 
ATOM      3  O   UNL     1       2.086   8.446  18.554  0.00  0.00    +0.000 OA
ATOM      4  H   UNL     1       1.964   6.580  21.151  0.00  0.00    +0.000 HD
ENDROOT
BRANCH   1  11
ATOM      5  C   UNL     1       3.152   4.519  19.986  0.00  0.00    +0.000 A 
ATOM      6  C   UNL     1       4.026   3.605  19.362  0.00  0.00    +0.000 A 
ATOM      7 CL   UNL     1       4.134   1.933  19.800  0.00  0.00    +0.000 Cl
ATOM      8  C   UNL     1       4.898   4.033  18.356  0.00  0.00    +0.000 A 
ATOM      9  C   UNL     1       4.930   5.370  17.991  0.00  0.00    +0.000 A 
ATOM     10  C   UNL     1       4.097   6.289  18.632  0.00  0.00    +0.000 A 
ATOM     11  C   UNL     1       3.182   5.889  19.619  0.00  0.00    +0.000 A 
BRANCH   5  12
ATOM     12  C   UNL     1       2.129   3.985  20.919  0.00  0.00    +0.000 C 
ATOM     13  O   UNL     1       2.382   3.545  22.028  0.00  0.00    +0.000 OA
BRANCH  12  15
ATOM     14  C   UNL     1       0.642   2.911  19.484  0.00  0.00    +0.000 C 
ATOM     15  O   UNL     1       0.892   4.023  20.354  0.00  0.00    +0.000 OA
ENDBRANCH  12  15
ENDBRANCH   5  12
ENDBRANCH   1  11
BRANCH   2  16
ATOM     16  C   UNL     1       0.972   8.850  20.574  0.00  0.00    +0.000 A 
ATOM     17  C   UNL     1       1.132   8.665  21.964  0.00  0.00    +0.000 A 
ATOM     18  C   UNL     1       0.428   9.442  22.885  0.00  0.00    +0.000 A 
ATOM     19  C   UNL     1      -0.448  10.420  22.434  0.00  0.00    +0.000 A 
ATOM     20  C   UNL     1      -0.593  10.638  21.064  0.00  0.00    +0.000 A 
ATOM     21  C   UNL     1       0.112   9.869  20.119  0.00  0.00    +0.000 A 
BRANCH  21  22
ATOM     22  O   UNL     1      -0.095  10.325  18.846  0.00  0.00    +0.000 OA
ATOM     23  C   UNL     1      -1.427  10.500  18.388  0.00  0.00    +0.000 C 
ENDBRANCH  21  22
ENDBRANCH   2  16
TORSDOF 5
ENDMDL
MODEL 9
REMARK VINA RESULT:      -6.4      4.655      7.332
REMARK  Name = 
REMARK  7 active torsions:
REMARK  status: ('A' for Active; 'I' for Inactive)
REMARK    1  A    between atoms: C_1  and  O_2
REMARK    2  A    between atoms: O_2  and  C_3
REMARK    3  A    between atoms: C_3  and  C_5
REMARK    4  A    between atoms: C_11  and  N_12
REMARK    5  A    between atoms: C_13  and  C_15
REMARK    6  A    between atoms: C_20  and  O_21
REMARK    7  A    between atoms: O_21  and  C_22
REMARK                            x       y       z     vdW  Elec       q    Type
REMARK                         _______ _______ _______ _____ _____    ______ ____
ROOT
ATOM      1  N   UNL     1       2.142   7.006  19.935  0.00  0.00    +0.000 N 
ATOM      2  C   UNL     1       2.263   5.841  19.180  0.00  0.00    +0.000 C 
ATOM      3  O   UNL     1       2.122   5.756  17.964  0.00  0.00    +0.000 OA
ATOM      4  H   UNL     1       2.349   6.942  20.928  0.00  0.00    +0.000 HD
ENDROOT
BRANCH   1  11
ATOM      5  C   UNL     1       0.826   9.091  20.157  0.00  0.00    +0.000 A 
ATOM      6  C   UNL     1       0.499  10.378  19.681  0.00  0.00    +0.000 A 
ATOM      7 CL   UNL     1      -0.720  11.381  20.394  0.00  0.00    +0.000 Cl
ATOM      8  C   UNL     1       1.140  10.899  18.553  0.00  0.00    +0.000 A 
ATOM      9  C   UNL     1       2.078  10.136  17.876  0.00  0.00    +0.000 A 
ATOM     10  C   UNL     1       2.379   8.846  18.317  0.00  0.00    +0.000 A 
ATOM     11  C   UNL     1       1.784   8.305  19.468  0.00  0.00    +0.000 A 
BRANCH   5  12
ATOM     12  C   UNL     1       0.248   8.657  21.453  0.00  0.00    +0.000 C 
ATOM     13  O   UNL     1      -0.695   7.891  21.556  0.00  0.00    +0.000 OA
BRANCH  12  15
ATOM     14  C   UNL     1      -0.001   9.642  23.549  0.00  0.00    +0.000 C 
ATOM     15  O   UNL     1       0.889   9.254  22.494  0.00  0.00    +0.000 OA
ENDBRANCH  12  15
ENDBRANCH   5  12
ENDBRANCH   1  11
BRANCH   2  16
ATOM     16  C   UNL     1       2.591   4.606  19.950  0.00  0.00    +0.000 A 
ATOM     17  C   UNL     1       1.633   4.168  20.890  0.00  0.00    +0.000 A 
ATOM     18  C   UNL     1       1.808   2.980  21.603  0.00  0.00    +0.000 A 
ATOM     19  C   UNL     1       2.942   2.209  21.388  0.00  0.00    +0.000 A 
ATOM     20  C   UNL     1       3.881   2.611  20.440  0.00  0.00    +0.000 A 
ATOM     21  C   UNL     1       3.721   3.802  19.706  0.00  0.00    +0.000 A 
BRANCH  21  22
ATOM     22  O   UNL     1       4.698   3.942  18.758  0.00  0.00    +0.000 OA
ATOM     23  C   UNL     1       5.745   4.874  18.985  0.00  0.00    +0.000 C 
ENDBRANCH  21  22
ENDBRANCH   2  16
TORSDOF 5
ENDMDL
