MODEL 1
REMARK VINA RESULT:      -8.1      0.000      0.000
REMARK  Name = 
REMARK  4 active torsions:
REMARK  status: ('A' for Active; 'I' for Inactive)
REMARK    1  A    between atoms: C_1  and  C_2
REMARK    2  A    between atoms: C_5  and  C_6
REMARK    3  A    between atoms: C_12  and  C_13
REMARK    4  A    between atoms: N_15  and  C_16
REMARK                            x       y       z     vdW  Elec       q    Type
REMARK                         _______ _______ _______ _____ _____    ______ ____
ROOT
ATOM      1  C   UNL     1       1.795   2.610  21.556  0.00  0.00    +0.000 C 
ATOM      2  C   UNL     1       2.961   2.980  20.731  0.00  0.00    +0.000 A 
ATOM      3  O   UNL     1       3.998   2.104  20.761  0.00  0.00    +0.000 OA
ATOM      4  N   UNL     1       5.009   2.544  19.939  0.00  0.00    +0.000 NA
ATOM      5  C   UNL     1       4.593   3.705  19.408  0.00  0.00    +0.000 A 
ATOM      6  C   UNL     1       3.266   4.008  19.864  0.00  0.00    +0.000 A 
ENDROOT
BRANCH   5   7
ATOM      7  C   UNL     1       5.470   4.485  18.526  0.00  0.00    +0.000 A 
ATOM      8  C   UNL     1       6.453   5.331  19.061  0.00  0.00    +0.000 A 
ATOM      9  C   UNL     1       7.290   6.073  18.218  0.00  0.00    +0.000 A 
ATOM     10  C   UNL     1       7.156   5.977  16.835  0.00  0.00    +0.000 A 
ATOM     11  C   UNL     1       6.176   5.152  16.291  0.00  0.00    +0.000 A 
ATOM     12  C   UNL     1       5.333   4.420  17.131  0.00  0.00    +0.000 A 
ENDBRANCH   5   7
BRANCH   6  13
ATOM     13  C   UNL     1       2.420   5.101  19.424  0.00  0.00    +0.000 C 
ATOM     14  O   UNL     1       1.508   4.876  18.636  0.00  0.00    +0.000 OA
ATOM     15  N   UNL     1       2.771   6.358  19.894  0.00  0.00    +0.000 N 
ATOM     16  H   UNL     1       3.608   6.430  20.457  0.00  0.00    +0.000 HD
BRANCH  15  17
ATOM     17  C   UNL     1       2.174   7.581  19.486  0.00  0.00    +0.000 A 
ATOM     18  C   UNL     1       2.328   8.126  18.212  0.00  0.00    +0.000 A 
ATOM     19  C   UNL     1       1.757   9.359  17.933  0.00  0.00    +0.000 A 
ATOM     20  N   UNL     1       1.042  10.068  18.825  0.00  0.00    +0.000 NA
ATOM     21  C   UNL     1       0.880   9.515  20.044  0.00  0.00    +0.000 A 
ATOM     22  C   UNL     1       1.412   8.288  20.416  0.00  0.00    +0.000 A 
ENDBRANCH  15  17
ENDBRANCH   6  13
TORSDOF 3
ENDMDL
MODEL 2
REMARK VINA RESULT:      -8.1      0.114      1.470
REMARK  Name = 
REMARK  4 active torsions:
REMARK  status: ('A' for Active; 'I' for Inactive)
REMARK    1  A    between atoms: C_1  and  C_2
REMARK    2  A    between atoms: C_5  and  C_6
REMARK    3  A    between atoms: C_12  and  C_13
REMARK    4  A    between atoms: N_15  and  C_16
REMARK                            x       y       z     vdW  Elec       q    Type
REMARK                         _______ _______ _______ _____ _____    ______ ____
ROOT
ATOM      1  C   UNL     1       1.783   2.740  21.599  0.00  0.00    +0.000 C 
ATOM      2  C   UNL     1       2.946   3.063  20.751  0.00  0.00    +0.000 A 
ATOM      3  O   UNL     1       3.961   2.162  20.785  0.00  0.00    +0.000 OA
ATOM      4  N   UNL     1       4.971   2.560  19.941  0.00  0.00    +0.000 NA
ATOM      5  C   UNL     1       4.577   3.721  19.392  0.00  0.00    +0.000 A 
ATOM      6  C   UNL     1       3.264   4.066  19.860  0.00  0.00    +0.000 A 
ENDROOT
BRANCH   5   7
ATOM      7  C   UNL     1       5.461   4.460  18.483  0.00  0.00    +0.000 A 
ATOM      8  C   UNL     1       5.330   4.330  17.093  0.00  0.00    +0.000 A 
ATOM      9  C   UNL     1       6.173   5.037  16.228  0.00  0.00    +0.000 A 
ATOM     10  C   UNL     1       7.154   5.883  16.741  0.00  0.00    +0.000 A 
ATOM     11  C   UNL     1       7.304   6.012  18.118  0.00  0.00    +0.000 A 
ATOM     12  C   UNL     1       6.471   5.298  18.983  0.00  0.00    +0.000 A 
ENDBRANCH   5   7
BRANCH   6  13
ATOM     13  C   UNL     1       2.441   5.171  19.409  0.00  0.00    +0.000 C 
ATOM     14  O   UNL     1       1.606   4.980  18.530  0.00  0.00    +0.000 OA
ATOM     15  N   UNL     1       2.724   6.404  19.979  0.00  0.00    +0.000 N 
ATOM     16  H   UNL     1       3.506   6.453  20.618  0.00  0.00    +0.000 HD
BRANCH  15  17
ATOM     17  C   UNL     1       2.142   7.639  19.590  0.00  0.00    +0.000 A 
ATOM     18  C   UNL     1       1.354   8.419  20.436  0.00  0.00    +0.000 A 
ATOM     19  C   UNL     1       0.776   9.579  19.939  0.00  0.00    +0.000 A 
ATOM     20  N   UNL     1       0.941  10.011  18.676  0.00  0.00    +0.000 NA
ATOM     21  C   UNL     1       1.727   9.260  17.879  0.00  0.00    +0.000 A 
ATOM     22  C   UNL     1       2.347   8.086  18.286  0.00  0.00    +0.000 A 
ENDBRANCH  15  17
ENDBRANCH   6  13
TORSDOF 3
ENDMDL
MODEL 3
REMARK VINA RESULT:      -8.0      0.195      1.038
REMARK  Name = 
REMARK  4 active torsions:
REMARK  status: ('A' for Active; 'I' for Inactive)
REMARK    1  A    between atoms: C_1  and  C_2
REMARK    2  A    between atoms: C_5  and  C_6
REMARK    3  A    between atoms: C_12  and  C_13
REMARK    4  A    between atoms: N_15  and  C_16
REMARK                            x       y       z     vdW  Elec       q    Type
REMARK                         _______ _______ _______ _____ _____    ______ ____
ROOT
ATOM      1  C   UNL     1       1.715   2.873  21.590  0.00  0.00    +0.000 C 
ATOM      2  C   UNL     1       2.887   3.147  20.737  0.00  0.00    +0.000 A 
ATOM      3  O   UNL     1       3.880   2.223  20.796  0.00  0.00    +0.000 OA
ATOM      4  N   UNL     1       4.900   2.575  19.945  0.00  0.00    +0.000 NA
ATOM      5  C   UNL     1       4.535   3.731  19.366  0.00  0.00    +0.000 A 
ATOM      6  C   UNL     1       3.230   4.119  19.822  0.00  0.00    +0.000 A 
ENDROOT
BRANCH   5   7
ATOM      7  C   UNL     1       5.438   4.426  18.440  0.00  0.00    +0.000 A 
ATOM      8  C   UNL     1       6.416   5.309  18.922  0.00  0.00    +0.000 A 
ATOM      9  C   UNL     1       7.277   5.969  18.038  0.00  0.00    +0.000 A 
ATOM     10  C   UNL     1       7.173   5.755  16.665  0.00  0.00    +0.000 A 
ATOM     11  C   UNL     1       6.200   4.891  16.173  0.00  0.00    +0.000 A 
ATOM     12  C   UNL     1       5.332   4.241  17.053  0.00  0.00    +0.000 A 
ENDBRANCH   5   7
BRANCH   6  13
ATOM     13  C   UNL     1       2.434   5.232  19.341  0.00  0.00    +0.000 C 
ATOM     14  O   UNL     1       1.668   5.060  18.399  0.00  0.00    +0.000 OA
ATOM     15  N   UNL     1       2.666   6.450  19.964  0.00  0.00    +0.000 N 
ATOM     16  H   UNL     1       3.399   6.486  20.659  0.00  0.00    +0.000 HD
BRANCH  15  17
ATOM     17  C   UNL     1       2.105   7.693  19.566  0.00  0.00    +0.000 A 
ATOM     18  C   UNL     1       1.301   8.475  20.395  0.00  0.00    +0.000 A 
ATOM     19  C   UNL     1       0.748   9.642  19.889  0.00  0.00    +0.000 A 
ATOM     20  N   UNL     1       0.950  10.080  18.632  0.00  0.00    +0.000 NA
ATOM     21  C   UNL     1       1.750   9.326  17.853  0.00  0.00    +0.000 A 
ATOM     22  C   UNL     1       2.349   8.145  18.270  0.00  0.00    +0.000 A 
ENDBRANCH  15  17
ENDBRANCH   6  13
TORSDOF 3
ENDMDL
MODEL 4
REMARK VINA RESULT:      -8.0      0.206      1.071
REMARK  Name = 
REMARK  4 active torsions:
REMARK  status: ('A' for Active; 'I' for Inactive)
REMARK    1  A    between atoms: C_1  and  C_2
REMARK    2  A    between atoms: C_5  and  C_6
REMARK    3  A    between atoms: C_12  and  C_13
REMARK    4  A    between atoms: N_15  and  C_16
REMARK                            x       y       z     vdW  Elec       q    Type
REMARK                         _______ _______ _______ _____ _____    ______ ____
ROOT
ATOM      1  C   UNL     1       1.719   2.909  21.542  0.00  0.00    +0.000 C 
ATOM      2  C   UNL     1       2.897   3.183  20.697  0.00  0.00    +0.000 A 
ATOM      3  O   UNL     1       3.894   2.265  20.771  0.00  0.00    +0.000 OA
ATOM      4  N   UNL     1       4.920   2.617  19.927  0.00  0.00    +0.000 NA
ATOM      5  C   UNL     1       4.554   3.766  19.337  0.00  0.00    +0.000 A 
ATOM      6  C   UNL     1       3.243   4.151  19.779  0.00  0.00    +0.000 A 
ENDROOT
BRANCH   5   7
ATOM      7  C   UNL     1       5.462   4.460  18.415  0.00  0.00    +0.000 A 
ATOM      8  C   UNL     1       5.357   4.271  17.029  0.00  0.00    +0.000 A 
ATOM      9  C   UNL     1       6.223   4.934  16.151  0.00  0.00    +0.000 A 
ATOM     10  C   UNL     1       7.200   5.794  16.647  0.00  0.00    +0.000 A 
ATOM     11  C   UNL     1       7.324   5.982  18.020  0.00  0.00    +0.000 A 
ATOM     12  C   UNL     1       6.469   5.311  18.898  0.00  0.00    +0.000 A 
ENDBRANCH   5   7
BRANCH   6  13
ATOM     13  C   UNL     1       2.446   5.256  19.284  0.00  0.00    +0.000 C 
ATOM     14  O   UNL     1       1.701   5.079  18.325  0.00  0.00    +0.000 OA
ATOM     15  N   UNL     1       2.652   6.475  19.913  0.00  0.00    +0.000 N 
ATOM     16  H   UNL     1       3.369   6.518  20.624  0.00  0.00    +0.000 HD
BRANCH  15  17
ATOM     17  C   UNL     1       2.086   7.713  19.506  0.00  0.00    +0.000 A 
ATOM     18  C   UNL     1       2.255   8.255  18.232  0.00  0.00    +0.000 A 
ATOM     19  C   UNL     1       1.716   9.503  17.954  0.00  0.00    +0.000 A 
ATOM     20  N   UNL     1       1.019  10.229  18.847  0.00  0.00    +0.000 NA
ATOM     21  C   UNL     1       0.843   9.680  20.065  0.00  0.00    +0.000 A 
ATOM     22  C   UNL     1       1.343   8.439  20.436  0.00  0.00    +0.000 A 
ENDBRANCH  15  17
ENDBRANCH   6  13
TORSDOF 3
ENDMDL
MODEL 5
REMARK VINA RESULT:      -7.5      1.114      1.192
REMARK  Name = 
REMARK  4 active torsions:
REMARK  status: ('A' for Active; 'I' for Inactive)
REMARK    1  A    between atoms: C_1  and  C_2
REMARK    2  A    between atoms: C_5  and  C_6
REMARK    3  A    between atoms: C_12  and  C_13
REMARK    4  A    between atoms: N_15  and  C_16
REMARK                            x       y       z     vdW  Elec       q    Type
REMARK                         _______ _______ _______ _____ _____    ______ ____
ROOT
ATOM      1  C   UNL     1       1.525   3.005  20.846  0.00  0.00    +0.000 C 
ATOM      2  C   UNL     1       2.789   3.490  20.261  0.00  0.00    +0.000 A 
ATOM      3  O   UNL     1       3.797   2.582  20.215  0.00  0.00    +0.000 OA
ATOM      4  N   UNL     1       4.908   3.142  19.631  0.00  0.00    +0.000 NA
ATOM      5  C   UNL     1       4.583   4.408  19.324  0.00  0.00    +0.000 A 
ATOM      6  C   UNL     1       3.217   4.666  19.682  0.00  0.00    +0.000 A 
ENDROOT
BRANCH   5   7
ATOM      7  C   UNL     1       5.576   5.319  18.741  0.00  0.00    +0.000 A 
ATOM      8  C   UNL     1       6.870   5.405  19.275  0.00  0.00    +0.000 A 
ATOM      9  C   UNL     1       7.816   6.272  18.717  0.00  0.00    +0.000 A 
ATOM     10  C   UNL     1       7.481   7.062  17.619  0.00  0.00    +0.000 A 
ATOM     11  C   UNL     1       6.197   6.997  17.087  0.00  0.00    +0.000 A 
ATOM     12  C   UNL     1       5.249   6.140  17.650  0.00  0.00    +0.000 A 
ENDBRANCH   5   7
BRANCH   6  13
ATOM     13  C   UNL     1       2.453   5.866  19.400  0.00  0.00    +0.000 C 
ATOM     14  O   UNL     1       2.074   6.082  18.253  0.00  0.00    +0.000 OA
ATOM     15  N   UNL     1       2.271   6.728  20.471  0.00  0.00    +0.000 N 
ATOM     16  H   UNL     1       2.721   6.489  21.345  0.00  0.00    +0.000 HD
BRANCH  15  17
ATOM     17  C   UNL     1       1.678   8.017  20.394  0.00  0.00    +0.000 A 
ATOM     18  C   UNL     1       1.529   8.725  19.202  0.00  0.00    +0.000 A 
ATOM     19  C   UNL     1       0.996  10.006  19.242  0.00  0.00    +0.000 A 
ATOM     20  N   UNL     1       0.599  10.613  20.375  0.00  0.00    +0.000 NA
ATOM     21  C   UNL     1       0.726   9.905  21.515  0.00  0.00    +0.000 A 
ATOM     22  C   UNL     1       1.245   8.619  21.575  0.00  0.00    +0.000 A 
ENDBRANCH  15  17
ENDBRANCH   6  13
TORSDOF 3
ENDMDL
MODEL 6
REMARK VINA RESULT:      -7.2      1.735      3.908
REMARK  Name = 
REMARK  4 active torsions:
REMARK  status: ('A' for Active; 'I' for Inactive)
REMARK    1  A    between atoms: C_1  and  C_2
REMARK    2  A    between atoms: C_5  and  C_6
REMARK    3  A    between atoms: C_12  and  C_13
REMARK    4  A    between atoms: N_15  and  C_16
REMARK                            x       y       z     vdW  Elec       q    Type
REMARK                         _______ _______ _______ _____ _____    ______ ____
ROOT
ATOM      1  C   UNL     1       7.178   6.555  17.838  0.00  0.00    +0.000 C 
ATOM      2  C   UNL     1       6.148   5.620  18.330  0.00  0.00    +0.000 A 
ATOM      3  O   UNL     1       6.617   4.457  18.850  0.00  0.00    +0.000 OA
ATOM      4  N   UNL     1       5.570   3.684  19.292  0.00  0.00    +0.000 NA
ATOM      5  C   UNL     1       4.447   4.374  19.032  0.00  0.00    +0.000 A 
ATOM      6  C   UNL     1       4.774   5.642  18.443  0.00  0.00    +0.000 A 
ENDROOT
BRANCH   5   7
ATOM      7  C   UNL     1       3.128   3.799  19.321  0.00  0.00    +0.000 A 
ATOM      8  C   UNL     1       2.598   3.837  20.619  0.00  0.00    +0.000 A 
ATOM      9  C   UNL     1       1.339   3.290  20.892  0.00  0.00    +0.000 A 
ATOM     10  C   UNL     1       0.595   2.700  19.872  0.00  0.00    +0.000 A 
ATOM     11  C   UNL     1       1.113   2.643  18.582  0.00  0.00    +0.000 A 
ATOM     12  C   UNL     1       2.375   3.179  18.311  0.00  0.00    +0.000 A 
ENDBRANCH   5   7
BRANCH   6  13
ATOM     13  C   UNL     1       3.858   6.722  18.135  0.00  0.00    +0.000 C 
ATOM     14  O   UNL     1       4.001   7.354  17.093  0.00  0.00    +0.000 OA
ATOM     15  N   UNL     1       2.911   7.004  19.110  0.00  0.00    +0.000 N 
ATOM     16  H   UNL     1       2.960   6.479  19.973  0.00  0.00    +0.000 HD
BRANCH  15  17
ATOM     17  C   UNL     1       2.009   8.100  19.083  0.00  0.00    +0.000 A 
ATOM     18  C   UNL     1       1.732   8.841  17.934  0.00  0.00    +0.000 A 
ATOM     19  C   UNL     1       0.884   9.936  18.027  0.00  0.00    +0.000 A 
ATOM     20  N   UNL     1       0.295  10.327  19.172  0.00  0.00    +0.000 NA
ATOM     21  C   UNL     1       0.553   9.585  20.267  0.00  0.00    +0.000 A 
ATOM     22  C   UNL     1       1.385   8.474  20.273  0.00  0.00    +0.000 A 
ENDBRANCH  15  17
ENDBRANCH   6  13
TORSDOF 3
ENDMDL
MODEL 7
REMARK VINA RESULT:      -7.2      1.724      4.044
REMARK  Name = 
REMARK  4 active torsions:
REMARK  status: ('A' for Active; 'I' for Inactive)
REMARK    1  A    between atoms: C_1  and  C_2
REMARK    2  A    between atoms: C_5  and  C_6
REMARK    3  A    between atoms: C_12  and  C_13
REMARK    4  A    between atoms: N_15  and  C_16
REMARK                            x       y       z     vdW  Elec       q    Type
REMARK                         _______ _______ _______ _____ _____    ______ ____
ROOT
ATOM      1  C   UNL     1       7.122   6.519  17.719  0.00  0.00    +0.000 C 
ATOM      2  C   UNL     1       6.106   5.586  18.242  0.00  0.00    +0.000 A 
ATOM      3  O   UNL     1       6.589   4.425  18.754  0.00  0.00    +0.000 OA
ATOM      4  N   UNL     1       5.553   3.654  19.227  0.00  0.00    +0.000 NA
ATOM      5  C   UNL     1       4.425   4.344  18.994  0.00  0.00    +0.000 A 
ATOM      6  C   UNL     1       4.736   5.608  18.391  0.00  0.00    +0.000 A 
ENDROOT
BRANCH   5   7
ATOM      7  C   UNL     1       3.113   3.770  19.321  0.00  0.00    +0.000 A 
ATOM      8  C   UNL     1       2.318   3.189  18.322  0.00  0.00    +0.000 A 
ATOM      9  C   UNL     1       1.068   2.640  18.635  0.00  0.00    +0.000 A 
ATOM     10  C   UNL     1       0.600   2.666  19.947  0.00  0.00    +0.000 A 
ATOM     11  C   UNL     1       1.373   3.251  20.946  0.00  0.00    +0.000 A 
ATOM     12  C   UNL     1       2.615   3.808  20.633  0.00  0.00    +0.000 A 
ENDBRANCH   5   7
BRANCH   6  13
ATOM     13  C   UNL     1       3.812   6.688  18.103  0.00  0.00    +0.000 C 
ATOM     14  O   UNL     1       3.912   7.300  17.045  0.00  0.00    +0.000 OA
ATOM     15  N   UNL     1       2.910   6.992  19.113  0.00  0.00    +0.000 N 
ATOM     16  H   UNL     1       2.994   6.484  19.983  0.00  0.00    +0.000 HD
BRANCH  15  17
ATOM     17  C   UNL     1       2.012   8.093  19.104  0.00  0.00    +0.000 A 
ATOM     18  C   UNL     1       1.706   8.829  17.959  0.00  0.00    +0.000 A 
ATOM     19  C   UNL     1       0.867   9.928  18.070  0.00  0.00    +0.000 A 
ATOM     20  N   UNL     1       0.311  10.328  19.228  0.00  0.00    +0.000 NA
ATOM     21  C   UNL     1       0.595   9.591  20.319  0.00  0.00    +0.000 A 
ATOM     22  C   UNL     1       1.422   8.476  20.308  0.00  0.00    +0.000 A 
ENDBRANCH  15  17
ENDBRANCH   6  13
TORSDOF 3
ENDMDL
MODEL 8
REMARK VINA RESULT:      -7.1      1.561      1.902
REMARK  Name = 
REMARK  4 active torsions:
REMARK  status: ('A' for Active; 'I' for Inactive)
REMARK    1  A    between atoms: C_1  and  C_2
REMARK    2  A    between atoms: C_5  and  C_6
REMARK    3  A    between atoms: C_12  and  C_13
REMARK    4  A    between atoms: N_15  and  C_16
REMARK                            x       y       z     vdW  Elec       q    Type
REMARK                         _______ _______ _______ _____ _____    ______ ____
ROOT
ATOM      1  C   UNL     1       0.910   2.683  18.985  0.00  0.00    +0.000 C 
ATOM      2  C   UNL     1       2.223   3.234  18.598  0.00  0.00    +0.000 A 
ATOM      3  O   UNL     1       2.961   2.454  17.768  0.00  0.00    +0.000 OA
ATOM      4  N   UNL     1       4.145   3.081  17.462  0.00  0.00    +0.000 NA
ATOM      5  C   UNL     1       4.139   4.252  18.120  0.00  0.00    +0.000 A 
ATOM      6  C   UNL     1       2.906   4.407  18.838  0.00  0.00    +0.000 A 
ENDROOT
BRANCH   5   7
ATOM      7  C   UNL     1       5.300   5.150  18.066  0.00  0.00    +0.000 A 
ATOM      8  C   UNL     1       6.335   5.039  19.006  0.00  0.00    +0.000 A 
ATOM      9  C   UNL     1       7.441   5.895  18.953  0.00  0.00    +0.000 A 
ATOM     10  C   UNL     1       7.527   6.869  17.959  0.00  0.00    +0.000 A 
ATOM     11  C   UNL     1       6.502   6.998  17.028  0.00  0.00    +0.000 A 
ATOM     12  C   UNL     1       5.391   6.153  17.088  0.00  0.00    +0.000 A 
ENDBRANCH   5   7
BRANCH   6  13
ATOM     13  C   UNL     1       2.461   5.581  19.564  0.00  0.00    +0.000 C 
ATOM     14  O   UNL     1       2.095   5.465  20.729  0.00  0.00    +0.000 OA
ATOM     15  N   UNL     1       2.420   6.760  18.833  0.00  0.00    +0.000 N 
ATOM     16  H   UNL     1       2.649   6.707  17.849  0.00  0.00    +0.000 HD
BRANCH  15  17
ATOM     17  C   UNL     1       1.890   7.993  19.296  0.00  0.00    +0.000 A 
ATOM     18  C   UNL     1       1.510   8.219  20.619  0.00  0.00    +0.000 A 
ATOM     19  C   UNL     1       0.941   9.438  20.957  0.00  0.00    +0.000 A 
ATOM     20  N   UNL     1       0.741  10.437  20.078  0.00  0.00    +0.000 NA
ATOM     21  C   UNL     1       1.138  10.212  18.810  0.00  0.00    +0.000 A 
ATOM     22  C   UNL     1       1.717   9.027  18.377  0.00  0.00    +0.000 A 
ENDBRANCH  15  17
ENDBRANCH   6  13
TORSDOF 3
ENDMDL
MODEL 9
REMARK VINA RESULT:      -7.1      2.128      4.367
REMARK  Name = 
REMARK  4 active torsions:
REMARK  status: ('A' for Active; 'I' for Inactive)
REMARK    1  A    between atoms: C_1  and  C_2
REMARK    2  A    between atoms: C_5  and  C_6
REMARK    3  A    between atoms: C_12  and  C_13
REMARK    4  A    between atoms: N_15  and  C_16
REMARK                            x       y       z     vdW  Elec       q    Type
REMARK                         _______ _______ _______ _____ _____    ______ ____
ROOT
ATOM      1  C   UNL     1       5.877   5.539  15.122  0.00  0.00    +0.000 C 
ATOM      2  C   UNL     1       5.090   4.804  16.130  0.00  0.00    +0.000 A 
ATOM      3  O   UNL     1       5.228   3.454  16.106  0.00  0.00    +0.000 OA
ATOM      4  N   UNL     1       4.469   2.886  17.102  0.00  0.00    +0.000 NA
ATOM      5  C   UNL     1       3.852   3.896  17.737  0.00  0.00    +0.000 A 
ATOM      6  C   UNL     1       4.249   5.152  17.166  0.00  0.00    +0.000 A 
ENDROOT
BRANCH   5   7
ATOM      7  C   UNL     1       2.901   3.632  18.823  0.00  0.00    +0.000 A 
ATOM      8  C   UNL     1       1.597   3.199  18.544  0.00  0.00    +0.000 A 
ATOM      9  C   UNL     1       0.691   2.945  19.581  0.00  0.00    +0.000 A 
ATOM     10  C   UNL     1       1.079   3.120  20.908  0.00  0.00    +0.000 A 
ATOM     11  C   UNL     1       2.366   3.561  21.200  0.00  0.00    +0.000 A 
ATOM     12  C   UNL     1       3.266   3.826  20.165  0.00  0.00    +0.000 A 
ENDBRANCH   5   7
BRANCH   6  13
ATOM     13  C   UNL     1       3.907   6.476  17.648  0.00  0.00    +0.000 C 
ATOM     14  O   UNL     1       4.787   7.325  17.748  0.00  0.00    +0.000 OA
ATOM     15  N   UNL     1       2.586   6.653  18.032  0.00  0.00    +0.000 N 
ATOM     16  H   UNL     1       1.978   5.846  17.999  0.00  0.00    +0.000 HD
BRANCH  15  17
ATOM     17  C   UNL     1       2.064   7.816  18.658  0.00  0.00    +0.000 A 
ATOM     18  C   UNL     1       1.787   7.897  20.023  0.00  0.00    +0.000 A 
ATOM     19  C   UNL     1       1.216   9.058  20.526  0.00  0.00    +0.000 A 
ATOM     20  N   UNL     1       0.920  10.131  19.771  0.00  0.00    +0.000 NA
ATOM     21  C   UNL     1       1.219  10.046  18.460  0.00  0.00    +0.000 A 
ATOM     22  C   UNL     1       1.790   8.929  17.865  0.00  0.00    +0.000 A 
ENDBRANCH  15  17
ENDBRANCH   6  13
TORSDOF 3
ENDMDL
