MODEL 1
REMARK VINA RESULT:      -8.0      0.000      0.000
REMARK  Name = 
REMARK  1 active torsions:
REMARK  status: ('A' for Active; 'I' for Inactive)
REMARK    1  A    between atoms: C_1  and  C_2
REMARK                            x       y       z     vdW  Elec       q    Type
REMARK                         _______ _______ _______ _____ _____    ______ ____
ROOT
ATOM      1  C   UNL     1       5.426   4.459  15.075  0.00  0.00    +0.000 C 
ATOM      2  C   UNL     1       5.356   5.580  16.115  0.00  0.00    +0.000 C 
ATOM      3  C   UNL     1       6.729   5.735  16.741  0.00  0.00    +0.000 C 
ATOM      4  O   UNL     1       7.645   6.313  16.156  0.00  0.00    +0.000 OA
ATOM      5  C   UNL     1       7.010   5.102  18.041  0.00  0.00    +0.000 C 
ATOM      6  C   UNL     1       6.002   4.517  18.687  0.00  0.00    +0.000 C 
ATOM      7  N   UNL     1       4.684   4.475  18.263  0.00  0.00    +0.000 N 
ATOM      8  C   UNL     1       3.647   4.176  19.191  0.00  0.00    +0.000 A 
ATOM      9  C   UNL     1       3.730   3.039  20.010  0.00  0.00    +0.000 A 
ATOM     10  C   UNL     1       2.743   2.754  20.955  0.00  0.00    +0.000 A 
ATOM     11  C   UNL     1       1.651   3.605  21.098  0.00  0.00    +0.000 A 
ATOM     12  C   UNL     1       1.541   4.733  20.288  0.00  0.00    +0.000 A 
ATOM     13  C   UNL     1       2.533   5.032  19.339  0.00  0.00    +0.000 A 
ATOM     14  C   UNL     1       2.375   6.266  18.484  0.00  0.00    +0.000 C 
ATOM     15  C   UNL     1       3.651   6.617  17.719  0.00  0.00    +0.000 C 
ATOM     16  C   UNL     1       4.235   5.324  17.140  0.00  0.00    +0.000 C 
ENDROOT
TORSDOF 0
ENDMDL
MODEL 2
REMARK VINA RESULT:      -7.9      2.555      4.958
REMARK  Name = 
REMARK  1 active torsions:
REMARK  status: ('A' for Active; 'I' for Inactive)
REMARK    1  A    between atoms: C_1  and  C_2
REMARK                            x       y       z     vdW  Elec       q    Type
REMARK                         _______ _______ _______ _____ _____    ______ ____
ROOT
ATOM      1  C   UNL     1       1.763   3.548  20.895  0.00  0.00    +0.000 C 
ATOM      2  C   UNL     1       1.570   4.030  19.455  0.00  0.00    +0.000 C 
ATOM      3  C   UNL     1       1.340   2.817  18.574  0.00  0.00    +0.000 C 
ATOM      4  O   UNL     1       0.255   2.236  18.542  0.00  0.00    +0.000 OA
ATOM      5  C   UNL     1       2.463   2.257  17.803  0.00  0.00    +0.000 C 
ATOM      6  C   UNL     1       3.621   2.916  17.808  0.00  0.00    +0.000 C 
ATOM      7  N   UNL     1       3.866   4.117  18.452  0.00  0.00    +0.000 N 
ATOM      8  C   UNL     1       4.988   4.910  18.079  0.00  0.00    +0.000 A 
ATOM      9  C   UNL     1       6.271   4.342  18.013  0.00  0.00    +0.000 A 
ATOM     10  C   UNL     1       7.375   5.093  17.607  0.00  0.00    +0.000 A 
ATOM     11  C   UNL     1       7.216   6.431  17.258  0.00  0.00    +0.000 A 
ATOM     12  C   UNL     1       5.953   7.019  17.326  0.00  0.00    +0.000 A 
ATOM     13  C   UNL     1       4.835   6.269  17.726  0.00  0.00    +0.000 A 
ATOM     14  C   UNL     1       3.487   6.945  17.783  0.00  0.00    +0.000 C 
ATOM     15  C   UNL     1       2.338   5.951  17.946  0.00  0.00    +0.000 C 
ATOM     16  C   UNL     1       2.746   4.913  18.997  0.00  0.00    +0.000 C 
ENDROOT
TORSDOF 0
ENDMDL
MODEL 3
REMARK VINA RESULT:      -7.6      1.325      2.384
REMARK  Name = 
REMARK  1 active torsions:
REMARK  status: ('A' for Active; 'I' for Inactive)
REMARK    1  A    between atoms: C_1  and  C_2
REMARK                            x       y       z     vdW  Elec       q    Type
REMARK                         _______ _______ _______ _____ _____    ______ ____
ROOT
ATOM      1  C   UNL     1       7.532   4.602  17.516  0.00  0.00    +0.000 C 
ATOM      2  C   UNL     1       6.285   4.349  16.664  0.00  0.00    +0.000 C 
ATOM      3  C   UNL     1       6.060   5.559  15.778  0.00  0.00    +0.000 C 
ATOM      4  O   UNL     1       6.733   5.753  14.765  0.00  0.00    +0.000 OA
ATOM      5  C   UNL     1       5.079   6.581  16.180  0.00  0.00    +0.000 C 
ATOM      6  C   UNL     1       4.325   6.341  17.253  0.00  0.00    +0.000 C 
ATOM      7  N   UNL     1       4.352   5.190  18.021  0.00  0.00    +0.000 N 
ATOM      8  C   UNL     1       3.262   4.883  18.883  0.00  0.00    +0.000 A 
ATOM      9  C   UNL     1       2.787   5.837  19.798  0.00  0.00    +0.000 A 
ATOM     10  C   UNL     1       1.691   5.568  20.620  0.00  0.00    +0.000 A 
ATOM     11  C   UNL     1       1.049   4.335  20.543  0.00  0.00    +0.000 A 
ATOM     12  C   UNL     1       1.510   3.369  19.651  0.00  0.00    +0.000 A 
ATOM     13  C   UNL     1       2.607   3.633  18.813  0.00  0.00    +0.000 A 
ATOM     14  C   UNL     1       3.071   2.558  17.860  0.00  0.00    +0.000 C 
ATOM     15  C   UNL     1       4.066   3.082  16.825  0.00  0.00    +0.000 C 
ATOM     16  C   UNL     1       5.071   3.990  17.541  0.00  0.00    +0.000 C 
ENDROOT
TORSDOF 0
ENDMDL
MODEL 4
REMARK VINA RESULT:      -7.5      1.420      2.296
REMARK  Name = 
REMARK  1 active torsions:
REMARK  status: ('A' for Active; 'I' for Inactive)
REMARK    1  A    between atoms: C_1  and  C_2
REMARK                            x       y       z     vdW  Elec       q    Type
REMARK                         _______ _______ _______ _____ _____    ______ ____
ROOT
ATOM      1  C   UNL     1       6.959   4.724  17.203  0.00  0.00    +0.000 C 
ATOM      2  C   UNL     1       5.555   4.709  16.592  0.00  0.00    +0.000 C 
ATOM      3  C   UNL     1       5.141   6.142  16.316  0.00  0.00    +0.000 C 
ATOM      4  O   UNL     1       5.574   6.765  15.346  0.00  0.00    +0.000 OA
ATOM      5  C   UNL     1       4.273   6.845  17.275  0.00  0.00    +0.000 C 
ATOM      6  C   UNL     1       3.774   6.151  18.298  0.00  0.00    +0.000 C 
ATOM      7  N   UNL     1       3.968   4.800  18.531  0.00  0.00    +0.000 N 
ATOM      8  C   UNL     1       3.094   4.095  19.407  0.00  0.00    +0.000 A 
ATOM      9  C   UNL     1       2.833   4.584  20.697  0.00  0.00    +0.000 A 
ATOM     10  C   UNL     1       1.945   3.929  21.553  0.00  0.00    +0.000 A 
ATOM     11  C   UNL     1       1.301   2.770  21.132  0.00  0.00    +0.000 A 
ATOM     12  C   UNL     1       1.554   2.260  19.859  0.00  0.00    +0.000 A 
ATOM     13  C   UNL     1       2.439   2.916  18.988  0.00  0.00    +0.000 A 
ATOM     14  C   UNL     1       2.682   2.330  17.618  0.00  0.00    +0.000 C 
ATOM     15  C   UNL     1       3.425   3.292  16.692  0.00  0.00    +0.000 C 
ATOM     16  C   UNL     1       4.564   3.941  17.486  0.00  0.00    +0.000 C 
ENDROOT
TORSDOF 0
ENDMDL
MODEL 5
REMARK VINA RESULT:      -7.3      1.353      2.574
REMARK  Name = 
REMARK  1 active torsions:
REMARK  status: ('A' for Active; 'I' for Inactive)
REMARK    1  A    between atoms: C_1  and  C_2
REMARK                            x       y       z     vdW  Elec       q    Type
REMARK                         _______ _______ _______ _____ _____    ______ ____
ROOT
ATOM      1  C   UNL     1       7.252   5.531  19.061  0.00  0.00    +0.000 C 
ATOM      2  C   UNL     1       6.368   5.212  17.852  0.00  0.00    +0.000 C 
ATOM      3  C   UNL     1       5.982   6.519  17.186  0.00  0.00    +0.000 C 
ATOM      4  O   UNL     1       6.769   7.135  16.467  0.00  0.00    +0.000 OA
ATOM      5  C   UNL     1       4.669   7.120  17.472  0.00  0.00    +0.000 C 
ATOM      6  C   UNL     1       3.807   6.425  18.215  0.00  0.00    +0.000 C 
ATOM      7  N   UNL     1       4.018   5.156  18.724  0.00  0.00    +0.000 N 
ATOM      8  C   UNL     1       2.913   4.370  19.159  0.00  0.00    +0.000 A 
ATOM      9  C   UNL     1       1.974   4.898  20.060  0.00  0.00    +0.000 A 
ATOM     10  C   UNL     1       0.862   4.158  20.463  0.00  0.00    +0.000 A 
ATOM     11  C   UNL     1       0.667   2.871  19.971  0.00  0.00    +0.000 A 
ATOM     12  C   UNL     1       1.592   2.322  19.084  0.00  0.00    +0.000 A 
ATOM     13  C   UNL     1       2.710   3.062  18.667  0.00  0.00    +0.000 A 
ATOM     14  C   UNL     1       3.684   2.429  17.703  0.00  0.00    +0.000 C 
ATOM     15  C   UNL     1       4.673   3.438  17.120  0.00  0.00    +0.000 C 
ATOM     16  C   UNL     1       5.161   4.344  18.255  0.00  0.00    +0.000 C 
ENDROOT
TORSDOF 0
ENDMDL
MODEL 6
REMARK VINA RESULT:      -7.0      1.534      1.843
REMARK  Name = 
REMARK  1 active torsions:
REMARK  status: ('A' for Active; 'I' for Inactive)
REMARK    1  A    between atoms: C_1  and  C_2
REMARK                            x       y       z     vdW  Elec       q    Type
REMARK                         _______ _______ _______ _____ _____    ______ ____
ROOT
ATOM      1  C   UNL     1       4.789   6.989  15.358  0.00  0.00    +0.000 C 
ATOM      2  C   UNL     1       5.428   6.352  16.595  0.00  0.00    +0.000 C 
ATOM      3  C   UNL     1       6.392   5.276  16.132  0.00  0.00    +0.000 C 
ATOM      4  O   UNL     1       7.504   5.555  15.681  0.00  0.00    +0.000 OA
ATOM      5  C   UNL     1       5.963   3.868  16.132  0.00  0.00    +0.000 C 
ATOM      6  C   UNL     1       4.777   3.571  16.662  0.00  0.00    +0.000 C 
ATOM      7  N   UNL     1       3.907   4.471  17.254  0.00  0.00    +0.000 N 
ATOM      8  C   UNL     1       2.874   4.002  18.115  0.00  0.00    +0.000 A 
ATOM      9  C   UNL     1       2.004   2.983  17.694  0.00  0.00    +0.000 A 
ATOM     10  C   UNL     1       1.014   2.482  18.540  0.00  0.00    +0.000 A 
ATOM     11  C   UNL     1       0.875   2.992  19.828  0.00  0.00    +0.000 A 
ATOM     12  C   UNL     1       1.720   4.011  20.263  0.00  0.00    +0.000 A 
ATOM     13  C   UNL     1       2.725   4.517  19.422  0.00  0.00    +0.000 A 
ATOM     14  C   UNL     1       3.619   5.619  19.935  0.00  0.00    +0.000 C 
ATOM     15  C   UNL     1       4.831   5.860  19.035  0.00  0.00    +0.000 C 
ATOM     16  C   UNL     1       4.358   5.841  17.578  0.00  0.00    +0.000 C 
ENDROOT
TORSDOF 0
ENDMDL
MODEL 7
REMARK VINA RESULT:      -6.9      1.184      1.272
REMARK  Name = 
REMARK  1 active torsions:
REMARK  status: ('A' for Active; 'I' for Inactive)
REMARK    1  A    between atoms: C_1  and  C_2
REMARK                            x       y       z     vdW  Elec       q    Type
REMARK                         _______ _______ _______ _____ _____    ______ ____
ROOT
ATOM      1  C   UNL     1       5.165   6.503  15.579  0.00  0.00    +0.000 C 
ATOM      2  C   UNL     1       5.166   6.762  17.088  0.00  0.00    +0.000 C 
ATOM      3  C   UNL     1       6.509   6.325  17.644  0.00  0.00    +0.000 C 
ATOM      4  O   UNL     1       7.520   7.015  17.509  0.00  0.00    +0.000 OA
ATOM      5  C   UNL     1       6.635   5.005  18.283  0.00  0.00    +0.000 C 
ATOM      6  C   UNL     1       5.528   4.285  18.465  0.00  0.00    +0.000 C 
ATOM      7  N   UNL     1       4.243   4.680  18.136  0.00  0.00    +0.000 N 
ATOM      8  C   UNL     1       3.123   4.018  18.717  0.00  0.00    +0.000 A 
ATOM      9  C   UNL     1       3.023   2.618  18.673  0.00  0.00    +0.000 A 
ATOM     10  C   UNL     1       1.955   1.950  19.275  0.00  0.00    +0.000 A 
ATOM     11  C   UNL     1       0.964   2.674  19.933  0.00  0.00    +0.000 A 
ATOM     12  C   UNL     1       1.037   4.065  19.979  0.00  0.00    +0.000 A 
ATOM     13  C   UNL     1       2.112   4.745  19.384  0.00  0.00    +0.000 A 
ATOM     14  C   UNL     1       2.153   6.252  19.460  0.00  0.00    +0.000 C 
ATOM     15  C   UNL     1       3.504   6.826  19.034  0.00  0.00    +0.000 C 
ATOM     16  C   UNL     1       3.964   6.086  17.774  0.00  0.00    +0.000 C 
ENDROOT
TORSDOF 0
ENDMDL
MODEL 8
REMARK VINA RESULT:      -6.8      2.444      5.306
REMARK  Name = 
REMARK  1 active torsions:
REMARK  status: ('A' for Active; 'I' for Inactive)
REMARK    1  A    between atoms: C_1  and  C_2
REMARK                            x       y       z     vdW  Elec       q    Type
REMARK                         _______ _______ _______ _____ _____    ______ ____
ROOT
ATOM      1  C   UNL     1       3.026   2.156  20.322  0.00  0.00    +0.000 C 
ATOM      2  C   UNL     1       3.071   3.666  20.071  0.00  0.00    +0.000 C 
ATOM      3  C   UNL     1       1.723   4.098  19.526  0.00  0.00    +0.000 C 
ATOM      4  O   UNL     1       0.742   4.233  20.258  0.00  0.00    +0.000 OA
ATOM      5  C   UNL     1       1.550   4.275  18.074  0.00  0.00    +0.000 C 
ATOM      6  C   UNL     1       2.626   4.171  17.295  0.00  0.00    +0.000 C 
ATOM      7  N   UNL     1       3.921   3.942  17.729  0.00  0.00    +0.000 N 
ATOM      8  C   UNL     1       5.021   4.232  16.873  0.00  0.00    +0.000 A 
ATOM      9  C   UNL     1       5.055   3.730  15.562  0.00  0.00    +0.000 A 
ATOM     10  C   UNL     1       6.104   4.041  14.695  0.00  0.00    +0.000 A 
ATOM     11  C   UNL     1       7.143   4.862  15.126  0.00  0.00    +0.000 A 
ATOM     12  C   UNL     1       7.136   5.363  16.427  0.00  0.00    +0.000 A 
ATOM     13  C   UNL     1       6.080   5.062  17.303  0.00  0.00    +0.000 A 
ATOM     14  C   UNL     1       6.112   5.628  18.703  0.00  0.00    +0.000 C 
ATOM     15  C   UNL     1       4.779   5.463  19.433  0.00  0.00    +0.000 C 
ATOM     16  C   UNL     1       4.256   4.048  19.165  0.00  0.00    +0.000 C 
ENDROOT
TORSDOF 0
ENDMDL
MODEL 9
REMARK VINA RESULT:      -6.7      2.641      5.247
REMARK  Name = 
REMARK  1 active torsions:
REMARK  status: ('A' for Active; 'I' for Inactive)
REMARK    1  A    between atoms: C_1  and  C_2
REMARK                            x       y       z     vdW  Elec       q    Type
REMARK                         _______ _______ _______ _____ _____    ______ ____
ROOT
ATOM      1  C   UNL     1       3.007   3.203  21.194  0.00  0.00    +0.000 C 
ATOM      2  C   UNL     1       2.201   4.014  20.176  0.00  0.00    +0.000 C 
ATOM      3  C   UNL     1       1.167   3.098  19.549  0.00  0.00    +0.000 C 
ATOM      4  O   UNL     1       0.134   2.787  20.142  0.00  0.00    +0.000 OA
ATOM      5  C   UNL     1       1.439   2.488  18.236  0.00  0.00    +0.000 C 
ATOM      6  C   UNL     1       2.537   2.864  17.582  0.00  0.00    +0.000 C 
ATOM      7  N   UNL     1       3.447   3.816  18.010  0.00  0.00    +0.000 N 
ATOM      8  C   UNL     1       4.348   4.409  17.079  0.00  0.00    +0.000 A 
ATOM      9  C   UNL     1       5.134   3.605  16.238  0.00  0.00    +0.000 A 
ATOM     10  C   UNL     1       5.989   4.169  15.290  0.00  0.00    +0.000 A 
ATOM     11  C   UNL     1       6.075   5.553  15.167  0.00  0.00    +0.000 A 
ATOM     12  C   UNL     1       5.313   6.371  16.000  0.00  0.00    +0.000 A 
ATOM     13  C   UNL     1       4.443   5.812  16.950  0.00  0.00    +0.000 A 
ATOM     14  C   UNL     1       3.635   6.735  17.830  0.00  0.00    +0.000 C 
ATOM     15  C   UNL     1       2.535   6.002  18.598  0.00  0.00    +0.000 C 
ATOM     16  C   UNL     1       3.123   4.699  19.150  0.00  0.00    +0.000 C 
ENDROOT
TORSDOF 0
ENDMDL
