MODEL 1
REMARK VINA RESULT:      -5.6      0.000      0.000
REMARK  Name = 
REMARK  2 active torsions:
REMARK  status: ('A' for Active; 'I' for Inactive)
REMARK    1  A    between atoms: C_2  and  O_3
REMARK    2  A    between atoms: C_2  and  C_4
REMARK                            x       y       z     vdW  Elec       q    Type
REMARK                         _______ _______ _______ _____ _____    ______ ____
ROOT
ATOM      1  C   UNL     1       5.788   4.678  17.523  0.00  0.00    +0.000 C 
ATOM      2  C   UNL     1       4.787   4.127  16.500  0.00  0.00    +0.000 C 
ATOM      3  C   UNL     1       3.443   3.667  17.080  0.00  0.00    +0.000 C 
ATOM      4  C   UNL     1       3.577   2.414  17.947  0.00  0.00    +0.000 C 
ATOM      5  C   UNL     1       4.037   2.676  19.386  0.00  0.00    +0.000 C 
ATOM      6  N   UNL     1       4.982   3.783  19.570  0.00  0.00    +0.000 NA
ATOM      7  N   UNL     1       6.080   3.727  18.638  0.00  0.00    +0.000 NA
ATOM      8  H   UNL     1       5.301   3.787  20.545  0.00  0.00    +0.000 HD
ATOM      9  H   UNL     1       6.225   2.789  18.244  0.00  0.00    +0.000 HD
ENDROOT
BRANCH   1  11
ATOM     10  O   UNL     1       7.327   5.931  16.068  0.00  0.00    +0.000 OA
ATOM     11  C   UNL     1       7.127   4.999  16.830  0.00  0.00    +0.000 C 
BRANCH  11  12
ATOM     12  O   UNL     1       8.109   4.130  17.192  0.00  0.00    +0.000 OA
ATOM     13  H   UNL     1       8.906   4.347  16.654  0.00  0.00    +0.000 HD
ENDBRANCH  11  12
ENDBRANCH   1  11
TORSDOF 2
ENDMDL
MODEL 2
REMARK VINA RESULT:      -5.5      1.855      2.061
REMARK  Name = 
REMARK  2 active torsions:
REMARK  status: ('A' for Active; 'I' for Inactive)
REMARK    1  A    between atoms: C_2  and  O_3
REMARK    2  A    between atoms: C_2  and  C_4
REMARK                            x       y       z     vdW  Elec       q    Type
REMARK                         _______ _______ _______ _____ _____    ______ ____
ROOT
ATOM      1  C   UNL     1       5.869   5.157  19.155  0.00  0.00    +0.000 C 
ATOM      2  C   UNL     1       4.989   5.951  18.181  0.00  0.00    +0.000 C 
ATOM      3  C   UNL     1       3.581   5.384  17.958  0.00  0.00    +0.000 C 
ATOM      4  C   UNL     1       3.597   4.056  17.200  0.00  0.00    +0.000 C 
ATOM      5  C   UNL     1       3.888   2.825  18.068  0.00  0.00    +0.000 C 
ATOM      6  N   UNL     1       4.817   3.028  19.185  0.00  0.00    +0.000 NA
ATOM      7  N   UNL     1       6.016   3.718  18.781  0.00  0.00    +0.000 NA
ATOM      8  H   UNL     1       5.019   2.119  19.615  0.00  0.00    +0.000 HD
ATOM      9  H   UNL     1       6.196   3.654  17.771  0.00  0.00    +0.000 HD
ENDROOT
BRANCH   1  11
ATOM     10  O   UNL     1       7.793   6.451  18.330  0.00  0.00    +0.000 OA
ATOM     11  C   UNL     1       7.284   5.767  19.203  0.00  0.00    +0.000 C 
BRANCH  11  12
ATOM     12  O   UNL     1       7.919   5.486  20.374  0.00  0.00    +0.000 OA
ATOM     13  H   UNL     1       8.888   5.504  20.192  0.00  0.00    +0.000 HD
ENDBRANCH  11  12
ENDBRANCH   1  11
TORSDOF 2
ENDMDL
MODEL 3
REMARK VINA RESULT:      -5.4      1.969      2.293
REMARK  Name = 
REMARK  2 active torsions:
REMARK  status: ('A' for Active; 'I' for Inactive)
REMARK    1  A    between atoms: C_2  and  O_3
REMARK    2  A    between atoms: C_2  and  C_4
REMARK                            x       y       z     vdW  Elec       q    Type
REMARK                         _______ _______ _______ _____ _____    ______ ____
ROOT
ATOM      1  C   UNL     1       6.453   5.116  16.141  0.00  0.00    +0.000 C 
ATOM      2  C   UNL     1       5.209   6.010  16.053  0.00  0.00    +0.000 C 
ATOM      3  C   UNL     1       4.539   6.335  17.394  0.00  0.00    +0.000 C 
ATOM      4  C   UNL     1       3.879   5.112  18.032  0.00  0.00    +0.000 C 
ATOM      5  C   UNL     1       4.836   4.195  18.803  0.00  0.00    +0.000 C 
ATOM      6  N   UNL     1       6.196   4.081  18.264  0.00  0.00    +0.000 NA
ATOM      7  N   UNL     1       6.202   3.822  16.846  0.00  0.00    +0.000 NA
ATOM      8  H   UNL     1       6.701   3.361  18.791  0.00  0.00    +0.000 HD
ATOM      9  H   UNL     1       5.317   3.425  16.506  0.00  0.00    +0.000 HD
ENDROOT
BRANCH   1  11
ATOM     10  O   UNL     1       7.760   5.438  14.082  0.00  0.00    +0.000 OA
ATOM     11  C   UNL     1       6.960   4.778  14.726  0.00  0.00    +0.000 C 
BRANCH  11  12
ATOM     12  O   UNL     1       6.437   3.610  14.262  0.00  0.00    +0.000 OA
ATOM     13  H   UNL     1       6.509   3.627  13.280  0.00  0.00    +0.000 HD
ENDBRANCH  11  12
ENDBRANCH   1  11
TORSDOF 2
ENDMDL
MODEL 4
REMARK VINA RESULT:      -5.3      1.550      1.708
REMARK  Name = 
REMARK  2 active torsions:
REMARK  status: ('A' for Active; 'I' for Inactive)
REMARK    1  A    between atoms: C_2  and  O_3
REMARK    2  A    between atoms: C_2  and  C_4
REMARK                            x       y       z     vdW  Elec       q    Type
REMARK                         _______ _______ _______ _____ _____    ______ ____
ROOT
ATOM      1  C   UNL     1       6.083   5.675  18.364  0.00  0.00    +0.000 C 
ATOM      2  C   UNL     1       4.913   6.155  17.494  0.00  0.00    +0.000 C 
ATOM      3  C   UNL     1       3.571   5.463  17.762  0.00  0.00    +0.000 C 
ATOM      4  C   UNL     1       3.571   3.995  17.332  0.00  0.00    +0.000 C 
ATOM      5  C   UNL     1       4.200   3.030  18.344  0.00  0.00    +0.000 C 
ATOM      6  N   UNL     1       5.330   3.553  19.120  0.00  0.00    +0.000 NA
ATOM      7  N   UNL     1       6.312   4.201  18.287  0.00  0.00    +0.000 NA
ATOM      8  H   UNL     1       5.734   2.789  19.672  0.00  0.00    +0.000 HD
ATOM      9  H   UNL     1       6.261   3.908  17.303  0.00  0.00    +0.000 HD
ENDROOT
BRANCH   1  11
ATOM     10  O   UNL     1       7.663   6.700  16.780  0.00  0.00    +0.000 OA
ATOM     11  C   UNL     1       7.387   6.367  17.921  0.00  0.00    +0.000 C 
BRANCH  11  12
ATOM     12  O   UNL     1       8.217   6.611  18.972  0.00  0.00    +0.000 OA
ATOM     13  H   UNL     1       8.371   7.584  19.004  0.00  0.00    +0.000 HD
ENDBRANCH  11  12
ENDBRANCH   1  11
TORSDOF 2
ENDMDL
MODEL 5
REMARK VINA RESULT:      -5.3      0.280      1.028
REMARK  Name = 
REMARK  2 active torsions:
REMARK  status: ('A' for Active; 'I' for Inactive)
REMARK    1  A    between atoms: C_2  and  O_3
REMARK    2  A    between atoms: C_2  and  C_4
REMARK                            x       y       z     vdW  Elec       q    Type
REMARK                         _______ _______ _______ _____ _____    ______ ____
ROOT
ATOM      1  C   UNL     1       5.664   4.689  17.565  0.00  0.00    +0.000 C 
ATOM      2  C   UNL     1       4.650   4.147  16.550  0.00  0.00    +0.000 C 
ATOM      3  C   UNL     1       3.344   3.612  17.150  0.00  0.00    +0.000 C 
ATOM      4  C   UNL     1       3.550   2.328  17.954  0.00  0.00    +0.000 C 
ATOM      5  C   UNL     1       4.049   2.542  19.388  0.00  0.00    +0.000 C 
ATOM      6  N   UNL     1       4.959   3.674  19.593  0.00  0.00    +0.000 NA
ATOM      7  N   UNL     1       6.026   3.700  18.625  0.00  0.00    +0.000 NA
ATOM      8  H   UNL     1       5.310   3.645  20.557  0.00  0.00    +0.000 HD
ATOM      9  H   UNL     1       6.192   2.787  18.184  0.00  0.00    +0.000 HD
ENDROOT
BRANCH   1  11
ATOM     10  O   UNL     1       7.981   4.414  16.782  0.00  0.00    +0.000 OA
ATOM     11  C   UNL     1       6.967   5.091  16.846  0.00  0.00    +0.000 C 
BRANCH  11  12
ATOM     12  O   UNL     1       6.860   6.303  16.237  0.00  0.00    +0.000 OA
ATOM     13  H   UNL     1       7.641   6.838  16.510  0.00  0.00    +0.000 HD
ENDBRANCH  11  12
ENDBRANCH   1  11
TORSDOF 2
ENDMDL
MODEL 6
REMARK VINA RESULT:      -5.3      2.703      3.592
REMARK  Name = 
REMARK  2 active torsions:
REMARK  status: ('A' for Active; 'I' for Inactive)
REMARK    1  A    between atoms: C_2  and  O_3
REMARK    2  A    between atoms: C_2  and  C_4
REMARK                            x       y       z     vdW  Elec       q    Type
REMARK                         _______ _______ _______ _____ _____    ______ ____
ROOT
ATOM      1  C   UNL     1       7.326   5.093  17.795  0.00  0.00    +0.000 C 
ATOM      2  C   UNL     1       5.906   4.529  17.940  0.00  0.00    +0.000 C 
ATOM      3  C   UNL     1       5.339   3.852  16.686  0.00  0.00    +0.000 C 
ATOM      4  C   UNL     1       5.062   4.845  15.557  0.00  0.00    +0.000 C 
ATOM      5  C   UNL     1       6.291   5.225  14.720  0.00  0.00    +0.000 C 
ATOM      6  N   UNL     1       7.567   5.291  15.440  0.00  0.00    +0.000 NA
ATOM      7  N   UNL     1       7.468   6.054  16.660  0.00  0.00    +0.000 NA
ATOM      8  H   UNL     1       8.284   5.662  14.808  0.00  0.00    +0.000 HD
ATOM      9  H   UNL     1       6.668   6.698  16.667  0.00  0.00    +0.000 HD
ENDROOT
BRANCH   1  11
ATOM     10  O   UNL     1       7.561   5.434  20.221  0.00  0.00    +0.000 OA
ATOM     11  C   UNL     1       7.730   5.839  19.082  0.00  0.00    +0.000 C 
BRANCH  11  12
ATOM     12  O   UNL     1       8.349   7.020  18.813  0.00  0.00    +0.000 OA
ATOM     13  H   UNL     1       7.990   7.351  17.957  0.00  0.00    +0.000 HD
ENDBRANCH  11  12
ENDBRANCH   1  11
TORSDOF 2
ENDMDL
MODEL 7
REMARK VINA RESULT:      -5.3      2.714      3.336
REMARK  Name = 
REMARK  2 active torsions:
REMARK  status: ('A' for Active; 'I' for Inactive)
REMARK    1  A    between atoms: C_2  and  O_3
REMARK    2  A    between atoms: C_2  and  C_4
REMARK                            x       y       z     vdW  Elec       q    Type
REMARK                         _______ _______ _______ _____ _____    ______ ____
ROOT
ATOM      1  C   UNL     1       6.501   5.475  18.229  0.00  0.00    +0.000 C 
ATOM      2  C   UNL     1       6.205   6.672  17.316  0.00  0.00    +0.000 C 
ATOM      3  C   UNL     1       5.227   6.394  16.168  0.00  0.00    +0.000 C 
ATOM      4  C   UNL     1       5.813   5.458  15.111  0.00  0.00    +0.000 C 
ATOM      5  C   UNL     1       5.732   3.966  15.458  0.00  0.00    +0.000 C 
ATOM      6  N   UNL     1       5.870   3.626  16.878  0.00  0.00    +0.000 NA
ATOM      7  N   UNL     1       7.001   4.277  17.490  0.00  0.00    +0.000 NA
ATOM      8  H   UNL     1       5.913   2.605  16.971  0.00  0.00    +0.000 HD
ATOM      9  H   UNL     1       7.708   4.578  16.808  0.00  0.00    +0.000 HD
ENDROOT
BRANCH   1  11
ATOM     10  O   UNL     1       7.788   5.272  20.317  0.00  0.00    +0.000 OA
ATOM     11  C   UNL     1       7.575   5.856  19.267  0.00  0.00    +0.000 C 
BRANCH  11  12
ATOM     12  O   UNL     1       8.312   6.928  18.866  0.00  0.00    +0.000 OA
ATOM     13  H   UNL     1       8.251   6.974  17.884  0.00  0.00    +0.000 HD
ENDBRANCH  11  12
ENDBRANCH   1  11
TORSDOF 2
ENDMDL
MODEL 8
REMARK VINA RESULT:      -5.3      2.022      2.468
REMARK  Name = 
REMARK  2 active torsions:
REMARK  status: ('A' for Active; 'I' for Inactive)
REMARK    1  A    between atoms: C_2  and  O_3
REMARK    2  A    between atoms: C_2  and  C_4
REMARK                            x       y       z     vdW  Elec       q    Type
REMARK                         _______ _______ _______ _____ _____    ______ ____
ROOT
ATOM      1  C   UNL     1       6.456   5.103  16.033  0.00  0.00    +0.000 C 
ATOM      2  C   UNL     1       5.217   6.007  15.994  0.00  0.00    +0.000 C 
ATOM      3  C   UNL     1       4.629   6.374  17.362  0.00  0.00    +0.000 C 
ATOM      4  C   UNL     1       3.998   5.174  18.070  0.00  0.00    +0.000 C 
ATOM      5  C   UNL     1       4.991   4.269  18.809  0.00  0.00    +0.000 C 
ATOM      6  N   UNL     1       6.315   4.127  18.194  0.00  0.00    +0.000 NA
ATOM      7  N   UNL     1       6.236   3.831  16.785  0.00  0.00    +0.000 NA
ATOM      8  H   UNL     1       6.845   3.416  18.710  0.00  0.00    +0.000 HD
ATOM      9  H   UNL     1       5.330   3.434  16.509  0.00  0.00    +0.000 HD
ENDROOT
BRANCH   1  11
ATOM     10  O   UNL     1       6.388   3.828  13.930  0.00  0.00    +0.000 OA
ATOM     11  C   UNL     1       6.877   4.723  14.600  0.00  0.00    +0.000 C 
BRANCH  11  12
ATOM     12  O   UNL     1       7.858   5.537  14.125  0.00  0.00    +0.000 OA
ATOM     13  H   UNL     1       8.436   5.774  14.887  0.00  0.00    +0.000 HD
ENDBRANCH  11  12
ENDBRANCH   1  11
TORSDOF 2
ENDMDL
MODEL 9
REMARK VINA RESULT:      -5.2      1.393      1.740
REMARK  Name = 
REMARK  2 active torsions:
REMARK  status: ('A' for Active; 'I' for Inactive)
REMARK    1  A    between atoms: C_2  and  O_3
REMARK    2  A    between atoms: C_2  and  C_4
REMARK                            x       y       z     vdW  Elec       q    Type
REMARK                         _______ _______ _______ _____ _____    ______ ____
ROOT
ATOM      1  C   UNL     1       5.881   4.555  17.751  0.00  0.00    +0.000 C 
ATOM      2  C   UNL     1       5.015   5.801  17.982  0.00  0.00    +0.000 C 
ATOM      3  C   UNL     1       3.653   5.540  18.637  0.00  0.00    +0.000 C 
ATOM      4  C   UNL     1       2.696   4.780  17.718  0.00  0.00    +0.000 C 
ATOM      5  C   UNL     1       2.903   3.261  17.690  0.00  0.00    +0.000 C 
ATOM      6  N   UNL     1       4.287   2.796  17.831  0.00  0.00    +0.000 NA
ATOM      7  N   UNL     1       5.192   3.496  16.954  0.00  0.00    +0.000 NA
ATOM      8  H   UNL     1       4.311   1.781  17.683  0.00  0.00    +0.000 HD
ATOM      9  H   UNL     1       4.718   3.936  16.156  0.00  0.00    +0.000 HD
ENDROOT
BRANCH   1  11
ATOM     10  O   UNL     1       7.289   5.895  16.241  0.00  0.00    +0.000 OA
ATOM     11  C   UNL     1       7.166   4.940  16.991  0.00  0.00    +0.000 C 
BRANCH  11  12
ATOM     12  O   UNL     1       8.197   4.099  17.277  0.00  0.00    +0.000 OA
ATOM     13  H   UNL     1       7.844   3.180  17.241  0.00  0.00    +0.000 HD
ENDBRANCH  11  12
ENDBRANCH   1  11
TORSDOF 2
ENDMDL
