MODEL 1
REMARK VINA RESULT:      -6.2      0.000      0.000
REMARK  Name = 
REMARK  10 active torsions:
REMARK  status: ('A' for Active; 'I' for Inactive)
REMARK    1  A    between atoms: C_1  and  C_2
REMARK    2  A    between atoms: C_2  and  N_3
REMARK    3  A    between atoms: N_3  and  C_4
REMARK    4  A    between atoms: N_3  and  C_6
REMARK    5  A    between atoms: C_4  and  C_5
REMARK    6  A    between atoms: C_6  and  C_7
REMARK    7  A    between atoms: C_7  and  C_8
REMARK    8  A    between atoms: C_8  and  C_9
REMARK    9  A    between atoms: C_9  and  O_10
REMARK   10  A    between atoms: O_10  and  C_11
REMARK                            x       y       z     vdW  Elec       q    Type
REMARK                         _______ _______ _______ _____ _____    ______ ____
ROOT
ATOM      1  C   UNL     1       4.041   3.010  18.647  0.00  0.00    +0.000 A 
ATOM      2  C   UNL     1       3.778   3.113  17.278  0.00  0.00    +0.000 A 
ATOM      3  C   UNL     1       4.532   3.970  16.471  0.00  0.00    +0.000 A 
ATOM      4  C   UNL     1       5.548   4.744  17.037  0.00  0.00    +0.000 A 
ATOM      5  C   UNL     1       5.806   4.635  18.408  0.00  0.00    +0.000 A 
ATOM      6  C   UNL     1       5.065   3.769  19.211  0.00  0.00    +0.000 A 
ATOM      7  N   UNL     1       6.843   5.382  18.977  0.00  0.00    +0.000 N 
ATOM      8  C   UNL     1       7.513   6.382  18.325  0.00  0.00    +0.000 C 
ATOM      9  O   UNL     1       8.445   6.974  18.864  0.00  0.00    +0.000 OA
ATOM     10  C   UNL     1       6.958   6.795  16.982  0.00  0.00    +0.000 C 
ATOM     11  C   UNL     1       6.442   5.604  16.190  0.00  0.00    +0.000 C 
ATOM     12  H   UNL     1       7.131   5.209  19.932  0.00  0.00    +0.000 HD
ENDROOT
BRANCH   1  13
ATOM     13  O   UNL     1       3.238   2.132  19.316  0.00  0.00    +0.000 OA
BRANCH  13  14
ATOM     14  C   UNL     1       1.827   2.258  19.124  0.00  0.00    +0.000 C 
BRANCH  14  15
ATOM     15  C   UNL     1       1.202   2.680  20.449  0.00  0.00    +0.000 C 
BRANCH  15  16
ATOM     16  C   UNL     1       0.908   4.184  20.522  0.00  0.00    +0.000 C 
BRANCH  16  17
ATOM     17  C   UNL     1       2.105   5.054  20.943  0.00  0.00    +0.000 C 
BRANCH  17  18
ATOM     18  N   UNL     1       2.176   6.368  20.271  0.00  0.00    +0.000 NA
BRANCH  18  20
ATOM     19  C   UNL     1       3.007   7.333  18.084  0.00  0.00    +0.000 C 
ATOM     20  C   UNL     1       2.261   6.217  18.807  0.00  0.00    +0.000 C 
ENDBRANCH  18  20
BRANCH  18  21
ATOM     21  C   UNL     1       1.090   7.259  20.717  0.00  0.00    +0.000 C 
ATOM     22  C   UNL     1       1.508   8.631  21.242  0.00  0.00    +0.000 C 
ENDBRANCH  18  21
ENDBRANCH  17  18
ENDBRANCH  16  17
ENDBRANCH  15  16
ENDBRANCH  14  15
ENDBRANCH  13  14
ENDBRANCH   1  13
TORSDOF 8
ENDMDL
MODEL 2
REMARK VINA RESULT:      -6.2      3.689      7.335
REMARK  Name = 
REMARK  10 active torsions:
REMARK  status: ('A' for Active; 'I' for Inactive)
REMARK    1  A    between atoms: C_1  and  C_2
REMARK    2  A    between atoms: C_2  and  N_3
REMARK    3  A    between atoms: N_3  and  C_4
REMARK    4  A    between atoms: N_3  and  C_6
REMARK    5  A    between atoms: C_4  and  C_5
REMARK    6  A    between atoms: C_6  and  C_7
REMARK    7  A    between atoms: C_7  and  C_8
REMARK    8  A    between atoms: C_8  and  C_9
REMARK    9  A    between atoms: C_9  and  O_10
REMARK   10  A    between atoms: O_10  and  C_11
REMARK                            x       y       z     vdW  Elec       q    Type
REMARK                         _______ _______ _______ _____ _____    ______ ____
ROOT
ATOM      1  C   UNL     1       4.933   4.423  17.570  0.00  0.00    +0.000 A 
ATOM      2  C   UNL     1       4.146   5.551  17.319  0.00  0.00    +0.000 A 
ATOM      3  C   UNL     1       3.034   5.836  18.118  0.00  0.00    +0.000 A 
ATOM      4  C   UNL     1       2.694   4.978  19.166  0.00  0.00    +0.000 A 
ATOM      5  C   UNL     1       3.486   3.851  19.412  0.00  0.00    +0.000 A 
ATOM      6  C   UNL     1       4.603   3.575  18.626  0.00  0.00    +0.000 A 
ATOM      7  N   UNL     1       3.171   3.004  20.480  0.00  0.00    +0.000 N 
ATOM      8  C   UNL     1       2.009   3.082  21.201  0.00  0.00    +0.000 C 
ATOM      9  O   UNL     1       1.808   2.337  22.157  0.00  0.00    +0.000 OA
ATOM     10  C   UNL     1       0.955   4.026  20.673  0.00  0.00    +0.000 C 
ATOM     11  C   UNL     1       1.565   5.298  20.106  0.00  0.00    +0.000 C 
ATOM     12  H   UNL     1       3.811   2.270  20.755  0.00  0.00    +0.000 HD
ENDROOT
BRANCH   1  13
ATOM     13  O   UNL     1       5.991   4.267  16.722  0.00  0.00    +0.000 OA
BRANCH  13  14
ATOM     14  C   UNL     1       6.298   5.358  15.851  0.00  0.00    +0.000 C 
BRANCH  14  15
ATOM     15  C   UNL     1       7.003   4.799  14.619  0.00  0.00    +0.000 C 
BRANCH  15  16
ATOM     16  C   UNL     1       6.089   3.930  13.746  0.00  0.00    +0.000 C 
BRANCH  16  17
ATOM     17  C   UNL     1       6.618   3.663  12.326  0.00  0.00    +0.000 C 
BRANCH  17  18
ATOM     18  N   UNL     1       5.630   3.069  11.403  0.00  0.00    +0.000 NA
BRANCH  18  20
ATOM     19  C   UNL     1       7.041   1.007  11.004  0.00  0.00    +0.000 C 
ATOM     20  C   UNL     1       5.698   1.597  11.420  0.00  0.00    +0.000 C 
ENDBRANCH  18  20
BRANCH  18  21
ATOM     21  C   UNL     1       4.279   3.607  11.644  0.00  0.00    +0.000 C 
ATOM     22  C   UNL     1       3.302   3.547  10.472  0.00  0.00    +0.000 C 
ENDBRANCH  18  21
ENDBRANCH  17  18
ENDBRANCH  16  17
ENDBRANCH  15  16
ENDBRANCH  14  15
ENDBRANCH  13  14
ENDBRANCH   1  13
TORSDOF 8
ENDMDL
MODEL 3
REMARK VINA RESULT:      -6.1      2.799      6.233
REMARK  Name = 
REMARK  10 active torsions:
REMARK  status: ('A' for Active; 'I' for Inactive)
REMARK    1  A    between atoms: C_1  and  C_2
REMARK    2  A    between atoms: C_2  and  N_3
REMARK    3  A    between atoms: N_3  and  C_4
REMARK    4  A    between atoms: N_3  and  C_6
REMARK    5  A    between atoms: C_4  and  C_5
REMARK    6  A    between atoms: C_6  and  C_7
REMARK    7  A    between atoms: C_7  and  C_8
REMARK    8  A    between atoms: C_8  and  C_9
REMARK    9  A    between atoms: C_9  and  O_10
REMARK   10  A    between atoms: O_10  and  C_11
REMARK                            x       y       z     vdW  Elec       q    Type
REMARK                         _______ _______ _______ _____ _____    ______ ____
ROOT
ATOM      1  C   UNL     1       2.342   7.100  18.732  0.00  0.00    +0.000 A 
ATOM      2  C   UNL     1       1.972   8.121  17.851  0.00  0.00    +0.000 A 
ATOM      3  C   UNL     1       1.372   9.290  18.328  0.00  0.00    +0.000 A 
ATOM      4  C   UNL     1       1.124   9.436  19.695  0.00  0.00    +0.000 A 
ATOM      5  C   UNL     1       1.497   8.410  20.571  0.00  0.00    +0.000 A 
ATOM      6  C   UNL     1       2.109   7.251  20.098  0.00  0.00    +0.000 A 
ATOM      7  N   UNL     1       1.281   8.562  21.944  0.00  0.00    +0.000 N 
ATOM      8  C   UNL     1       0.538   9.572  22.495  0.00  0.00    +0.000 C 
ATOM      9  O   UNL     1       0.420   9.677  23.714  0.00  0.00    +0.000 OA
ATOM     10  C   UNL     1      -0.223  10.448  21.528  0.00  0.00    +0.000 C 
ATOM     11  C   UNL     1       0.569  10.714  20.258  0.00  0.00    +0.000 C 
ATOM     12  H   UNL     1       1.671   7.896  22.599  0.00  0.00    +0.000 HD
ENDROOT
BRANCH   1  13
ATOM     13  O   UNL     1       2.924   6.018  18.137  0.00  0.00    +0.000 OA
BRANCH  13  14
ATOM     14  C   UNL     1       4.183   6.224  17.491  0.00  0.00    +0.000 C 
BRANCH  14  15
ATOM     15  C   UNL     1       5.182   5.226  18.067  0.00  0.00    +0.000 C 
BRANCH  15  16
ATOM     16  C   UNL     1       4.711   4.595  19.383  0.00  0.00    +0.000 C 
BRANCH  16  17
ATOM     17  C   UNL     1       4.497   3.072  19.326  0.00  0.00    +0.000 C 
BRANCH  17  18
ATOM     18  N   UNL     1       3.186   2.616  19.834  0.00  0.00    +0.000 NA
BRANCH  18  20
ATOM     19  C   UNL     1       1.099   3.745  20.711  0.00  0.00    +0.000 C 
ATOM     20  C   UNL     1       2.613   3.586  20.784  0.00  0.00    +0.000 C 
ENDBRANCH  18  20
BRANCH  18  21
ATOM     21  C   UNL     1       2.279   2.253  18.730  0.00  0.00    +0.000 C 
ATOM     22  C   UNL     1       2.863   2.316  17.320  0.00  0.00    +0.000 C 
ENDBRANCH  18  21
ENDBRANCH  17  18
ENDBRANCH  16  17
ENDBRANCH  15  16
ENDBRANCH  14  15
ENDBRANCH  13  14
ENDBRANCH   1  13
TORSDOF 8
ENDMDL
MODEL 4
REMARK VINA RESULT:      -6.1      3.639      7.291
REMARK  Name = 
REMARK  10 active torsions:
REMARK  status: ('A' for Active; 'I' for Inactive)
REMARK    1  A    between atoms: C_1  and  C_2
REMARK    2  A    between atoms: C_2  and  N_3
REMARK    3  A    between atoms: N_3  and  C_4
REMARK    4  A    between atoms: N_3  and  C_6
REMARK    5  A    between atoms: C_4  and  C_5
REMARK    6  A    between atoms: C_6  and  C_7
REMARK    7  A    between atoms: C_7  and  C_8
REMARK    8  A    between atoms: C_8  and  C_9
REMARK    9  A    between atoms: C_9  and  O_10
REMARK   10  A    between atoms: O_10  and  C_11
REMARK                            x       y       z     vdW  Elec       q    Type
REMARK                         _______ _______ _______ _____ _____    ______ ____
ROOT
ATOM      1  C   UNL     1       5.163   4.406  17.533  0.00  0.00    +0.000 A 
ATOM      2  C   UNL     1       4.532   5.635  17.313  0.00  0.00    +0.000 A 
ATOM      3  C   UNL     1       3.485   6.055  18.139  0.00  0.00    +0.000 A 
ATOM      4  C   UNL     1       3.053   5.236  19.184  0.00  0.00    +0.000 A 
ATOM      5  C   UNL     1       3.689   4.008  19.398  0.00  0.00    +0.000 A 
ATOM      6  C   UNL     1       4.742   3.595  18.585  0.00  0.00    +0.000 A 
ATOM      7  N   UNL     1       3.282   3.196  20.462  0.00  0.00    +0.000 N 
ATOM      8  C   UNL     1       2.156   3.420  21.209  0.00  0.00    +0.000 C 
ATOM      9  O   UNL     1       1.875   2.695  22.160  0.00  0.00    +0.000 OA
ATOM     10  C   UNL     1       1.231   4.507  20.716  0.00  0.00    +0.000 C 
ATOM     11  C   UNL     1       1.997   5.692  20.151  0.00  0.00    +0.000 C 
ATOM     12  H   UNL     1       3.822   2.378  20.714  0.00  0.00    +0.000 HD
ENDROOT
BRANCH   1  13
ATOM     13  O   UNL     1       6.174   4.122  16.660  0.00  0.00    +0.000 OA
BRANCH  13  14
ATOM     14  C   UNL     1       6.905   5.225  16.123  0.00  0.00    +0.000 C 
BRANCH  14  15
ATOM     15  C   UNL     1       6.914   5.095  14.603  0.00  0.00    +0.000 C 
BRANCH  15  16
ATOM     16  C   UNL     1       6.309   3.775  14.109  0.00  0.00    +0.000 C 
BRANCH  16  17
ATOM     17  C   UNL     1       6.286   3.610  12.580  0.00  0.00    +0.000 C 
BRANCH  17  18
ATOM     18  N   UNL     1       5.162   2.800  12.066  0.00  0.00    +0.000 NA
BRANCH  18  20
ATOM     19  C   UNL     1       3.402   3.195  10.292  0.00  0.00    +0.000 C 
ATOM     20  C   UNL     1       4.061   3.653  11.588  0.00  0.00    +0.000 C 
ENDBRANCH  18  20
BRANCH  18  21
ATOM     21  C   UNL     1       5.623   1.809  11.076  0.00  0.00    +0.000 C 
ATOM     22  C   UNL     1       7.126   1.542  11.029  0.00  0.00    +0.000 C 
ENDBRANCH  18  21
ENDBRANCH  17  18
ENDBRANCH  16  17
ENDBRANCH  15  16
ENDBRANCH  14  15
ENDBRANCH  13  14
ENDBRANCH   1  13
TORSDOF 8
ENDMDL
MODEL 5
REMARK VINA RESULT:      -6.0      2.087      3.579
REMARK  Name = 
REMARK  10 active torsions:
REMARK  status: ('A' for Active; 'I' for Inactive)
REMARK    1  A    between atoms: C_1  and  C_2
REMARK    2  A    between atoms: C_2  and  N_3
REMARK    3  A    between atoms: N_3  and  C_4
REMARK    4  A    between atoms: N_3  and  C_6
REMARK    5  A    between atoms: C_4  and  C_5
REMARK    6  A    between atoms: C_6  and  C_7
REMARK    7  A    between atoms: C_7  and  C_8
REMARK    8  A    between atoms: C_8  and  C_9
REMARK    9  A    between atoms: C_9  and  O_10
REMARK   10  A    between atoms: O_10  and  C_11
REMARK                            x       y       z     vdW  Elec       q    Type
REMARK                         _______ _______ _______ _____ _____    ______ ____
ROOT
ATOM      1  C   UNL     1       3.074   6.114  19.483  0.00  0.00    +0.000 A 
ATOM      2  C   UNL     1       2.820   6.926  18.373  0.00  0.00    +0.000 A 
ATOM      3  C   UNL     1       3.741   7.006  17.324  0.00  0.00    +0.000 A 
ATOM      4  C   UNL     1       4.934   6.282  17.390  0.00  0.00    +0.000 A 
ATOM      5  C   UNL     1       5.181   5.470  18.503  0.00  0.00    +0.000 A 
ATOM      6  C   UNL     1       4.256   5.378  19.542  0.00  0.00    +0.000 A 
ATOM      7  N   UNL     1       6.358   4.717  18.561  0.00  0.00    +0.000 N 
ATOM      8  C   UNL     1       7.404   4.863  17.689  0.00  0.00    +0.000 C 
ATOM      9  O   UNL     1       8.395   4.140  17.766  0.00  0.00    +0.000 OA
ATOM     10  C   UNL     1       7.323   6.032  16.737  0.00  0.00    +0.000 C 
ATOM     11  C   UNL     1       5.904   6.265  16.243  0.00  0.00    +0.000 C 
ATOM     12  H   UNL     1       6.484   4.023  19.288  0.00  0.00    +0.000 HD
ENDROOT
BRANCH   1  13
ATOM     13  O   UNL     1       2.090   6.121  20.430  0.00  0.00    +0.000 OA
BRANCH  13  14
ATOM     14  C   UNL     1       1.197   5.006  20.454  0.00  0.00    +0.000 C 
BRANCH  14  15
ATOM     15  C   UNL     1       1.709   4.008  21.488  0.00  0.00    +0.000 C 
BRANCH  15  16
ATOM     16  C   UNL     1       1.530   2.548  21.054  0.00  0.00    +0.000 C 
BRANCH  16  17
ATOM     17  C   UNL     1       1.775   2.287  19.557  0.00  0.00    +0.000 C 
BRANCH  17  18
ATOM     18  N   UNL     1       3.132   1.800  19.232  0.00  0.00    +0.000 NA
BRANCH  18  20
ATOM     19  C   UNL     1       2.587   3.163  17.172  0.00  0.00    +0.000 C 
ATOM     20  C   UNL     1       3.525   2.181  17.864  0.00  0.00    +0.000 C 
ENDBRANCH  18  20
BRANCH  18  21
ATOM     21  C   UNL     1       4.106   2.197  20.265  0.00  0.00    +0.000 C 
ATOM     22  C   UNL     1       5.140   1.147  20.666  0.00  0.00    +0.000 C 
ENDBRANCH  18  21
ENDBRANCH  17  18
ENDBRANCH  16  17
ENDBRANCH  15  16
ENDBRANCH  14  15
ENDBRANCH  13  14
ENDBRANCH   1  13
TORSDOF 8
ENDMDL
MODEL 6
REMARK VINA RESULT:      -6.0      4.147      7.533
REMARK  Name = 
REMARK  10 active torsions:
REMARK  status: ('A' for Active; 'I' for Inactive)
REMARK    1  A    between atoms: C_1  and  C_2
REMARK    2  A    between atoms: C_2  and  N_3
REMARK    3  A    between atoms: N_3  and  C_4
REMARK    4  A    between atoms: N_3  and  C_6
REMARK    5  A    between atoms: C_4  and  C_5
REMARK    6  A    between atoms: C_6  and  C_7
REMARK    7  A    between atoms: C_7  and  C_8
REMARK    8  A    between atoms: C_8  and  C_9
REMARK    9  A    between atoms: C_9  and  O_10
REMARK   10  A    between atoms: O_10  and  C_11
REMARK                            x       y       z     vdW  Elec       q    Type
REMARK                         _______ _______ _______ _____ _____    ______ ____
ROOT
ATOM      1  C   UNL     1       6.512   6.116  17.358  0.00  0.00    +0.000 A 
ATOM      2  C   UNL     1       5.408   6.935  17.099  0.00  0.00    +0.000 A 
ATOM      3  C   UNL     1       4.108   6.432  17.200  0.00  0.00    +0.000 A 
ATOM      4  C   UNL     1       3.906   5.094  17.547  0.00  0.00    +0.000 A 
ATOM      5  C   UNL     1       5.014   4.280  17.806  0.00  0.00    +0.000 A 
ATOM      6  C   UNL     1       6.310   4.785  17.721  0.00  0.00    +0.000 A 
ATOM      7  N   UNL     1       4.819   2.948  18.186  0.00  0.00    +0.000 N 
ATOM      8  C   UNL     1       3.610   2.306  18.133  0.00  0.00    +0.000 C 
ATOM      9  O   UNL     1       3.494   1.146  18.522  0.00  0.00    +0.000 OA
ATOM     10  C   UNL     1       2.486   3.051  17.455  0.00  0.00    +0.000 C 
ATOM     11  C   UNL     1       2.525   4.540  17.760  0.00  0.00    +0.000 C 
ATOM     12  H   UNL     1       5.599   2.390  18.511  0.00  0.00    +0.000 HD
ENDROOT
BRANCH   1  13
ATOM     13  O   UNL     1       7.722   6.734  17.231  0.00  0.00    +0.000 OA
BRANCH  13  14
ATOM     14  C   UNL     1       8.142   7.579  18.305  0.00  0.00    +0.000 C 
BRANCH  14  15
ATOM     15  C   UNL     1       8.073   9.026  17.826  0.00  0.00    +0.000 C 
BRANCH  15  16
ATOM     16  C   UNL     1       9.019   9.958  18.593  0.00  0.00    +0.000 C 
BRANCH  16  17
ATOM     17  C   UNL     1       8.994  11.424  18.128  0.00  0.00    +0.000 C 
BRANCH  17  18
ATOM     18  N   UNL     1      10.061  12.270  18.704  0.00  0.00    +0.000 NA
BRANCH  18  20
ATOM     19  C   UNL     1      10.463  13.512  20.872  0.00  0.00    +0.000 C 
ATOM     20  C   UNL     1      10.046  12.220  20.177  0.00  0.00    +0.000 C 
ENDBRANCH  18  20
BRANCH  18  21
ATOM     21  C   UNL     1      11.373  11.959  18.109  0.00  0.00    +0.000 C 
ATOM     22  C   UNL     1      11.964  13.013  17.175  0.00  0.00    +0.000 C 
ENDBRANCH  18  21
ENDBRANCH  17  18
ENDBRANCH  16  17
ENDBRANCH  15  16
ENDBRANCH  14  15
ENDBRANCH  13  14
ENDBRANCH   1  13
TORSDOF 8
ENDMDL
MODEL 7
REMARK VINA RESULT:      -6.0      2.845      6.252
REMARK  Name = 
REMARK  10 active torsions:
REMARK  status: ('A' for Active; 'I' for Inactive)
REMARK    1  A    between atoms: C_1  and  C_2
REMARK    2  A    between atoms: C_2  and  N_3
REMARK    3  A    between atoms: N_3  and  C_4
REMARK    4  A    between atoms: N_3  and  C_6
REMARK    5  A    between atoms: C_4  and  C_5
REMARK    6  A    between atoms: C_6  and  C_7
REMARK    7  A    between atoms: C_7  and  C_8
REMARK    8  A    between atoms: C_8  and  C_9
REMARK    9  A    between atoms: C_9  and  O_10
REMARK   10  A    between atoms: O_10  and  C_11
REMARK                            x       y       z     vdW  Elec       q    Type
REMARK                         _______ _______ _______ _____ _____    ______ ____
ROOT
ATOM      1  C   UNL     1       2.315   7.514  18.468  0.00  0.00    +0.000 A 
ATOM      2  C   UNL     1       1.862   8.592  17.700  0.00  0.00    +0.000 A 
ATOM      3  C   UNL     1       1.231   9.683  18.307  0.00  0.00    +0.000 A 
ATOM      4  C   UNL     1       1.035   9.691  19.690  0.00  0.00    +0.000 A 
ATOM      5  C   UNL     1       1.491   8.609  20.452  0.00  0.00    +0.000 A 
ATOM      6  C   UNL     1       2.133   7.529  19.850  0.00  0.00    +0.000 A 
ATOM      7  N   UNL     1       1.327   8.624  21.840  0.00  0.00    +0.000 N 
ATOM      8  C   UNL     1       0.564   9.542  22.511  0.00  0.00    +0.000 C 
ATOM      9  O   UNL     1       0.493   9.530  23.738  0.00  0.00    +0.000 OA
ATOM     10  C   UNL     1      -0.276  10.465  21.660  0.00  0.00    +0.000 C 
ATOM     11  C   UNL     1       0.449  10.884  20.391  0.00  0.00    +0.000 C 
ATOM     12  H   UNL     1       1.774   7.920  22.415  0.00  0.00    +0.000 HD
ENDROOT
BRANCH   1  13
ATOM     13  O   UNL     1       2.919   6.521  17.752  0.00  0.00    +0.000 OA
BRANCH  13  14
ATOM     14  C   UNL     1       4.313   6.668  17.476  0.00  0.00    +0.000 C 
BRANCH  14  15
ATOM     15  C   UNL     1       4.853   5.317  17.017  0.00  0.00    +0.000 C 
BRANCH  15  16
ATOM     16  C   UNL     1       3.837   4.179  17.178  0.00  0.00    +0.000 C 
BRANCH  16  17
ATOM     17  C   UNL     1       3.950   3.398  18.499  0.00  0.00    +0.000 C 
BRANCH  17  18
ATOM     18  N   UNL     1       2.844   3.637  19.450  0.00  0.00    +0.000 NA
BRANCH  18  20
ATOM     19  C   UNL     1       0.857   2.283  18.663  0.00  0.00    +0.000 C 
ATOM     20  C   UNL     1       1.540   3.642  18.765  0.00  0.00    +0.000 C 
ENDBRANCH  18  20
BRANCH  18  21
ATOM     21  C   UNL     1       2.914   2.712  20.596  0.00  0.00    +0.000 C 
ATOM     22  C   UNL     1       2.132   3.116  21.845  0.00  0.00    +0.000 C 
ENDBRANCH  18  21
ENDBRANCH  17  18
ENDBRANCH  16  17
ENDBRANCH  15  16
ENDBRANCH  14  15
ENDBRANCH  13  14
ENDBRANCH   1  13
TORSDOF 8
ENDMDL
MODEL 8
REMARK VINA RESULT:      -5.9      2.930      6.844
REMARK  Name = 
REMARK  10 active torsions:
REMARK  status: ('A' for Active; 'I' for Inactive)
REMARK    1  A    between atoms: C_1  and  C_2
REMARK    2  A    between atoms: C_2  and  N_3
REMARK    3  A    between atoms: N_3  and  C_4
REMARK    4  A    between atoms: N_3  and  C_6
REMARK    5  A    between atoms: C_4  and  C_5
REMARK    6  A    between atoms: C_6  and  C_7
REMARK    7  A    between atoms: C_7  and  C_8
REMARK    8  A    between atoms: C_8  and  C_9
REMARK    9  A    between atoms: C_9  and  O_10
REMARK   10  A    between atoms: O_10  and  C_11
REMARK                            x       y       z     vdW  Elec       q    Type
REMARK                         _______ _______ _______ _____ _____    ______ ____
ROOT
ATOM      1  C   UNL     1       2.352   7.396  18.583  0.00  0.00    +0.000 A 
ATOM      2  C   UNL     1       1.861   8.401  17.743  0.00  0.00    +0.000 A 
ATOM      3  C   UNL     1       1.164   9.492  18.270  0.00  0.00    +0.000 A 
ATOM      4  C   UNL     1       0.940   9.574  19.646  0.00  0.00    +0.000 A 
ATOM      5  C   UNL     1       1.434   8.566  20.481  0.00  0.00    +0.000 A 
ATOM      6  C   UNL     1       2.142   7.486  19.958  0.00  0.00    +0.000 A 
ATOM      7  N   UNL     1       1.241   8.657  21.864  0.00  0.00    +0.000 N 
ATOM      8  C   UNL     1       0.419   9.574  22.463  0.00  0.00    +0.000 C 
ATOM      9  O   UNL     1       0.325   9.633  23.687  0.00  0.00    +0.000 OA
ATOM     10  C   UNL     1      -0.449  10.398  21.542  0.00  0.00    +0.000 C 
ATOM     11  C   UNL     1       0.279  10.776  20.262  0.00  0.00    +0.000 C 
ATOM     12  H   UNL     1       1.711   8.014  22.488  0.00  0.00    +0.000 HD
ENDROOT
BRANCH   1  13
ATOM     13  O   UNL     1       3.020   6.394  17.942  0.00  0.00    +0.000 OA
BRANCH  13  14
ATOM     14  C   UNL     1       3.929   5.611  18.718  0.00  0.00    +0.000 C 
BRANCH  14  15
ATOM     15  C   UNL     1       3.822   4.161  18.257  0.00  0.00    +0.000 C 
BRANCH  15  16
ATOM     16  C   UNL     1       4.112   3.983  16.761  0.00  0.00    +0.000 C 
BRANCH  16  17
ATOM     17  C   UNL     1       5.606   3.896  16.401  0.00  0.00    +0.000 C 
BRANCH  17  18
ATOM     18  N   UNL     1       6.179   5.143  15.852  0.00  0.00    +0.000 NA
BRANCH  18  20
ATOM     19  C   UNL     1       7.547   4.877  17.964  0.00  0.00    +0.000 C 
ATOM     20  C   UNL     1       7.113   5.767  16.805  0.00  0.00    +0.000 C 
ENDBRANCH  18  20
BRANCH  18  21
ATOM     21  C   UNL     1       6.749   4.925  14.510  0.00  0.00    +0.000 C 
ATOM     22  C   UNL     1       6.080   3.855  13.651  0.00  0.00    +0.000 C 
ENDBRANCH  18  21
ENDBRANCH  17  18
ENDBRANCH  16  17
ENDBRANCH  15  16
ENDBRANCH  14  15
ENDBRANCH  13  14
ENDBRANCH   1  13
TORSDOF 8
ENDMDL
MODEL 9
REMARK VINA RESULT:      -5.9      2.800      6.502
REMARK  Name = 
REMARK  10 active torsions:
REMARK  status: ('A' for Active; 'I' for Inactive)
REMARK    1  A    between atoms: C_1  and  C_2
REMARK    2  A    between atoms: C_2  and  N_3
REMARK    3  A    between atoms: N_3  and  C_4
REMARK    4  A    between atoms: N_3  and  C_6
REMARK    5  A    between atoms: C_4  and  C_5
REMARK    6  A    between atoms: C_6  and  C_7
REMARK    7  A    between atoms: C_7  and  C_8
REMARK    8  A    between atoms: C_8  and  C_9
REMARK    9  A    between atoms: C_9  and  O_10
REMARK   10  A    between atoms: O_10  and  C_11
REMARK                            x       y       z     vdW  Elec       q    Type
REMARK                         _______ _______ _______ _____ _____    ______ ____
ROOT
ATOM      1  C   UNL     1       2.305   7.076  18.709  0.00  0.00    +0.000 A 
ATOM      2  C   UNL     1       2.008   8.136  17.846  0.00  0.00    +0.000 A 
ATOM      3  C   UNL     1       1.456   9.322  18.339  0.00  0.00    +0.000 A 
ATOM      4  C   UNL     1       1.182   9.447  19.702  0.00  0.00    +0.000 A 
ATOM      5  C   UNL     1       1.482   8.383  20.560  0.00  0.00    +0.000 A 
ATOM      6  C   UNL     1       2.046   7.206  20.073  0.00  0.00    +0.000 A 
ATOM      7  N   UNL     1       1.240   8.512  21.932  0.00  0.00    +0.000 N 
ATOM      8  C   UNL     1       0.535   9.545  22.491  0.00  0.00    +0.000 C 
ATOM      9  O   UNL     1       0.393   9.626  23.709  0.00  0.00    +0.000 OA
ATOM     10  C   UNL     1      -0.157  10.481  21.529  0.00  0.00    +0.000 C 
ATOM     11  C   UNL     1       0.679  10.737  20.285  0.00  0.00    +0.000 C 
ATOM     12  H   UNL     1       1.580   7.811  22.578  0.00  0.00    +0.000 HD
ENDROOT
BRANCH   1  13
ATOM     13  O   UNL     1       2.847   5.981  18.100  0.00  0.00    +0.000 OA
BRANCH  13  14
ATOM     14  C   UNL     1       2.060   4.788  18.078  0.00  0.00    +0.000 C 
BRANCH  14  15
ATOM     15  C   UNL     1       2.835   3.722  17.309  0.00  0.00    +0.000 C 
BRANCH  15  16
ATOM     16  C   UNL     1       4.354   3.922  17.372  0.00  0.00    +0.000 C 
BRANCH  16  17
ATOM     17  C   UNL     1       5.033   4.125  16.006  0.00  0.00    +0.000 C 
BRANCH  17  18
ATOM     18  N   UNL     1       6.304   4.877  16.057  0.00  0.00    +0.000 NA
BRANCH  18  20
ATOM     19  C   UNL     1       6.458   4.015  13.683  0.00  0.00    +0.000 C 
ATOM     20  C   UNL     1       6.871   5.064  14.710  0.00  0.00    +0.000 C 
ENDBRANCH  18  20
BRANCH  18  21
ATOM     21  C   UNL     1       6.157   6.128  16.822  0.00  0.00    +0.000 C 
ATOM     22  C   UNL     1       7.443   6.754  17.359  0.00  0.00    +0.000 C 
ENDBRANCH  18  21
ENDBRANCH  17  18
ENDBRANCH  16  17
ENDBRANCH  15  16
ENDBRANCH  14  15
ENDBRANCH  13  14
ENDBRANCH   1  13
TORSDOF 8
ENDMDL
