MODEL 1
REMARK VINA RESULT:      -8.2      0.000      0.000
REMARK  Name = 
REMARK  8 active torsions:
REMARK  status: ('A' for Active; 'I' for Inactive)
REMARK    1  A    between atoms: C_1  and  O_2
REMARK    2  A    between atoms: O_2  and  C_3
REMARK    3  A    between atoms: C_3  and  C_5
REMARK    4  A    between atoms: C_12  and  C_13
REMARK    5  A    between atoms: C_16  and  O_17
REMARK    6  A    between atoms: O_17  and  C_18
REMARK    7  A    between atoms: C_19  and  O_20
REMARK    8  A    between atoms: O_20  and  C_21
REMARK                            x       y       z     vdW  Elec       q    Type
REMARK                         _______ _______ _______ _____ _____    ______ ____
ROOT
ATOM      1  C   UNL     1       6.516   4.244  16.240  0.00  0.00    +0.000 C 
ATOM      2  C   UNL     1       7.110   4.289  14.839  0.00  0.00    +0.000 C 
ATOM      3  N   UNL     1       5.958   4.179  13.964  0.00  0.00    +0.000 N 
ATOM      4  C   UNL     1       6.043   3.604  12.731  0.00  0.00    +0.000 C 
ATOM      5  N   UNL     1       4.873   3.452  12.066  0.00  0.00    +0.000 N 
ATOM      6  O   UNL     1       7.086   3.193  12.237  0.00  0.00    +0.000 OA
ATOM      7  C   UNL     1       4.764   4.689  14.612  0.00  0.00    +0.000 C 
ATOM      8  C   UNL     1       5.182   4.997  16.056  0.00  0.00    +0.000 C 
ATOM      9  H   UNL     1       4.062   4.009  12.283  0.00  0.00    +0.000 HD
ATOM     10  H   UNL     1       4.948   3.088  11.127  0.00  0.00    +0.000 HD
ENDROOT
BRANCH   8  11
ATOM     11  C   UNL     1       4.098   4.640  17.050  0.00  0.00    +0.000 A 
ATOM     12  C   UNL     1       3.422   3.418  17.023  0.00  0.00    +0.000 A 
ATOM     13  C   UNL     1       2.387   3.172  17.927  0.00  0.00    +0.000 A 
ATOM     14  C   UNL     1       2.010   4.133  18.876  0.00  0.00    +0.000 A 
ATOM     15  C   UNL     1       2.666   5.376  18.902  0.00  0.00    +0.000 A 
ATOM     16  C   UNL     1       3.718   5.596  18.004  0.00  0.00    +0.000 A 
BRANCH  14  17
ATOM     17  O   UNL     1       0.941   3.741  19.641  0.00  0.00    +0.000 OA
ATOM     18  C   UNL     1       1.245   3.057  20.850  0.00  0.00    +0.000 C 
ENDBRANCH  14  17
BRANCH  15  19
ATOM     19  O   UNL     1       2.251   6.332  19.794  0.00  0.00    +0.000 OA
BRANCH  19  20
ATOM     20  C   UNL     1       2.320   7.703  19.402  0.00  0.00    +0.000 C 
ATOM     21  C   UNL     1       1.802   7.932  17.985  0.00  0.00    +0.000 C 
ATOM     22  C   UNL     1       1.366   9.388  17.968  0.00  0.00    +0.000 C 
ATOM     23  C   UNL     1       0.959   9.720  19.399  0.00  0.00    +0.000 C 
ATOM     24  C   UNL     1       1.366   8.529  20.261  0.00  0.00    +0.000 C 
ENDBRANCH  19  20
ENDBRANCH  15  19
ENDBRANCH   8  11
BRANCH   1  25
ATOM     25  C   UNL     1       7.431   4.908  17.233  0.00  0.00    +0.000 C 
ATOM     26  O   UNL     1       8.028   4.338  18.135  0.00  0.00    +0.000 OA
BRANCH  25  28
ATOM     27  C   UNL     1       7.817   7.053  18.107  0.00  0.00    +0.000 C 
ATOM     28  O   UNL     1       7.526   6.245  16.967  0.00  0.00    +0.000 OA
ENDBRANCH  25  28
ENDBRANCH   1  25
TORSDOF 6
ENDMDL
MODEL 2
REMARK VINA RESULT:      -7.7      0.616      1.184
REMARK  Name = 
REMARK  8 active torsions:
REMARK  status: ('A' for Active; 'I' for Inactive)
REMARK    1  A    between atoms: C_1  and  O_2
REMARK    2  A    between atoms: O_2  and  C_3
REMARK    3  A    between atoms: C_3  and  C_5
REMARK    4  A    between atoms: C_12  and  C_13
REMARK    5  A    between atoms: C_16  and  O_17
REMARK    6  A    between atoms: O_17  and  C_18
REMARK    7  A    between atoms: C_19  and  O_20
REMARK    8  A    between atoms: O_20  and  C_21
REMARK                            x       y       z     vdW  Elec       q    Type
REMARK                         _______ _______ _______ _____ _____    ______ ____
ROOT
ATOM      1  C   UNL     1       6.594   4.673  16.195  0.00  0.00    +0.000 C 
ATOM      2  C   UNL     1       7.137   4.641  14.774  0.00  0.00    +0.000 C 
ATOM      3  N   UNL     1       5.984   4.298  13.963  0.00  0.00    +0.000 N 
ATOM      4  C   UNL     1       6.106   3.609  12.792  0.00  0.00    +0.000 C 
ATOM      5  N   UNL     1       4.946   3.245  12.196  0.00  0.00    +0.000 N 
ATOM      6  O   UNL     1       7.178   3.280  12.300  0.00  0.00    +0.000 OA
ATOM      7  C   UNL     1       4.754   4.724  14.605  0.00  0.00    +0.000 C 
ATOM      8  C   UNL     1       5.171   5.232  15.991  0.00  0.00    +0.000 C 
ATOM      9  H   UNL     1       4.078   3.718  12.389  0.00  0.00    +0.000 HD
ATOM     10  H   UNL     1       5.039   2.795  11.297  0.00  0.00    +0.000 HD
ENDROOT
BRANCH   8  11
ATOM     11  C   UNL     1       4.169   4.852  17.061  0.00  0.00    +0.000 A 
ATOM     12  C   UNL     1       3.443   3.659  17.026  0.00  0.00    +0.000 A 
ATOM     13  C   UNL     1       2.488   3.395  18.008  0.00  0.00    +0.000 A 
ATOM     14  C   UNL     1       2.240   4.308  19.043  0.00  0.00    +0.000 A 
ATOM     15  C   UNL     1       2.946   5.522  19.080  0.00  0.00    +0.000 A 
ATOM     16  C   UNL     1       3.919   5.760  18.101  0.00  0.00    +0.000 A 
BRANCH  14  17
ATOM     17  O   UNL     1       1.231   3.907  19.882  0.00  0.00    +0.000 OA
ATOM     18  C   UNL     1       1.609   3.086  20.980  0.00  0.00    +0.000 C 
ENDBRANCH  14  17
BRANCH  15  19
ATOM     19  O   UNL     1       2.656   6.434  20.063  0.00  0.00    +0.000 OA
BRANCH  19  20
ATOM     20  C   UNL     1       1.596   7.363  19.835  0.00  0.00    +0.000 C 
ATOM     21  C   UNL     1       1.356   8.282  21.030  0.00  0.00    +0.000 C 
ATOM     22  C   UNL     1       0.711   9.523  20.435  0.00  0.00    +0.000 C 
ATOM     23  C   UNL     1       1.234   9.623  19.006  0.00  0.00    +0.000 C 
ATOM     24  C   UNL     1       1.996   8.332  18.724  0.00  0.00    +0.000 C 
ENDBRANCH  19  20
ENDBRANCH  15  19
ENDBRANCH   8  11
BRANCH   1  25
ATOM     25  C   UNL     1       7.446   5.546  17.077  0.00  0.00    +0.000 C 
ATOM     26  O   UNL     1       7.764   6.701  16.833  0.00  0.00    +0.000 OA
BRANCH  25  28
ATOM     27  C   UNL     1       7.760   5.660  19.401  0.00  0.00    +0.000 C 
ATOM     28  O   UNL     1       7.795   4.870  18.213  0.00  0.00    +0.000 OA
ENDBRANCH  25  28
ENDBRANCH   1  25
TORSDOF 6
ENDMDL
MODEL 3
REMARK VINA RESULT:      -7.7      1.507      3.535
REMARK  Name = 
REMARK  8 active torsions:
REMARK  status: ('A' for Active; 'I' for Inactive)
REMARK    1  A    between atoms: C_1  and  O_2
REMARK    2  A    between atoms: O_2  and  C_3
REMARK    3  A    between atoms: C_3  and  C_5
REMARK    4  A    between atoms: C_12  and  C_13
REMARK    5  A    between atoms: C_16  and  O_17
REMARK    6  A    between atoms: O_17  and  C_18
REMARK    7  A    between atoms: C_19  and  O_20
REMARK    8  A    between atoms: O_20  and  C_21
REMARK                            x       y       z     vdW  Elec       q    Type
REMARK                         _______ _______ _______ _____ _____    ______ ____
ROOT
ATOM      1  C   UNL     1       6.633   5.899  17.100  0.00  0.00    +0.000 C 
ATOM      2  C   UNL     1       7.230   5.467  15.768  0.00  0.00    +0.000 C 
ATOM      3  N   UNL     1       6.075   5.163  14.945  0.00  0.00    +0.000 N 
ATOM      4  C   UNL     1       6.123   4.228  13.954  0.00  0.00    +0.000 C 
ATOM      5  N   UNL     1       4.946   3.951  13.343  0.00  0.00    +0.000 N 
ATOM      6  O   UNL     1       7.136   3.618  13.636  0.00  0.00    +0.000 OA
ATOM      7  C   UNL     1       4.917   5.925  15.376  0.00  0.00    +0.000 C 
ATOM      8  C   UNL     1       5.353   6.640  16.661  0.00  0.00    +0.000 C 
ATOM      9  H   UNL     1       4.175   4.598  13.359  0.00  0.00    +0.000 HD
ATOM     10  H   UNL     1       4.998   3.308  12.567  0.00  0.00    +0.000 HD
ENDROOT
BRANCH   8  11
ATOM     11  C   UNL     1       4.246   6.681  17.692  0.00  0.00    +0.000 A 
ATOM     12  C   UNL     1       3.363   7.756  17.810  0.00  0.00    +0.000 A 
ATOM     13  C   UNL     1       2.403   7.763  18.823  0.00  0.00    +0.000 A 
ATOM     14  C   UNL     1       2.300   6.701  19.733  0.00  0.00    +0.000 A 
ATOM     15  C   UNL     1       3.195   5.621  19.641  0.00  0.00    +0.000 A 
ATOM     16  C   UNL     1       4.136   5.619  18.603  0.00  0.00    +0.000 A 
BRANCH  14  17
ATOM     17  O   UNL     1       1.339   6.905  20.690  0.00  0.00    +0.000 OA
ATOM     18  C   UNL     1       1.153   8.246  21.126  0.00  0.00    +0.000 C 
ENDBRANCH  14  17
BRANCH  15  19
ATOM     19  O   UNL     1       3.125   4.615  20.571  0.00  0.00    +0.000 OA
BRANCH  19  20
ATOM     20  C   UNL     1       2.527   3.377  20.186  0.00  0.00    +0.000 C 
ATOM     21  C   UNL     1       1.071   3.539  19.758  0.00  0.00    +0.000 C 
ATOM     22  C   UNL     1       0.809   2.359  18.837  0.00  0.00    +0.000 C 
ATOM     23  C   UNL     1       2.152   2.017  18.202  0.00  0.00    +0.000 C 
ATOM     24  C   UNL     1       3.205   2.854  18.921  0.00  0.00    +0.000 C 
ENDBRANCH  19  20
ENDBRANCH  15  19
ENDBRANCH   8  11
BRANCH   1  25
ATOM     25  C   UNL     1       7.589   6.780  17.858  0.00  0.00    +0.000 C 
ATOM     26  O   UNL     1       8.105   6.504  18.931  0.00  0.00    +0.000 OA
BRANCH  25  28
ATOM     27  C   UNL     1       8.158   9.055  17.971  0.00  0.00    +0.000 C 
ATOM     28  O   UNL     1       7.826   7.930  17.158  0.00  0.00    +0.000 OA
ENDBRANCH  25  28
ENDBRANCH   1  25
TORSDOF 6
ENDMDL
MODEL 4
REMARK VINA RESULT:      -7.7      2.893      4.719
REMARK  Name = 
REMARK  8 active torsions:
REMARK  status: ('A' for Active; 'I' for Inactive)
REMARK    1  A    between atoms: C_1  and  O_2
REMARK    2  A    between atoms: O_2  and  C_3
REMARK    3  A    between atoms: C_3  and  C_5
REMARK    4  A    between atoms: C_12  and  C_13
REMARK    5  A    between atoms: C_16  and  O_17
REMARK    6  A    between atoms: O_17  and  C_18
REMARK    7  A    between atoms: C_19  and  O_20
REMARK    8  A    between atoms: O_20  and  C_21
REMARK                            x       y       z     vdW  Elec       q    Type
REMARK                         _______ _______ _______ _____ _____    ______ ____
ROOT
ATOM      1  C   UNL     1       4.228   5.466  17.903  0.00  0.00    +0.000 C 
ATOM      2  C   UNL     1       4.252   4.032  17.393  0.00  0.00    +0.000 C 
ATOM      3  N   UNL     1       2.971   3.490  17.806  0.00  0.00    +0.000 N 
ATOM      4  C   UNL     1       2.808   2.165  18.085  0.00  0.00    +0.000 C 
ATOM      5  N   UNL     1       1.597   1.810  18.578  0.00  0.00    +0.000 N 
ATOM      6  O   UNL     1       3.688   1.324  17.957  0.00  0.00    +0.000 OA
ATOM      7  C   UNL     1       1.979   4.541  17.930  0.00  0.00    +0.000 C 
ATOM      8  C   UNL     1       2.746   5.854  17.726  0.00  0.00    +0.000 C 
ATOM      9  H   UNL     1       0.778   2.377  18.436  0.00  0.00    +0.000 HD
ATOM     10  H   UNL     1       1.457   0.820  18.721  0.00  0.00    +0.000 HD
ENDROOT
BRANCH   8  11
ATOM     11  C   UNL     1       2.252   6.950  18.645  0.00  0.00    +0.000 A 
ATOM     12  C   UNL     1       2.262   6.829  20.037  0.00  0.00    +0.000 A 
ATOM     13  C   UNL     1       1.733   7.849  20.830  0.00  0.00    +0.000 A 
ATOM     14  C   UNL     1       1.191   9.007  20.256  0.00  0.00    +0.000 A 
ATOM     15  C   UNL     1       1.153   9.134  18.856  0.00  0.00    +0.000 A 
ATOM     16  C   UNL     1       1.710   8.113  18.076  0.00  0.00    +0.000 A 
BRANCH  14  17
ATOM     17  O   UNL     1       0.670   9.873  21.183  0.00  0.00    +0.000 OA
ATOM     18  C   UNL     1      -0.219   9.315  22.142  0.00  0.00    +0.000 C 
ENDBRANCH  14  17
BRANCH  15  19
ATOM     19  O   UNL     1       0.568  10.244  18.302  0.00  0.00    +0.000 OA
BRANCH  19  20
ATOM     20  C   UNL     1      -0.851  10.381  18.395  0.00  0.00    +0.000 C 
ATOM     21  C   UNL     1      -1.305  11.835  18.306  0.00  0.00    +0.000 C 
ATOM     22  C   UNL     1      -2.736  11.759  17.800  0.00  0.00    +0.000 C 
ATOM     23  C   UNL     1      -2.818  10.486  16.965  0.00  0.00    +0.000 C 
ATOM     24  C   UNL     1      -1.506   9.735  17.176  0.00  0.00    +0.000 C 
ENDBRANCH  19  20
ENDBRANCH  15  19
ENDBRANCH   8  11
BRANCH   1  25
ATOM     25  C   UNL     1       5.161   6.336  17.104  0.00  0.00    +0.000 C 
ATOM     26  O   UNL     1       4.973   6.708  15.955  0.00  0.00    +0.000 OA
BRANCH  25  28
ATOM     27  C   UNL     1       7.400   5.870  17.637  0.00  0.00    +0.000 C 
ATOM     28  O   UNL     1       6.247   6.680  17.860  0.00  0.00    +0.000 OA
ENDBRANCH  25  28
ENDBRANCH   1  25
TORSDOF 6
ENDMDL
MODEL 5
REMARK VINA RESULT:      -7.6      2.964      4.694
REMARK  Name = 
REMARK  8 active torsions:
REMARK  status: ('A' for Active; 'I' for Inactive)
REMARK    1  A    between atoms: C_1  and  O_2
REMARK    2  A    between atoms: O_2  and  C_3
REMARK    3  A    between atoms: C_3  and  C_5
REMARK    4  A    between atoms: C_12  and  C_13
REMARK    5  A    between atoms: C_16  and  O_17
REMARK    6  A    between atoms: O_17  and  C_18
REMARK    7  A    between atoms: C_19  and  O_20
REMARK    8  A    between atoms: O_20  and  C_21
REMARK                            x       y       z     vdW  Elec       q    Type
REMARK                         _______ _______ _______ _____ _____    ______ ____
ROOT
ATOM      1  C   UNL     1       4.312   5.432  18.200  0.00  0.00    +0.000 C 
ATOM      2  C   UNL     1       4.348   4.004  17.677  0.00  0.00    +0.000 C 
ATOM      3  N   UNL     1       3.020   3.491  17.959  0.00  0.00    +0.000 N 
ATOM      4  C   UNL     1       2.797   2.169  18.204  0.00  0.00    +0.000 C 
ATOM      5  N   UNL     1       1.536   1.841  18.575  0.00  0.00    +0.000 N 
ATOM      6  O   UNL     1       3.663   1.306  18.151  0.00  0.00    +0.000 OA
ATOM      7  C   UNL     1       2.047   4.568  18.000  0.00  0.00    +0.000 C 
ATOM      8  C   UNL     1       2.864   5.862  17.887  0.00  0.00    +0.000 C 
ATOM      9  H   UNL     1       0.749   2.432  18.362  0.00  0.00    +0.000 HD
ATOM     10  H   UNL     1       1.357   0.854  18.691  0.00  0.00    +0.000 HD
ENDROOT
BRANCH   8  11
ATOM     11  C   UNL     1       2.312   6.961  18.769  0.00  0.00    +0.000 A 
ATOM     12  C   UNL     1       2.070   6.784  20.133  0.00  0.00    +0.000 A 
ATOM     13  C   UNL     1       1.500   7.816  20.880  0.00  0.00    +0.000 A 
ATOM     14  C   UNL     1       1.165   9.041  20.287  0.00  0.00    +0.000 A 
ATOM     15  C   UNL     1       1.382   9.227  18.911  0.00  0.00    +0.000 A 
ATOM     16  C   UNL     1       1.978   8.190  18.182  0.00  0.00    +0.000 A 
BRANCH  14  17
ATOM     17  O   UNL     1       0.566   9.914  21.160  0.00  0.00    +0.000 OA
ATOM     18  C   UNL     1      -0.025   9.344  22.320  0.00  0.00    +0.000 C 
ENDBRANCH  14  17
BRANCH  15  19
ATOM     19  O   UNL     1       0.998  10.408  18.328  0.00  0.00    +0.000 OA
BRANCH  19  20
ATOM     20  C   UNL     1       1.523  11.627  18.855  0.00  0.00    +0.000 C 
ATOM     21  C   UNL     1       2.598  12.235  17.959  0.00  0.00    +0.000 C 
ATOM     22  C   UNL     1       2.579  13.718  18.292  0.00  0.00    +0.000 C 
ATOM     23  C   UNL     1       1.154  14.030  18.736  0.00  0.00    +0.000 C 
ATOM     24  C   UNL     1       0.430  12.694  18.863  0.00  0.00    +0.000 C 
ENDBRANCH  19  20
ENDBRANCH  15  19
ENDBRANCH   8  11
BRANCH   1  25
ATOM     25  C   UNL     1       5.339   6.285  17.506  0.00  0.00    +0.000 C 
ATOM     26  O   UNL     1       5.127   7.003  16.540  0.00  0.00    +0.000 OA
BRANCH  25  28
ATOM     27  C   UNL     1       7.512   7.146  17.739  0.00  0.00    +0.000 C 
ATOM     28  O   UNL     1       6.550   6.166  18.130  0.00  0.00    +0.000 OA
ENDBRANCH  25  28
ENDBRANCH   1  25
TORSDOF 6
ENDMDL
MODEL 6
REMARK VINA RESULT:      -7.4      2.392      4.999
REMARK  Name = 
REMARK  8 active torsions:
REMARK  status: ('A' for Active; 'I' for Inactive)
REMARK    1  A    between atoms: C_1  and  O_2
REMARK    2  A    between atoms: O_2  and  C_3
REMARK    3  A    between atoms: C_3  and  C_5
REMARK    4  A    between atoms: C_12  and  C_13
REMARK    5  A    between atoms: C_16  and  O_17
REMARK    6  A    between atoms: O_17  and  C_18
REMARK    7  A    between atoms: C_19  and  O_20
REMARK    8  A    between atoms: O_20  and  C_21
REMARK                            x       y       z     vdW  Elec       q    Type
REMARK                         _______ _______ _______ _____ _____    ______ ____
ROOT
ATOM      1  C   UNL     1       2.487   4.737  17.978  0.00  0.00    +0.000 C 
ATOM      2  C   UNL     1       3.614   4.164  17.130  0.00  0.00    +0.000 C 
ATOM      3  N   UNL     1       4.546   5.267  16.992  0.00  0.00    +0.000 N 
ATOM      4  C   UNL     1       5.344   5.401  15.894  0.00  0.00    +0.000 C 
ATOM      5  N   UNL     1       6.078   6.538  15.831  0.00  0.00    +0.000 N 
ATOM      6  O   UNL     1       5.389   4.591  14.977  0.00  0.00    +0.000 OA
ATOM      7  C   UNL     1       4.440   6.180  18.115  0.00  0.00    +0.000 C 
ATOM      8  C   UNL     1       3.242   5.683  18.934  0.00  0.00    +0.000 C 
ATOM      9  H   UNL     1       6.295   7.077  16.653  0.00  0.00    +0.000 HD
ATOM     10  H   UNL     1       6.716   6.603  15.051  0.00  0.00    +0.000 HD
ENDROOT
BRANCH   8  11
ATOM     11  C   UNL     1       2.421   6.827  19.491  0.00  0.00    +0.000 A 
ATOM     12  C   UNL     1       1.795   6.769  20.739  0.00  0.00    +0.000 A 
ATOM     13  C   UNL     1       0.999   7.831  21.170  0.00  0.00    +0.000 A 
ATOM     14  C   UNL     1       0.815   8.970  20.373  0.00  0.00    +0.000 A 
ATOM     15  C   UNL     1       1.420   9.034  19.105  0.00  0.00    +0.000 A 
ATOM     16  C   UNL     1       2.235   7.970  18.699  0.00  0.00    +0.000 A 
BRANCH  14  17
ATOM     17  O   UNL     1      -0.041   9.884  20.932  0.00  0.00    +0.000 OA
ATOM     18  C   UNL     1       0.039  10.046  22.342  0.00  0.00    +0.000 C 
ENDBRANCH  14  17
BRANCH  15  19
ATOM     19  O   UNL     1       1.186  10.126  18.309  0.00  0.00    +0.000 OA
BRANCH  19  20
ATOM     20  C   UNL     1       1.526  11.418  18.813  0.00  0.00    +0.000 C 
ATOM     21  C   UNL     1       2.568  12.125  17.951  0.00  0.00    +0.000 C 
ATOM     22  C   UNL     1       2.347  13.605  18.221  0.00  0.00    +0.000 C 
ATOM     23  C   UNL     1       0.871  13.750  18.576  0.00  0.00    +0.000 C 
ATOM     24  C   UNL     1       0.311  12.339  18.718  0.00  0.00    +0.000 C 
ENDBRANCH  19  20
ENDBRANCH  15  19
ENDBRANCH   8  11
BRANCH   1  25
ATOM     25  C   UNL     1       1.747   3.643  18.700  0.00  0.00    +0.000 C 
ATOM     26  O   UNL     1       0.774   3.042  18.267  0.00  0.00    +0.000 OA
BRANCH  25  28
ATOM     27  C   UNL     1       1.424   3.029  20.943  0.00  0.00    +0.000 C 
ATOM     28  O   UNL     1       2.337   3.392  19.907  0.00  0.00    +0.000 OA
ENDBRANCH  25  28
ENDBRANCH   1  25
TORSDOF 6
ENDMDL
MODEL 7
REMARK VINA RESULT:      -7.3      1.546      3.611
REMARK  Name = 
REMARK  8 active torsions:
REMARK  status: ('A' for Active; 'I' for Inactive)
REMARK    1  A    between atoms: C_1  and  O_2
REMARK    2  A    between atoms: O_2  and  C_3
REMARK    3  A    between atoms: C_3  and  C_5
REMARK    4  A    between atoms: C_12  and  C_13
REMARK    5  A    between atoms: C_16  and  O_17
REMARK    6  A    between atoms: O_17  and  C_18
REMARK    7  A    between atoms: C_19  and  O_20
REMARK    8  A    between atoms: O_20  and  C_21
REMARK                            x       y       z     vdW  Elec       q    Type
REMARK                         _______ _______ _______ _____ _____    ______ ____
ROOT
ATOM      1  C   UNL     1       6.632   6.131  16.954  0.00  0.00    +0.000 C 
ATOM      2  C   UNL     1       7.213   5.674  15.623  0.00  0.00    +0.000 C 
ATOM      3  N   UNL     1       6.057   5.227  14.869  0.00  0.00    +0.000 N 
ATOM      4  C   UNL     1       6.149   4.243  13.929  0.00  0.00    +0.000 C 
ATOM      5  N   UNL     1       4.977   3.833  13.386  0.00  0.00    +0.000 N 
ATOM      6  O   UNL     1       7.198   3.705  13.600  0.00  0.00    +0.000 OA
ATOM      7  C   UNL     1       4.855   5.911  15.308  0.00  0.00    +0.000 C 
ATOM      8  C   UNL     1       5.276   6.734  16.533  0.00  0.00    +0.000 C 
ATOM      9  H   UNL     1       4.153   4.412  13.400  0.00  0.00    +0.000 HD
ATOM     10  H   UNL     1       5.054   3.153  12.644  0.00  0.00    +0.000 HD
ENDROOT
BRANCH   8  11
ATOM     11  C   UNL     1       4.211   6.739  17.608  0.00  0.00    +0.000 A 
ATOM     12  C   UNL     1       3.310   7.794  17.773  0.00  0.00    +0.000 A 
ATOM     13  C   UNL     1       2.392   7.769  18.824  0.00  0.00    +0.000 A 
ATOM     14  C   UNL     1       2.349   6.696  19.725  0.00  0.00    +0.000 A 
ATOM     15  C   UNL     1       3.263   5.637  19.586  0.00  0.00    +0.000 A 
ATOM     16  C   UNL     1       4.161   5.666  18.511  0.00  0.00    +0.000 A 
BRANCH  14  17
ATOM     17  O   UNL     1       1.423   6.869  20.722  0.00  0.00    +0.000 OA
ATOM     18  C   UNL     1       1.146   8.210  21.104  0.00  0.00    +0.000 C 
ENDBRANCH  14  17
BRANCH  15  19
ATOM     19  O   UNL     1       3.252   4.620  20.506  0.00  0.00    +0.000 OA
BRANCH  19  20
ATOM     20  C   UNL     1       2.599   3.399  20.159  0.00  0.00    +0.000 C 
ATOM     21  C   UNL     1       1.185   3.623  19.628  0.00  0.00    +0.000 C 
ATOM     22  C   UNL     1       0.904   2.403  18.765  0.00  0.00    +0.000 C 
ATOM     23  C   UNL     1       2.258   1.938  18.242  0.00  0.00    +0.000 C 
ATOM     24  C   UNL     1       3.318   2.753  18.976  0.00  0.00    +0.000 C 
ENDBRANCH  19  20
ENDBRANCH  15  19
ENDBRANCH   8  11
BRANCH   1  25
ATOM     25  C   UNL     1       7.537   7.131  17.621  0.00  0.00    +0.000 C 
ATOM     26  O   UNL     1       7.848   8.220  17.161  0.00  0.00    +0.000 OA
BRANCH  25  28
ATOM     27  C   UNL     1       7.783   5.253  19.009  0.00  0.00    +0.000 C 
ATOM     28  O   UNL     1       7.945   6.661  18.838  0.00  0.00    +0.000 OA
ENDBRANCH  25  28
ENDBRANCH   1  25
TORSDOF 6
ENDMDL
MODEL 8
REMARK VINA RESULT:      -7.3      4.074      7.815
REMARK  Name = 
REMARK  8 active torsions:
REMARK  status: ('A' for Active; 'I' for Inactive)
REMARK    1  A    between atoms: C_1  and  O_2
REMARK    2  A    between atoms: O_2  and  C_3
REMARK    3  A    between atoms: C_3  and  C_5
REMARK    4  A    between atoms: C_12  and  C_13
REMARK    5  A    between atoms: C_16  and  O_17
REMARK    6  A    between atoms: O_17  and  C_18
REMARK    7  A    between atoms: C_19  and  O_20
REMARK    8  A    between atoms: O_20  and  C_21
REMARK                            x       y       z     vdW  Elec       q    Type
REMARK                         _______ _______ _______ _____ _____    ______ ____
ROOT
ATOM      1  C   UNL     1       0.886   9.384  19.497  0.00  0.00    +0.000 C 
ATOM      2  C   UNL     1       0.508  10.465  20.501  0.00  0.00    +0.000 C 
ATOM      3  N   UNL     1       0.503   9.775  21.777  0.00  0.00    +0.000 N 
ATOM      4  C   UNL     1      -0.310  10.162  22.801  0.00  0.00    +0.000 C 
ATOM      5  N   UNL     1      -0.308   9.361  23.893  0.00  0.00    +0.000 N 
ATOM      6  O   UNL     1      -1.046  11.139  22.759  0.00  0.00    +0.000 OA
ATOM      7  C   UNL     1       1.402   8.635  21.754  0.00  0.00    +0.000 C 
ATOM      8  C   UNL     1       1.882   8.523  20.301  0.00  0.00    +0.000 C 
ATOM      9  H   UNL     1       0.457   8.738  24.094  0.00  0.00    +0.000 HD
ATOM     10  H   UNL     1      -0.860   9.686  24.674  0.00  0.00    +0.000 HD
ENDROOT
BRANCH   8  11
ATOM     11  C   UNL     1       1.998   7.083  19.850  0.00  0.00    +0.000 A 
ATOM     12  C   UNL     1       1.454   6.019  20.574  0.00  0.00    +0.000 A 
ATOM     13  C   UNL     1       1.649   4.707  20.140  0.00  0.00    +0.000 A 
ATOM     14  C   UNL     1       2.385   4.429  18.979  0.00  0.00    +0.000 A 
ATOM     15  C   UNL     1       2.958   5.487  18.252  0.00  0.00    +0.000 A 
ATOM     16  C   UNL     1       2.731   6.798  18.688  0.00  0.00    +0.000 A 
BRANCH  14  17
ATOM     17  O   UNL     1       2.520   3.086  18.738  0.00  0.00    +0.000 OA
ATOM     18  C   UNL     1       1.974   2.208  19.715  0.00  0.00    +0.000 C 
ENDBRANCH  14  17
BRANCH  15  19
ATOM     19  O   UNL     1       3.724   5.201  17.151  0.00  0.00    +0.000 OA
BRANCH  19  20
ATOM     20  C   UNL     1       5.115   5.522  17.191  0.00  0.00    +0.000 C 
ATOM     21  C   UNL     1       5.883   4.666  18.195  0.00  0.00    +0.000 C 
ATOM     22  C   UNL     1       7.315   4.671  17.685  0.00  0.00    +0.000 C 
ATOM     23  C   UNL     1       7.221   4.848  16.173  0.00  0.00    +0.000 C 
ATOM     24  C   UNL     1       5.762   5.159  15.856  0.00  0.00    +0.000 C 
ENDBRANCH  19  20
ENDBRANCH  15  19
ENDBRANCH   8  11
BRANCH   1  25
ATOM     25  C   UNL     1       1.497   9.988  18.262  0.00  0.00    +0.000 C 
ATOM     26  O   UNL     1       2.002   9.359  17.343  0.00  0.00    +0.000 OA
BRANCH  25  28
ATOM     27  C   UNL     1       2.597  12.048  18.019  0.00  0.00    +0.000 C 
ATOM     28  O   UNL     1       1.384  11.350  18.297  0.00  0.00    +0.000 OA
ENDBRANCH  25  28
ENDBRANCH   1  25
TORSDOF 6
ENDMDL
MODEL 9
REMARK VINA RESULT:      -7.3      2.940      4.566
REMARK  Name = 
REMARK  8 active torsions:
REMARK  status: ('A' for Active; 'I' for Inactive)
REMARK    1  A    between atoms: C_1  and  O_2
REMARK    2  A    between atoms: O_2  and  C_3
REMARK    3  A    between atoms: C_3  and  C_5
REMARK    4  A    between atoms: C_12  and  C_13
REMARK    5  A    between atoms: C_16  and  O_17
REMARK    6  A    between atoms: O_17  and  C_18
REMARK    7  A    between atoms: C_19  and  O_20
REMARK    8  A    between atoms: O_20  and  C_21
REMARK                            x       y       z     vdW  Elec       q    Type
REMARK                         _______ _______ _______ _____ _____    ______ ____
ROOT
ATOM      1  C   UNL     1       4.254   5.440  18.041  0.00  0.00    +0.000 C 
ATOM      2  C   UNL     1       4.254   4.026  17.477  0.00  0.00    +0.000 C 
ATOM      3  N   UNL     1       2.965   3.489  17.870  0.00  0.00    +0.000 N 
ATOM      4  C   UNL     1       2.780   2.157  18.099  0.00  0.00    +0.000 C 
ATOM      5  N   UNL     1       1.564   1.803  18.580  0.00  0.00    +0.000 N 
ATOM      6  O   UNL     1       3.646   1.308  17.939  0.00  0.00    +0.000 OA
ATOM      7  C   UNL     1       1.989   4.551  18.035  0.00  0.00    +0.000 C 
ATOM      8  C   UNL     1       2.778   5.858  17.880  0.00  0.00    +0.000 C 
ATOM      9  H   UNL     1       0.754   2.389  18.460  0.00  0.00    +0.000 HD
ATOM     10  H   UNL     1       1.408   0.811  18.685  0.00  0.00    +0.000 HD
ENDROOT
BRANCH   8  11
ATOM     11  C   UNL     1       2.302   6.926  18.841  0.00  0.00    +0.000 A 
ATOM     12  C   UNL     1       1.962   6.650  20.168  0.00  0.00    +0.000 A 
ATOM     13  C   UNL     1       1.469   7.667  20.987  0.00  0.00    +0.000 A 
ATOM     14  C   UNL     1       1.309   8.974  20.506  0.00  0.00    +0.000 A 
ATOM     15  C   UNL     1       1.626   9.263  19.167  0.00  0.00    +0.000 A 
ATOM     16  C   UNL     1       2.143   8.236  18.366  0.00  0.00    +0.000 A 
BRANCH  14  17
ATOM     17  O   UNL     1       0.762   9.824  21.433  0.00  0.00    +0.000 OA
ATOM     18  C   UNL     1      -0.360   9.335  22.157  0.00  0.00    +0.000 C 
ENDBRANCH  14  17
BRANCH  15  19
ATOM     19  O   UNL     1       1.412  10.530  18.689  0.00  0.00    +0.000 OA
BRANCH  19  20
ATOM     20  C   UNL     1       0.158  10.818  18.070  0.00  0.00    +0.000 C 
ATOM     21  C   UNL     1      -0.728   9.582  17.941  0.00  0.00    +0.000 C 
ATOM     22  C   UNL     1      -2.144  10.131  17.878  0.00  0.00    +0.000 C 
ATOM     23  C   UNL     1      -2.121  11.441  18.658  0.00  0.00    +0.000 C 
ATOM     24  C   UNL     1      -0.659  11.740  18.973  0.00  0.00    +0.000 C 
ENDBRANCH  19  20
ENDBRANCH  15  19
ENDBRANCH   8  11
BRANCH   1  25
ATOM     25  C   UNL     1       5.200   6.324  17.275  0.00  0.00    +0.000 C 
ATOM     26  O   UNL     1       4.911   6.980  16.285  0.00  0.00    +0.000 OA
BRANCH  25  28
ATOM     27  C   UNL     1       7.297   7.368  17.437  0.00  0.00    +0.000 C 
ATOM     28  O   UNL     1       6.435   6.314  17.863  0.00  0.00    +0.000 OA
ENDBRANCH  25  28
ENDBRANCH   1  25
TORSDOF 6
ENDMDL
