MODEL 1
REMARK VINA RESULT:      -9.0      0.000      0.000
REMARK  Name = 
REMARK  6 active torsions:
REMARK  status: ('A' for Active; 'I' for Inactive)
REMARK    1  A    between atoms: C_2  and  O_3
REMARK    2  A    between atoms: C_2  and  C_4
REMARK    3  A    between atoms: C_7  and  C_8
REMARK    4  A    between atoms: C_8  and  C_10
REMARK    5  A    between atoms: C_13  and  C_14
REMARK    6  A    between atoms: C_14  and  C_16
REMARK                            x       y       z     vdW  Elec       q    Type
REMARK                         _______ _______ _______ _____ _____    ______ ____
ROOT
ATOM      1  C   UNL     1       2.512   7.315  19.030  0.00  0.00    +0.000 A 
ATOM      2  C   UNL     1       2.548   8.097  17.869  0.00  0.00    +0.000 A 
ATOM      3  C   UNL     1       1.852   9.309  17.819  0.00  0.00    +0.000 A 
ATOM      4  C   UNL     1       1.122   9.750  18.932  0.00  0.00    +0.000 A 
ATOM      5  C   UNL     1       1.111   8.975  20.100  0.00  0.00    +0.000 A 
ATOM      6  C   UNL     1       1.831   7.779  20.158  0.00  0.00    +0.000 A 
ENDROOT
BRANCH   1   7
ATOM      7  C   UNL     1       3.191   5.996  19.038  0.00  0.00    +0.000 C 
ATOM      8  O   UNL     1       2.985   5.228  19.976  0.00  0.00    +0.000 OA
BRANCH   7  12
ATOM      9  C   UNL     1       5.863   4.994  15.823  0.00  0.00    +0.000 A 
ATOM     10  C   UNL     1       6.072   6.136  16.605  0.00  0.00    +0.000 A 
ATOM     11  C   UNL     1       5.213   6.432  17.667  0.00  0.00    +0.000 A 
ATOM     12  C   UNL     1       4.132   5.593  17.954  0.00  0.00    +0.000 A 
ATOM     13  C   UNL     1       3.921   4.446  17.171  0.00  0.00    +0.000 A 
ATOM     14  C   UNL     1       4.792   4.139  16.122  0.00  0.00    +0.000 A 
BRANCH   9  16
ATOM     15  O   UNL     1       7.711   5.324  14.357  0.00  0.00    +0.000 OA
ATOM     16  C   UNL     1       6.729   4.657  14.668  0.00  0.00    +0.000 C 
BRANCH  16  17
ATOM     17  O   UNL     1       6.392   3.512  14.042  0.00  0.00    +0.000 OA
ATOM     18  H   UNL     1       6.826   3.361  13.181  0.00  0.00    +0.000 HD
ENDBRANCH  16  17
ENDBRANCH   9  16
ENDBRANCH   7  12
ENDBRANCH   1   7
BRANCH   4  19
ATOM     19  C   UNL     1       0.320  10.997  18.809  0.00  0.00    +0.000 C 
ATOM     20  O   UNL     1       0.875  12.087  18.928  0.00  0.00    +0.000 OA
BRANCH  19  21
ATOM     21  C   UNL     1      -1.136  10.968  18.515  0.00  0.00    +0.000 A 
ATOM     22  C   UNL     1      -1.968  11.881  19.179  0.00  0.00    +0.000 A 
ATOM     23  C   UNL     1      -3.338  11.900  18.911  0.00  0.00    +0.000 A 
ATOM     24  C   UNL     1      -3.874  11.003  17.989  0.00  0.00    +0.000 A 
ATOM     25 CL   UNL     1      -5.561  11.035  17.648  0.00  0.00    +0.000 Cl
ATOM     26  C   UNL     1      -3.058  10.076  17.343  0.00  0.00    +0.000 A 
ATOM     27  C   UNL     1      -1.688  10.046  17.617  0.00  0.00    +0.000 A 
ENDBRANCH  19  21
ENDBRANCH   4  19
TORSDOF 6
ENDMDL
MODEL 2
REMARK VINA RESULT:      -8.8      0.333      1.379
REMARK  Name = 
REMARK  6 active torsions:
REMARK  status: ('A' for Active; 'I' for Inactive)
REMARK    1  A    between atoms: C_2  and  O_3
REMARK    2  A    between atoms: C_2  and  C_4
REMARK    3  A    between atoms: C_7  and  C_8
REMARK    4  A    between atoms: C_8  and  C_10
REMARK    5  A    between atoms: C_13  and  C_14
REMARK    6  A    between atoms: C_14  and  C_16
REMARK                            x       y       z     vdW  Elec       q    Type
REMARK                         _______ _______ _______ _____ _____    ______ ____
ROOT
ATOM      1  C   UNL     1       2.494   7.265  19.053  0.00  0.00    +0.000 A 
ATOM      2  C   UNL     1       1.887   7.634  20.259  0.00  0.00    +0.000 A 
ATOM      3  C   UNL     1       1.096   8.787  20.321  0.00  0.00    +0.000 A 
ATOM      4  C   UNL     1       0.901   9.570  19.175  0.00  0.00    +0.000 A 
ATOM      5  C   UNL     1       1.489   9.179  17.964  0.00  0.00    +0.000 A 
ATOM      6  C   UNL     1       2.255   8.013  17.898  0.00  0.00    +0.000 A 
ENDROOT
BRANCH   1   7
ATOM      7  C   UNL     1       3.393   6.085  19.025  0.00  0.00    +0.000 C 
ATOM      8  O   UNL     1       3.459   5.365  20.020  0.00  0.00    +0.000 OA
BRANCH   7  12
ATOM      9  C   UNL     1       5.862   5.009  15.675  0.00  0.00    +0.000 A 
ATOM     10  C   UNL     1       4.769   4.218  16.048  0.00  0.00    +0.000 A 
ATOM     11  C   UNL     1       3.957   4.598  17.120  0.00  0.00    +0.000 A 
ATOM     12  C   UNL     1       4.232   5.768  17.834  0.00  0.00    +0.000 A 
ATOM     13  C   UNL     1       5.328   6.563  17.460  0.00  0.00    +0.000 A 
ATOM     14  C   UNL     1       6.128   6.194  16.375  0.00  0.00    +0.000 A 
BRANCH   9  16
ATOM     15  O   UNL     1       7.780   5.268  14.286  0.00  0.00    +0.000 OA
ATOM     16  C   UNL     1       6.770   4.630  14.565  0.00  0.00    +0.000 C 
BRANCH  16  17
ATOM     17  O   UNL     1       6.433   3.483  13.945  0.00  0.00    +0.000 OA
ATOM     18  H   UNL     1       6.109   2.769  14.526  0.00  0.00    +0.000 HD
ENDBRANCH  16  17
ENDBRANCH   9  16
ENDBRANCH   7  12
ENDBRANCH   1   7
BRANCH   4  19
ATOM     19  C   UNL     1       0.129  10.836  19.301  0.00  0.00    +0.000 C 
ATOM     20  O   UNL     1       0.672  11.829  19.781  0.00  0.00    +0.000 OA
BRANCH  19  21
ATOM     21  C   UNL     1      -1.277  10.949  18.835  0.00  0.00    +0.000 A 
ATOM     22  C   UNL     1      -2.116  11.876  19.468  0.00  0.00    +0.000 A 
ATOM     23  C   UNL     1      -3.437  12.027  19.043  0.00  0.00    +0.000 A 
ATOM     24  C   UNL     1      -3.918  11.247  17.993  0.00  0.00    +0.000 A 
ATOM     25 CL   UNL     1      -5.543  11.441  17.459  0.00  0.00    +0.000 Cl
ATOM     26  C   UNL     1      -3.098  10.305  17.375  0.00  0.00    +0.000 A 
ATOM     27  C   UNL     1      -1.778  10.143  17.806  0.00  0.00    +0.000 A 
ENDBRANCH  19  21
ENDBRANCH   4  19
TORSDOF 6
ENDMDL
MODEL 3
REMARK VINA RESULT:      -8.8      0.303      1.362
REMARK  Name = 
REMARK  6 active torsions:
REMARK  status: ('A' for Active; 'I' for Inactive)
REMARK    1  A    between atoms: C_2  and  O_3
REMARK    2  A    between atoms: C_2  and  C_4
REMARK    3  A    between atoms: C_7  and  C_8
REMARK    4  A    between atoms: C_8  and  C_10
REMARK    5  A    between atoms: C_13  and  C_14
REMARK    6  A    between atoms: C_14  and  C_16
REMARK                            x       y       z     vdW  Elec       q    Type
REMARK                         _______ _______ _______ _____ _____    ______ ____
ROOT
ATOM      1  C   UNL     1       2.348   7.491  19.007  0.00  0.00    +0.000 A 
ATOM      2  C   UNL     1       2.301   8.304  17.868  0.00  0.00    +0.000 A 
ATOM      3  C   UNL     1       1.601   9.515  17.900  0.00  0.00    +0.000 A 
ATOM      4  C   UNL     1       0.953   9.924  19.074  0.00  0.00    +0.000 A 
ATOM      5  C   UNL     1       1.027   9.118  20.219  0.00  0.00    +0.000 A 
ATOM      6  C   UNL     1       1.749   7.923  20.193  0.00  0.00    +0.000 A 
ENDROOT
BRANCH   1   7
ATOM      7  C   UNL     1       3.027   6.174  18.931  0.00  0.00    +0.000 C 
ATOM      8  O   UNL     1       2.864   5.368  19.846  0.00  0.00    +0.000 OA
BRANCH   7  12
ATOM      9  C   UNL     1       5.676   5.013  15.751  0.00  0.00    +0.000 A 
ATOM     10  C   UNL     1       4.767   4.102  16.301  0.00  0.00    +0.000 A 
ATOM     11  C   UNL     1       3.890   4.503  17.312  0.00  0.00    +0.000 A 
ATOM     12  C   UNL     1       3.918   5.817  17.790  0.00  0.00    +0.000 A 
ATOM     13  C   UNL     1       4.828   6.732  17.238  0.00  0.00    +0.000 A 
ATOM     14  C   UNL     1       5.691   6.337  16.212  0.00  0.00    +0.000 A 
BRANCH   9  16
ATOM     15  O   UNL     1       7.666   5.266  14.467  0.00  0.00    +0.000 OA
ATOM     16  C   UNL     1       6.646   4.626  14.699  0.00  0.00    +0.000 C 
BRANCH  16  17
ATOM     17  O   UNL     1       6.351   3.467  14.077  0.00  0.00    +0.000 OA
ATOM     18  H   UNL     1       6.444   3.475  13.106  0.00  0.00    +0.000 HD
ENDBRANCH  16  17
ENDBRANCH   9  16
ENDBRANCH   7  12
ENDBRANCH   1   7
BRANCH   4  19
ATOM     19  C   UNL     1       0.143  11.172  19.042  0.00  0.00    +0.000 C 
ATOM     20  O   UNL     1       0.691  12.253  19.247  0.00  0.00    +0.000 OA
BRANCH  19  21
ATOM     21  C   UNL     1      -1.311  11.157  18.739  0.00  0.00    +0.000 A 
ATOM     22  C   UNL     1      -1.797  10.183  17.855  0.00  0.00    +0.000 A 
ATOM     23  C   UNL     1      -3.161  10.122  17.564  0.00  0.00    +0.000 A 
ATOM     24  C   UNL     1      -4.034  11.037  18.149  0.00  0.00    +0.000 A 
ATOM     25 CL   UNL     1      -5.717  10.955  17.801  0.00  0.00    +0.000 Cl
ATOM     26  C   UNL     1      -3.556  12.024  19.009  0.00  0.00    +0.000 A 
ATOM     27  C   UNL     1      -2.189  12.096  19.294  0.00  0.00    +0.000 A 
ENDBRANCH  19  21
ENDBRANCH   4  19
TORSDOF 6
ENDMDL
MODEL 4
REMARK VINA RESULT:      -8.7      0.338      1.159
REMARK  Name = 
REMARK  6 active torsions:
REMARK  status: ('A' for Active; 'I' for Inactive)
REMARK    1  A    between atoms: C_2  and  O_3
REMARK    2  A    between atoms: C_2  and  C_4
REMARK    3  A    between atoms: C_7  and  C_8
REMARK    4  A    between atoms: C_8  and  C_10
REMARK    5  A    between atoms: C_13  and  C_14
REMARK    6  A    between atoms: C_14  and  C_16
REMARK                            x       y       z     vdW  Elec       q    Type
REMARK                         _______ _______ _______ _____ _____    ______ ____
ROOT
ATOM      1  C   UNL     1       2.328   7.441  18.956  0.00  0.00    +0.000 A 
ATOM      2  C   UNL     1       2.206   8.225  17.803  0.00  0.00    +0.000 A 
ATOM      3  C   UNL     1       1.495   9.430  17.846  0.00  0.00    +0.000 A 
ATOM      4  C   UNL     1       0.910   9.860  19.045  0.00  0.00    +0.000 A 
ATOM      5  C   UNL     1       1.058   9.083  20.202  0.00  0.00    +0.000 A 
ATOM      6  C   UNL     1       1.792   7.896  20.164  0.00  0.00    +0.000 A 
ENDROOT
BRANCH   1   7
ATOM      7  C   UNL     1       3.017   6.130  18.873  0.00  0.00    +0.000 C 
ATOM      8  O   UNL     1       2.862   5.319  19.785  0.00  0.00    +0.000 OA
BRANCH   7  12
ATOM      9  C   UNL     1       5.674   5.010  15.685  0.00  0.00    +0.000 A 
ATOM     10  C   UNL     1       4.814   4.073  16.270  0.00  0.00    +0.000 A 
ATOM     11  C   UNL     1       3.934   4.459  17.284  0.00  0.00    +0.000 A 
ATOM     12  C   UNL     1       3.908   5.784  17.728  0.00  0.00    +0.000 A 
ATOM     13  C   UNL     1       4.768   6.726  17.142  0.00  0.00    +0.000 A 
ATOM     14  C   UNL     1       5.635   6.345  16.113  0.00  0.00    +0.000 A 
BRANCH   9  16
ATOM     15  O   UNL     1       6.418   3.775  13.789  0.00  0.00    +0.000 OA
ATOM     16  C   UNL     1       6.646   4.640  14.629  0.00  0.00    +0.000 C 
BRANCH  16  17
ATOM     17  O   UNL     1       7.766   5.390  14.622  0.00  0.00    +0.000 OA
ATOM     18  H   UNL     1       7.822   6.055  13.910  0.00  0.00    +0.000 HD
ENDBRANCH  16  17
ENDBRANCH   9  16
ENDBRANCH   7  12
ENDBRANCH   1   7
BRANCH   4  19
ATOM     19  C   UNL     1       0.085  11.098  19.030  0.00  0.00    +0.000 C 
ATOM     20  O   UNL     1       0.616  12.181  19.265  0.00  0.00    +0.000 OA
BRANCH  19  21
ATOM     21  C   UNL     1      -1.365  11.072  18.707  0.00  0.00    +0.000 A 
ATOM     22  C   UNL     1      -2.207  11.992  19.348  0.00  0.00    +0.000 A 
ATOM     23  C   UNL     1      -3.571  12.013  19.054  0.00  0.00    +0.000 A 
ATOM     24  C   UNL     1      -4.092  11.111  18.128  0.00  0.00    +0.000 A 
ATOM     25 CL   UNL     1      -5.772  11.145  17.755  0.00  0.00    +0.000 Cl
ATOM     26  C   UNL     1      -3.267  10.176  17.506  0.00  0.00    +0.000 A 
ATOM     27  C   UNL     1      -1.903  10.144  17.806  0.00  0.00    +0.000 A 
ENDBRANCH  19  21
ENDBRANCH   4  19
TORSDOF 6
ENDMDL
MODEL 5
REMARK VINA RESULT:      -8.7      0.336      1.007
REMARK  Name = 
REMARK  6 active torsions:
REMARK  status: ('A' for Active; 'I' for Inactive)
REMARK    1  A    between atoms: C_2  and  O_3
REMARK    2  A    between atoms: C_2  and  C_4
REMARK    3  A    between atoms: C_7  and  C_8
REMARK    4  A    between atoms: C_8  and  C_10
REMARK    5  A    between atoms: C_13  and  C_14
REMARK    6  A    between atoms: C_14  and  C_16
REMARK                            x       y       z     vdW  Elec       q    Type
REMARK                         _______ _______ _______ _____ _____    ______ ____
ROOT
ATOM      1  C   UNL     1       2.383   7.039  19.155  0.00  0.00    +0.000 A 
ATOM      2  C   UNL     1       2.342   7.850  18.014  0.00  0.00    +0.000 A 
ATOM      3  C   UNL     1       1.722   9.103  18.067  0.00  0.00    +0.000 A 
ATOM      4  C   UNL     1       1.147   9.555  19.263  0.00  0.00    +0.000 A 
ATOM      5  C   UNL     1       1.214   8.750  20.408  0.00  0.00    +0.000 A 
ATOM      6  C   UNL     1       1.859   7.512  20.361  0.00  0.00    +0.000 A 
ENDROOT
BRANCH   1   7
ATOM      7  C   UNL     1       2.975   5.682  19.060  0.00  0.00    +0.000 C 
ATOM      8  O   UNL     1       2.646   4.832  19.886  0.00  0.00    +0.000 OA
BRANCH   7  12
ATOM      9  C   UNL     1       5.813   4.844  15.942  0.00  0.00    +0.000 A 
ATOM     10  C   UNL     1       5.972   5.951  16.783  0.00  0.00    +0.000 A 
ATOM     11  C   UNL     1       5.059   6.193  17.813  0.00  0.00    +0.000 A 
ATOM     12  C   UNL     1       3.972   5.334  18.008  0.00  0.00    +0.000 A 
ATOM     13  C   UNL     1       3.812   4.223  17.165  0.00  0.00    +0.000 A 
ATOM     14  C   UNL     1       4.737   3.969  16.148  0.00  0.00    +0.000 A 
BRANCH   9  16
ATOM     15  O   UNL     1       7.737   5.242  14.596  0.00  0.00    +0.000 OA
ATOM     16  C   UNL     1       6.739   4.565  14.818  0.00  0.00    +0.000 C 
BRANCH  16  17
ATOM     17  O   UNL     1       6.433   3.457  14.114  0.00  0.00    +0.000 OA
ATOM     18  H   UNL     1       5.943   2.770  14.603  0.00  0.00    +0.000 HD
ENDBRANCH  16  17
ENDBRANCH   9  16
ENDBRANCH   7  12
ENDBRANCH   1   7
BRANCH   4  19
ATOM     19  C   UNL     1       0.416  10.851  19.256  0.00  0.00    +0.000 C 
ATOM     20  O   UNL     1       1.009  11.880  19.571  0.00  0.00    +0.000 OA
BRANCH  19  21
ATOM     21  C   UNL     1      -1.009  10.947  18.849  0.00  0.00    +0.000 A 
ATOM     22  C   UNL     1      -1.464  10.115  17.816  0.00  0.00    +0.000 A 
ATOM     23  C   UNL     1      -2.803  10.159  17.421  0.00  0.00    +0.000 A 
ATOM     24  C   UNL     1      -3.680  11.038  18.053  0.00  0.00    +0.000 A 
ATOM     25 CL   UNL     1      -5.333  11.084  17.576  0.00  0.00    +0.000 Cl
ATOM     26  C   UNL     1      -3.231  11.886  19.063  0.00  0.00    +0.000 A 
ATOM     27  C   UNL     1      -1.889  11.853  19.453  0.00  0.00    +0.000 A 
ENDBRANCH  19  21
ENDBRANCH   4  19
TORSDOF 6
ENDMDL
MODEL 6
REMARK VINA RESULT:      -8.6      0.522      1.564
REMARK  Name = 
REMARK  6 active torsions:
REMARK  status: ('A' for Active; 'I' for Inactive)
REMARK    1  A    between atoms: C_2  and  O_3
REMARK    2  A    between atoms: C_2  and  C_4
REMARK    3  A    between atoms: C_7  and  C_8
REMARK    4  A    between atoms: C_8  and  C_10
REMARK    5  A    between atoms: C_13  and  C_14
REMARK    6  A    between atoms: C_14  and  C_16
REMARK                            x       y       z     vdW  Elec       q    Type
REMARK                         _______ _______ _______ _____ _____    ______ ____
ROOT
ATOM      1  C   UNL     1       2.715   7.004  19.132  0.00  0.00    +0.000 A 
ATOM      2  C   UNL     1       2.042   7.344  20.312  0.00  0.00    +0.000 A 
ATOM      3  C   UNL     1       1.286   8.520  20.372  0.00  0.00    +0.000 A 
ATOM      4  C   UNL     1       1.194   9.357  19.252  0.00  0.00    +0.000 A 
ATOM      5  C   UNL     1       1.849   8.997  18.066  0.00  0.00    +0.000 A 
ATOM      6  C   UNL     1       2.578   7.808  17.998  0.00  0.00    +0.000 A 
ENDROOT
BRANCH   1   7
ATOM      7  C   UNL     1       3.575   5.795  19.111  0.00  0.00    +0.000 C 
ATOM      8  O   UNL     1       3.593   5.061  20.098  0.00  0.00    +0.000 OA
BRANCH   7  12
ATOM      9  C   UNL     1       6.036   5.023  15.672  0.00  0.00    +0.000 A 
ATOM     10  C   UNL     1       6.444   5.924  16.663  0.00  0.00    +0.000 A 
ATOM     11  C   UNL     1       5.647   6.141  17.791  0.00  0.00    +0.000 A 
ATOM     12  C   UNL     1       4.433   5.465  17.937  0.00  0.00    +0.000 A 
ATOM     13  C   UNL     1       4.023   4.559  16.945  0.00  0.00    +0.000 A 
ATOM     14  C   UNL     1       4.829   4.326  15.826  0.00  0.00    +0.000 A 
BRANCH   9  16
ATOM     15  O   UNL     1       6.486   3.995  13.571  0.00  0.00    +0.000 OA
ATOM     16  C   UNL     1       6.832   4.784  14.445  0.00  0.00    +0.000 C 
BRANCH  16  17
ATOM     17  O   UNL     1       7.924   5.566  14.334  0.00  0.00    +0.000 OA
ATOM     18  H   UNL     1       8.681   5.314  14.897  0.00  0.00    +0.000 HD
ENDBRANCH  16  17
ENDBRANCH   9  16
ENDBRANCH   7  12
ENDBRANCH   1   7
BRANCH   4  19
ATOM     19  C   UNL     1       0.458  10.644  19.383  0.00  0.00    +0.000 C 
ATOM     20  O   UNL     1       0.989  11.587  19.965  0.00  0.00    +0.000 OA
BRANCH  19  21
ATOM     21  C   UNL     1      -0.896  10.836  18.804  0.00  0.00    +0.000 A 
ATOM     22  C   UNL     1      -1.252  10.081  17.678  0.00  0.00    +0.000 A 
ATOM     23  C   UNL     1      -2.525  10.216  17.119  0.00  0.00    +0.000 A 
ATOM     24  C   UNL     1      -3.434  11.111  17.681  0.00  0.00    +0.000 A 
ATOM     25 CL   UNL     1      -5.007  11.269  17.001  0.00  0.00    +0.000 Cl
ATOM     26  C   UNL     1      -3.079  11.884  18.785  0.00  0.00    +0.000 A 
ATOM     27  C   UNL     1      -1.803  11.760  19.339  0.00  0.00    +0.000 A 
ENDBRANCH  19  21
ENDBRANCH   4  19
TORSDOF 6
ENDMDL
MODEL 7
REMARK VINA RESULT:      -8.6      1.105      1.562
REMARK  Name = 
REMARK  6 active torsions:
REMARK  status: ('A' for Active; 'I' for Inactive)
REMARK    1  A    between atoms: C_2  and  O_3
REMARK    2  A    between atoms: C_2  and  C_4
REMARK    3  A    between atoms: C_7  and  C_8
REMARK    4  A    between atoms: C_8  and  C_10
REMARK    5  A    between atoms: C_13  and  C_14
REMARK    6  A    between atoms: C_14  and  C_16
REMARK                            x       y       z     vdW  Elec       q    Type
REMARK                         _______ _______ _______ _____ _____    ______ ____
ROOT
ATOM      1  C   UNL     1       2.064   7.184  19.616  0.00  0.00    +0.000 A 
ATOM      2  C   UNL     1       2.157   7.866  18.397  0.00  0.00    +0.000 A 
ATOM      3  C   UNL     1       1.568   9.128  18.255  0.00  0.00    +0.000 A 
ATOM      4  C   UNL     1       0.891   9.715  19.332  0.00  0.00    +0.000 A 
ATOM      5  C   UNL     1       0.824   9.038  20.557  0.00  0.00    +0.000 A 
ATOM      6  C   UNL     1       1.438   7.792  20.706  0.00  0.00    +0.000 A 
ENDROOT
BRANCH   1   7
ATOM      7  C   UNL     1       2.625   5.815  19.725  0.00  0.00    +0.000 C 
ATOM      8  O   UNL     1       2.100   5.018  20.502  0.00  0.00    +0.000 OA
BRANCH   7  12
ATOM      9  C   UNL     1       6.129   4.778  17.460  0.00  0.00    +0.000 A 
ATOM     10  C   UNL     1       6.236   5.316  18.748  0.00  0.00    +0.000 A 
ATOM     11  C   UNL     1       5.087   5.618  19.485  0.00  0.00    +0.000 A 
ATOM     12  C   UNL     1       3.820   5.393  18.939  0.00  0.00    +0.000 A 
ATOM     13  C   UNL     1       3.711   4.852  17.648  0.00  0.00    +0.000 A 
ATOM     14  C   UNL     1       4.859   4.530  16.919  0.00  0.00    +0.000 A 
BRANCH   9  16
ATOM     15  O   UNL     1       7.362   4.692  15.425  0.00  0.00    +0.000 OA
ATOM     16  C   UNL     1       7.318   4.470  16.631  0.00  0.00    +0.000 C 
BRANCH  16  17
ATOM     17  O   UNL     1       8.372   4.002  17.328  0.00  0.00    +0.000 OA
ATOM     18  H   UNL     1       8.277   4.026  18.299  0.00  0.00    +0.000 HD
ENDBRANCH  16  17
ENDBRANCH   9  16
ENDBRANCH   7  12
ENDBRANCH   1   7
BRANCH   4  19
ATOM     19  C   UNL     1       0.199  11.015  19.114  0.00  0.00    +0.000 C 
ATOM     20  O   UNL     1       0.837  12.062  19.208  0.00  0.00    +0.000 OA
BRANCH  19  21
ATOM     21  C   UNL     1      -1.240  11.088  18.755  0.00  0.00    +0.000 A 
ATOM     22  C   UNL     1      -1.745  10.157  17.837  0.00  0.00    +0.000 A 
ATOM     23  C   UNL     1      -3.098  10.178  17.492  0.00  0.00    +0.000 A 
ATOM     24  C   UNL     1      -3.940  11.134  18.059  0.00  0.00    +0.000 A 
ATOM     25 CL   UNL     1      -5.610  11.153  17.645  0.00  0.00    +0.000 Cl
ATOM     26  C   UNL     1      -3.441  12.079  18.953  0.00  0.00    +0.000 A 
ATOM     27  C   UNL     1      -2.085  12.068  19.291  0.00  0.00    +0.000 A 
ENDBRANCH  19  21
ENDBRANCH   4  19
TORSDOF 6
ENDMDL
MODEL 8
REMARK VINA RESULT:      -8.4      1.061      1.258
REMARK  Name = 
REMARK  6 active torsions:
REMARK  status: ('A' for Active; 'I' for Inactive)
REMARK    1  A    between atoms: C_2  and  O_3
REMARK    2  A    between atoms: C_2  and  C_4
REMARK    3  A    between atoms: C_7  and  C_8
REMARK    4  A    between atoms: C_8  and  C_10
REMARK    5  A    between atoms: C_13  and  C_14
REMARK    6  A    between atoms: C_14  and  C_16
REMARK                            x       y       z     vdW  Elec       q    Type
REMARK                         _______ _______ _______ _____ _____    ______ ____
ROOT
ATOM      1  C   UNL     1       2.039   7.512  19.560  0.00  0.00    +0.000 A 
ATOM      2  C   UNL     1       2.051   8.153  18.315  0.00  0.00    +0.000 A 
ATOM      3  C   UNL     1       1.378   9.367  18.145  0.00  0.00    +0.000 A 
ATOM      4  C   UNL     1       0.697   9.952  19.222  0.00  0.00    +0.000 A 
ATOM      5  C   UNL     1       0.711   9.319  20.473  0.00  0.00    +0.000 A 
ATOM      6  C   UNL     1       1.408   8.121  20.647  0.00  0.00    +0.000 A 
ENDROOT
BRANCH   1   7
ATOM      7  C   UNL     1       2.691   6.187  19.700  0.00  0.00    +0.000 C 
ATOM      8  O   UNL     1       2.296   5.421  20.578  0.00  0.00    +0.000 OA
BRANCH   7  12
ATOM      9  C   UNL     1       6.068   5.120  17.265  0.00  0.00    +0.000 A 
ATOM     10  C   UNL     1       6.087   4.920  18.650  0.00  0.00    +0.000 A 
ATOM     11  C   UNL     1       4.969   5.242  19.424  0.00  0.00    +0.000 A 
ATOM     12  C   UNL     1       3.824   5.775  18.823  0.00  0.00    +0.000 A 
ATOM     13  C   UNL     1       3.804   5.974  17.434  0.00  0.00    +0.000 A 
ATOM     14  C   UNL     1       4.914   5.632  16.656  0.00  0.00    +0.000 A 
BRANCH   9  16
ATOM     15  O   UNL     1       7.355   5.254  15.265  0.00  0.00    +0.000 OA
ATOM     16  C   UNL     1       7.240   4.821  16.407  0.00  0.00    +0.000 C 
BRANCH  16  17
ATOM     17  O   UNL     1       8.203   4.104  17.019  0.00  0.00    +0.000 OA
ATOM     18  H   UNL     1       8.052   3.140  17.052  0.00  0.00    +0.000 HD
ENDBRANCH  16  17
ENDBRANCH   9  16
ENDBRANCH   7  12
ENDBRANCH   1   7
BRANCH   4  19
ATOM     19  C   UNL     1      -0.084  11.196  18.980  0.00  0.00    +0.000 C 
ATOM     20  O   UNL     1       0.490  12.282  19.000  0.00  0.00    +0.000 OA
BRANCH  19  21
ATOM     21  C   UNL     1      -1.539  11.164  18.682  0.00  0.00    +0.000 A 
ATOM     22  C   UNL     1      -2.365  12.113  19.301  0.00  0.00    +0.000 A 
ATOM     23  C   UNL     1      -3.735  12.130  19.029  0.00  0.00    +0.000 A 
ATOM     24  C   UNL     1      -4.275  11.195  18.147  0.00  0.00    +0.000 A 
ATOM     25 CL   UNL     1      -5.961  11.223  17.801  0.00  0.00    +0.000 Cl
ATOM     26  C   UNL     1      -3.465  10.233  17.548  0.00  0.00    +0.000 A 
ATOM     27  C   UNL     1      -2.095  10.205  17.827  0.00  0.00    +0.000 A 
ENDBRANCH  19  21
ENDBRANCH   4  19
TORSDOF 6
ENDMDL
MODEL 9
REMARK VINA RESULT:      -8.4      3.482      9.283
REMARK  Name = 
REMARK  6 active torsions:
REMARK  status: ('A' for Active; 'I' for Inactive)
REMARK    1  A    between atoms: C_2  and  O_3
REMARK    2  A    between atoms: C_2  and  C_4
REMARK    3  A    between atoms: C_7  and  C_8
REMARK    4  A    between atoms: C_8  and  C_10
REMARK    5  A    between atoms: C_13  and  C_14
REMARK    6  A    between atoms: C_14  and  C_16
REMARK                            x       y       z     vdW  Elec       q    Type
REMARK                         _______ _______ _______ _____ _____    ______ ____
ROOT
ATOM      1  C   UNL     1       0.945   9.926  18.990  0.00  0.00    +0.000 A 
ATOM      2  C   UNL     1       0.997   9.177  20.172  0.00  0.00    +0.000 A 
ATOM      3  C   UNL     1       1.699   7.967  20.203  0.00  0.00    +0.000 A 
ATOM      4  C   UNL     1       2.358   7.504  19.056  0.00  0.00    +0.000 A 
ATOM      5  C   UNL     1       2.323   8.272  17.884  0.00  0.00    +0.000 A 
ATOM      6  C   UNL     1       1.647   9.494  17.863  0.00  0.00    +0.000 A 
ENDROOT
BRANCH   1   7
ATOM      7  C   UNL     1       0.131  11.166  18.953  0.00  0.00    +0.000 C 
ATOM      8  O   UNL     1       0.671  12.239  19.219  0.00  0.00    +0.000 OA
BRANCH   7  12
ATOM      9  C   UNL     1      -4.099  11.064  18.196  0.00  0.00    +0.000 A 
ATOM     10  C   UNL     1      -3.537  12.051  19.014  0.00  0.00    +0.000 A 
ATOM     11  C   UNL     1      -2.156  12.090  19.225  0.00  0.00    +0.000 A 
ATOM     12  C   UNL     1      -1.324  11.139  18.627  0.00  0.00    +0.000 A 
ATOM     13  C   UNL     1      -1.886  10.150  17.805  0.00  0.00    +0.000 A 
ATOM     14  C   UNL     1      -3.265  10.122  17.576  0.00  0.00    +0.000 A 
BRANCH   9  16
ATOM     15  O   UNL     1      -6.304  10.313  18.695  0.00  0.00    +0.000 OA
ATOM     16  C   UNL     1      -5.561  10.964  17.968  0.00  0.00    +0.000 C 
BRANCH  16  17
ATOM     17  O   UNL     1      -6.012  11.714  16.944  0.00  0.00    +0.000 OA
ATOM     18  H   UNL     1      -5.614  11.521  16.074  0.00  0.00    +0.000 HD
ENDBRANCH  16  17
ENDBRANCH   9  16
ENDBRANCH   7  12
ENDBRANCH   1   7
BRANCH   4  19
ATOM     19  C   UNL     1       3.015   6.170  19.102  0.00  0.00    +0.000 C 
ATOM     20  O   UNL     1       2.815   5.431  20.064  0.00  0.00    +0.000 OA
BRANCH  19  21
ATOM     21  C   UNL     1       3.887   5.686  18.001  0.00  0.00    +0.000 A 
ATOM     22  C   UNL     1       3.678   4.391  17.506  0.00  0.00    +0.000 A 
ATOM     23  C   UNL     1       4.461   3.909  16.456  0.00  0.00    +0.000 A 
ATOM     24  C   UNL     1       5.457   4.718  15.910  0.00  0.00    +0.000 A 
ATOM     25 CL   UNL     1       6.415   4.130  14.607  0.00  0.00    +0.000 Cl
ATOM     26  C   UNL     1       5.688   5.997  16.413  0.00  0.00    +0.000 A 
ATOM     27  C   UNL     1       4.913   6.478  17.472  0.00  0.00    +0.000 A 
ENDBRANCH  19  21
ENDBRANCH   4  19
TORSDOF 6
ENDMDL
