MODEL 1
REMARK VINA RESULT:      -7.3      0.000      0.000
REMARK  Name = 
REMARK  7 active torsions:
REMARK  status: ('A' for Active; 'I' for Inactive)
REMARK    1  A    between atoms: C_1  and  C_2
REMARK    2  A    between atoms: C_5  and  S_6
REMARK    3  A    between atoms: S_6  and  N_9
REMARK    4  A    between atoms: N_9  and  C_10
REMARK    5  A    between atoms: C_10  and  C_11
REMARK    6  A    between atoms: C_11  and  S_12
REMARK    7  A    between atoms: S_12  and  C_13
REMARK                            x       y       z     vdW  Elec       q    Type
REMARK                         _______ _______ _______ _____ _____    ______ ____
ROOT
ATOM      1  N   UNL     1       6.998   7.554  17.169  0.00  0.00    +0.000 NA
ATOM      2  H   UNL     1       6.050   7.844  17.424  0.00  0.00    +0.000 HD
ENDROOT
BRANCH   1   3
ATOM      3  S   UNL     1       7.058   5.897  16.835  0.00  0.00    +0.000 S 
ATOM      4  O   UNL     1       7.888   5.263  17.835  0.00  0.00    +0.000 OA
ATOM      5  O   UNL     1       7.326   5.766  15.422  0.00  0.00    +0.000 OA
BRANCH   3  10
ATOM      6  C   UNL     1       1.377   4.063  17.970  0.00  0.00    +0.000 C 
ATOM      7  C   UNL     1       2.769   4.524  17.650  0.00  0.00    +0.000 A 
ATOM      8  C   UNL     1       3.695   3.653  17.061  0.00  0.00    +0.000 A 
ATOM      9  C   UNL     1       4.997   4.080  16.791  0.00  0.00    +0.000 A 
ATOM     10  C   UNL     1       5.374   5.387  17.108  0.00  0.00    +0.000 A 
ATOM     11  C   UNL     1       4.467   6.263  17.707  0.00  0.00    +0.000 A 
ATOM     12  C   UNL     1       3.162   5.832  17.967  0.00  0.00    +0.000 A 
ENDBRANCH   3  10
ENDBRANCH   1   3
BRANCH   1  13
ATOM     13  C   UNL     1       8.064   8.107  18.032  0.00  0.00    +0.000 C 
BRANCH  13  14
ATOM     14  C   UNL     1       8.266   9.607  17.787  0.00  0.00    +0.000 C 
BRANCH  14  15
ATOM     15  S   UNL     1       9.308  10.310  19.105  0.00  0.00    +0.000 S 
BRANCH  15  16
ATOM     16  C   UNL     1      10.183  11.567  18.265  0.00  0.00    +0.000 A 
ATOM     17  N   UNL     1      11.479  11.550  18.047  0.00  0.00    +0.000 NA
ATOM     18  N   UNL     1      11.898  12.694  17.382  0.00  0.00    +0.000 NA
ATOM     19  C   UNL     1      10.907  13.524  17.127  0.00  0.00    +0.000 A 
ATOM     20  N   UNL     1      11.028  14.710  16.511  0.00  0.00    +0.000 N 
ATOM     21  S   UNL     1       9.379  12.955  17.660  0.00  0.00    +0.000 S 
ATOM     22  H   UNL     1      11.891  14.891  16.010  0.00  0.00    +0.000 HD
ATOM     23  H   UNL     1      10.202  15.147  16.110  0.00  0.00    +0.000 HD
ENDBRANCH  15  16
ENDBRANCH  14  15
ENDBRANCH  13  14
ENDBRANCH   1  13
TORSDOF 6
ENDMDL
MODEL 2
REMARK VINA RESULT:      -6.7      5.488      7.137
REMARK  Name = 
REMARK  7 active torsions:
REMARK  status: ('A' for Active; 'I' for Inactive)
REMARK    1  A    between atoms: C_1  and  C_2
REMARK    2  A    between atoms: C_5  and  S_6
REMARK    3  A    between atoms: S_6  and  N_9
REMARK    4  A    between atoms: N_9  and  C_10
REMARK    5  A    between atoms: C_10  and  C_11
REMARK    6  A    between atoms: C_11  and  S_12
REMARK    7  A    between atoms: S_12  and  C_13
REMARK                            x       y       z     vdW  Elec       q    Type
REMARK                         _______ _______ _______ _____ _____    ______ ____
ROOT
ATOM      1  N   UNL     1       3.867   5.997  19.556  0.00  0.00    +0.000 NA
ATOM      2  H   UNL     1       3.756   6.512  20.433  0.00  0.00    +0.000 HD
ENDROOT
BRANCH   1   3
ATOM      3  S   UNL     1       2.869   6.632  18.347  0.00  0.00    +0.000 S 
ATOM      4  O   UNL     1       1.941   5.601  17.936  0.00  0.00    +0.000 OA
ATOM      5  O   UNL     1       3.732   7.306  17.405  0.00  0.00    +0.000 OA
BRANCH   3  10
ATOM      6  C   UNL     1      -0.051  10.996  21.405  0.00  0.00    +0.000 C 
ATOM      7  C   UNL     1       0.633   9.899  20.645  0.00  0.00    +0.000 A 
ATOM      8  C   UNL     1       1.029   8.720  21.289  0.00  0.00    +0.000 A 
ATOM      9  C   UNL     1       1.691   7.713  20.582  0.00  0.00    +0.000 A 
ATOM     10  C   UNL     1       1.954   7.884  19.221  0.00  0.00    +0.000 A 
ATOM     11  C   UNL     1       1.577   9.059  18.567  0.00  0.00    +0.000 A 
ATOM     12  C   UNL     1       0.907  10.059  19.279  0.00  0.00    +0.000 A 
ENDBRANCH   3  10
ENDBRANCH   1   3
BRANCH   1  13
ATOM     13  C   UNL     1       3.892   4.525  19.704  0.00  0.00    +0.000 C 
BRANCH  13  14
ATOM     14  C   UNL     1       5.129   3.913  19.034  0.00  0.00    +0.000 C 
BRANCH  14  15
ATOM     15  S   UNL     1       6.317   5.230  18.621  0.00  0.00    +0.000 S 
BRANCH  15  16
ATOM     16  C   UNL     1       6.591   4.971  16.915  0.00  0.00    +0.000 A 
ATOM     17  N   UNL     1       7.492   5.610  16.204  0.00  0.00    +0.000 NA
ATOM     18  N   UNL     1       7.462   5.217  14.872  0.00  0.00    +0.000 NA
ATOM     19  C   UNL     1       6.543   4.304  14.635  0.00  0.00    +0.000 A 
ATOM     20  N   UNL     1       6.284   3.758  13.437  0.00  0.00    +0.000 N 
ATOM     21  S   UNL     1       5.662   3.835  16.030  0.00  0.00    +0.000 S 
ATOM     22  H   UNL     1       6.975   3.884  12.705  0.00  0.00    +0.000 HD
ATOM     23  H   UNL     1       5.771   2.881  13.392  0.00  0.00    +0.000 HD
ENDBRANCH  15  16
ENDBRANCH  14  15
ENDBRANCH  13  14
ENDBRANCH   1  13
TORSDOF 6
ENDMDL
MODEL 3
REMARK VINA RESULT:      -6.6      5.593      6.895
REMARK  Name = 
REMARK  7 active torsions:
REMARK  status: ('A' for Active; 'I' for Inactive)
REMARK    1  A    between atoms: C_1  and  C_2
REMARK    2  A    between atoms: C_5  and  S_6
REMARK    3  A    between atoms: S_6  and  N_9
REMARK    4  A    between atoms: N_9  and  C_10
REMARK    5  A    between atoms: C_10  and  C_11
REMARK    6  A    between atoms: C_11  and  S_12
REMARK    7  A    between atoms: S_12  and  C_13
REMARK                            x       y       z     vdW  Elec       q    Type
REMARK                         _______ _______ _______ _____ _____    ______ ____
ROOT
ATOM      1  N   UNL     1       4.482   3.115  18.345  0.00  0.00    +0.000 NA
ATOM      2  H   UNL     1       4.848   2.705  17.482  0.00  0.00    +0.000 HD
ENDROOT
BRANCH   1   3
ATOM      3  S   UNL     1       2.793   3.185  18.317  0.00  0.00    +0.000 S 
ATOM      4  O   UNL     1       2.282   2.184  19.228  0.00  0.00    +0.000 OA
ATOM      5  O   UNL     1       2.400   3.228  16.927  0.00  0.00    +0.000 OA
BRANCH   3  10
ATOM      6  C   UNL     1       1.448   8.653  20.601  0.00  0.00    +0.000 C 
ATOM      7  C   UNL     1       1.820   7.309  20.048  0.00  0.00    +0.000 A 
ATOM      8  C   UNL     1       2.314   7.183  18.743  0.00  0.00    +0.000 A 
ATOM      9  C   UNL     1       2.633   5.927  18.223  0.00  0.00    +0.000 A 
ATOM     10  C   UNL     1       2.461   4.789  19.014  0.00  0.00    +0.000 A 
ATOM     11  C   UNL     1       1.958   4.896  20.313  0.00  0.00    +0.000 A 
ATOM     12  C   UNL     1       1.649   6.158  20.830  0.00  0.00    +0.000 A 
ENDBRANCH   3  10
ENDBRANCH   1   3
BRANCH   1  13
ATOM     13  C   UNL     1       5.199   4.325  18.805  0.00  0.00    +0.000 C 
BRANCH  13  14
ATOM     14  C   UNL     1       6.595   4.425  18.176  0.00  0.00    +0.000 C 
BRANCH  14  15
ATOM     15  S   UNL     1       6.671   5.879  17.081  0.00  0.00    +0.000 S 
BRANCH  15  16
ATOM     16  C   UNL     1       6.756   5.152  15.494  0.00  0.00    +0.000 A 
ATOM     17  N   UNL     1       7.598   5.520  14.555  0.00  0.00    +0.000 NA
ATOM     18  N   UNL     1       7.416   4.784  13.392  0.00  0.00    +0.000 NA
ATOM     19  C   UNL     1       6.448   3.897  13.500  0.00  0.00    +0.000 A 
ATOM     20  N   UNL     1       6.048   3.064  12.527  0.00  0.00    +0.000 N 
ATOM     21  S   UNL     1       5.704   3.877  15.045  0.00  0.00    +0.000 S 
ATOM     22  H   UNL     1       6.662   2.947  11.729  0.00  0.00    +0.000 HD
ATOM     23  H   UNL     1       5.505   2.241  12.773  0.00  0.00    +0.000 HD
ENDBRANCH  15  16
ENDBRANCH  14  15
ENDBRANCH  13  14
ENDBRANCH   1  13
TORSDOF 6
ENDMDL
MODEL 4
REMARK VINA RESULT:      -6.6      1.272      1.699
REMARK  Name = 
REMARK  7 active torsions:
REMARK  status: ('A' for Active; 'I' for Inactive)
REMARK    1  A    between atoms: C_1  and  C_2
REMARK    2  A    between atoms: C_5  and  S_6
REMARK    3  A    between atoms: S_6  and  N_9
REMARK    4  A    between atoms: N_9  and  C_10
REMARK    5  A    between atoms: C_10  and  C_11
REMARK    6  A    between atoms: C_11  and  S_12
REMARK    7  A    between atoms: S_12  and  C_13
REMARK                            x       y       z     vdW  Elec       q    Type
REMARK                         _______ _______ _______ _____ _____    ______ ____
ROOT
ATOM      1  N   UNL     1       7.134   7.570  17.182  0.00  0.00    +0.000 NA
ATOM      2  H   UNL     1       6.175   7.896  17.322  0.00  0.00    +0.000 HD
ENDROOT
BRANCH   1   3
ATOM      3  S   UNL     1       7.172   5.911  16.855  0.00  0.00    +0.000 S 
ATOM      4  O   UNL     1       8.042   5.278  17.821  0.00  0.00    +0.000 OA
ATOM      5  O   UNL     1       7.378   5.772  15.432  0.00  0.00    +0.000 OA
BRANCH   3  10
ATOM      6  C   UNL     1       1.401   4.280  17.832  0.00  0.00    +0.000 C 
ATOM      7  C   UNL     1       2.834   4.677  17.632  0.00  0.00    +0.000 A 
ATOM      8  C   UNL     1       3.255   5.991  17.877  0.00  0.00    +0.000 A 
ATOM      9  C   UNL     1       4.584   6.361  17.662  0.00  0.00    +0.000 A 
ATOM     10  C   UNL     1       5.500   5.411  17.203  0.00  0.00    +0.000 A 
ATOM     11  C   UNL     1       5.093   4.101  16.942  0.00  0.00    +0.000 A 
ATOM     12  C   UNL     1       3.763   3.735  17.168  0.00  0.00    +0.000 A 
ENDBRANCH   3  10
ENDBRANCH   1   3
BRANCH   1  13
ATOM     13  C   UNL     1       8.110   8.085  18.168  0.00  0.00    +0.000 C 
BRANCH  13  14
ATOM     14  C   UNL     1       8.418   9.569  17.932  0.00  0.00    +0.000 C 
BRANCH  14  15
ATOM     15  S   UNL     1       9.341  10.237  19.353  0.00  0.00    +0.000 S 
BRANCH  15  16
ATOM     16  C   UNL     1       9.346  11.954  19.027  0.00  0.00    +0.000 A 
ATOM     17  N   UNL     1       8.851  12.863  19.836  0.00  0.00    +0.000 NA
ATOM     18  N   UNL     1       8.970  14.139  19.301  0.00  0.00    +0.000 NA
ATOM     19  C   UNL     1       9.545  14.140  18.115  0.00  0.00    +0.000 A 
ATOM     20  N   UNL     1       9.772  15.228  17.365  0.00  0.00    +0.000 N 
ATOM     21  S   UNL     1      10.009  12.579  17.575  0.00  0.00    +0.000 S 
ATOM     22  H   UNL     1       9.703  16.133  17.818  0.00  0.00    +0.000 HD
ATOM     23  H   UNL     1      10.455  15.178  16.613  0.00  0.00    +0.000 HD
ENDBRANCH  15  16
ENDBRANCH  14  15
ENDBRANCH  13  14
ENDBRANCH   1  13
TORSDOF 6
ENDMDL
MODEL 5
REMARK VINA RESULT:      -6.5      5.221      7.943
REMARK  Name = 
REMARK  7 active torsions:
REMARK  status: ('A' for Active; 'I' for Inactive)
REMARK    1  A    between atoms: C_1  and  C_2
REMARK    2  A    between atoms: C_5  and  S_6
REMARK    3  A    between atoms: S_6  and  N_9
REMARK    4  A    between atoms: N_9  and  C_10
REMARK    5  A    between atoms: C_10  and  C_11
REMARK    6  A    between atoms: C_11  and  S_12
REMARK    7  A    between atoms: S_12  and  C_13
REMARK                            x       y       z     vdW  Elec       q    Type
REMARK                         _______ _______ _______ _____ _____    ______ ____
ROOT
ATOM      1  N   UNL     1       5.799   5.532  17.570  0.00  0.00    +0.000 NA
ATOM      2  H   UNL     1       5.870   4.957  18.413  0.00  0.00    +0.000 HD
ENDROOT
BRANCH   1   3
ATOM      3  S   UNL     1       7.198   5.404  16.628  0.00  0.00    +0.000 S 
ATOM      4  O   UNL     1       8.054   4.400  17.222  0.00  0.00    +0.000 OA
ATOM      5  O   UNL     1       7.657   6.750  16.377  0.00  0.00    +0.000 OA
BRANCH   3  10
ATOM      6  C   UNL     1       5.164   2.999  11.432  0.00  0.00    +0.000 C 
ATOM      7  C   UNL     1       5.654   3.631  12.702  0.00  0.00    +0.000 A 
ATOM      8  C   UNL     1       6.928   4.210  12.768  0.00  0.00    +0.000 A 
ATOM      9  C   UNL     1       7.390   4.772  13.960  0.00  0.00    +0.000 A 
ATOM     10  C   UNL     1       6.571   4.759  15.092  0.00  0.00    +0.000 A 
ATOM     11  C   UNL     1       5.303   4.174  15.045  0.00  0.00    +0.000 A 
ATOM     12  C   UNL     1       4.844   3.621  13.846  0.00  0.00    +0.000 A 
ENDBRANCH   3  10
ENDBRANCH   1   3
BRANCH   1  13
ATOM     13  C   UNL     1       5.259   6.891  17.794  0.00  0.00    +0.000 C 
BRANCH  13  14
ATOM     14  C   UNL     1       3.820   7.016  17.279  0.00  0.00    +0.000 C 
BRANCH  14  15
ATOM     15  S   UNL     1       2.654   6.823  18.665  0.00  0.00    +0.000 S 
BRANCH  15  16
ATOM     16  C   UNL     1       2.668   5.096  18.932  0.00  0.00    +0.000 A 
ATOM     17  N   UNL     1       3.456   4.485  19.788  0.00  0.00    +0.000 NA
ATOM     18  N   UNL     1       3.265   3.110  19.763  0.00  0.00    +0.000 NA
ATOM     19  C   UNL     1       2.347   2.741  18.892  0.00  0.00    +0.000 A 
ATOM     20  N   UNL     1       1.973   1.476  18.649  0.00  0.00    +0.000 N 
ATOM     21  S   UNL     1       1.627   4.054  18.055  0.00  0.00    +0.000 S 
ATOM     22  H   UNL     1       2.246   0.769  19.323  0.00  0.00    +0.000 HD
ATOM     23  H   UNL     1       1.086   1.303  18.184  0.00  0.00    +0.000 HD
ENDBRANCH  15  16
ENDBRANCH  14  15
ENDBRANCH  13  14
ENDBRANCH   1  13
TORSDOF 6
ENDMDL
MODEL 6
REMARK VINA RESULT:      -6.5      5.938      7.477
REMARK  Name = 
REMARK  7 active torsions:
REMARK  status: ('A' for Active; 'I' for Inactive)
REMARK    1  A    between atoms: C_1  and  C_2
REMARK    2  A    between atoms: C_5  and  S_6
REMARK    3  A    between atoms: S_6  and  N_9
REMARK    4  A    between atoms: N_9  and  C_10
REMARK    5  A    between atoms: C_10  and  C_11
REMARK    6  A    between atoms: C_11  and  S_12
REMARK    7  A    between atoms: S_12  and  C_13
REMARK                            x       y       z     vdW  Elec       q    Type
REMARK                         _______ _______ _______ _____ _____    ______ ____
ROOT
ATOM      1  N   UNL     1       2.480   2.984  19.474  0.00  0.00    +0.000 NA
ATOM      2  H   UNL     1       3.136   3.489  20.076  0.00  0.00    +0.000 HD
ENDROOT
BRANCH   1   3
ATOM      3  S   UNL     1       3.123   2.763  17.925  0.00  0.00    +0.000 S 
ATOM      4  O   UNL     1       2.087   3.053  16.958  0.00  0.00    +0.000 OA
ATOM      5  O   UNL     1       3.824   1.500  17.941  0.00  0.00    +0.000 OA
BRANCH   3  10
ATOM      6  C   UNL     1       7.451   7.006  17.498  0.00  0.00    +0.000 C 
ATOM      7  C   UNL     1       6.360   5.984  17.629  0.00  0.00    +0.000 A 
ATOM      8  C   UNL     1       6.320   5.116  18.727  0.00  0.00    +0.000 A 
ATOM      9  C   UNL     1       5.318   4.148  18.829  0.00  0.00    +0.000 A 
ATOM     10  C   UNL     1       4.348   4.051  17.828  0.00  0.00    +0.000 A 
ATOM     11  C   UNL     1       4.382   4.902  16.721  0.00  0.00    +0.000 A 
ATOM     12  C   UNL     1       5.383   5.874  16.630  0.00  0.00    +0.000 A 
ENDBRANCH   3  10
ENDBRANCH   1   3
BRANCH   1  13
ATOM     13  C   UNL     1       1.079   3.450  19.562  0.00  0.00    +0.000 C 
BRANCH  13  14
ATOM     14  C   UNL     1       0.940   4.638  20.522  0.00  0.00    +0.000 C 
BRANCH  14  15
ATOM     15  S   UNL     1       2.503   5.571  20.574  0.00  0.00    +0.000 S 
BRANCH  15  16
ATOM     16  C   UNL     1       2.018   7.151  20.006  0.00  0.00    +0.000 A 
ATOM     17  N   UNL     1       1.335   8.017  20.719  0.00  0.00    +0.000 NA
ATOM     18  N   UNL     1       1.071   9.174  19.998  0.00  0.00    +0.000 NA
ATOM     19  C   UNL     1       1.562   9.132  18.776  0.00  0.00    +0.000 A 
ATOM     20  N   UNL     1       1.441  10.104  17.859  0.00  0.00    +0.000 N 
ATOM     21  S   UNL     1       2.409   7.683  18.424  0.00  0.00    +0.000 S 
ATOM     22  H   UNL     1       1.149  11.020  18.182  0.00  0.00    +0.000 HD
ATOM     23  H   UNL     1       2.073  10.114  17.062  0.00  0.00    +0.000 HD
ENDBRANCH  15  16
ENDBRANCH  14  15
ENDBRANCH  13  14
ENDBRANCH   1  13
TORSDOF 6
ENDMDL
MODEL 7
REMARK VINA RESULT:      -6.5      4.933      6.215
REMARK  Name = 
REMARK  7 active torsions:
REMARK  status: ('A' for Active; 'I' for Inactive)
REMARK    1  A    between atoms: C_1  and  C_2
REMARK    2  A    between atoms: C_5  and  S_6
REMARK    3  A    between atoms: S_6  and  N_9
REMARK    4  A    between atoms: N_9  and  C_10
REMARK    5  A    between atoms: C_10  and  C_11
REMARK    6  A    between atoms: C_11  and  S_12
REMARK    7  A    between atoms: S_12  and  C_13
REMARK                            x       y       z     vdW  Elec       q    Type
REMARK                         _______ _______ _______ _____ _____    ______ ____
ROOT
ATOM      1  N   UNL     1       4.105   5.589  17.084  0.00  0.00    +0.000 NA
ATOM      2  H   UNL     1       4.743   6.388  17.099  0.00  0.00    +0.000 HD
ENDROOT
BRANCH   1   3
ATOM      3  S   UNL     1       3.305   5.420  18.564  0.00  0.00    +0.000 S 
ATOM      4  O   UNL     1       4.300   5.240  19.599  0.00  0.00    +0.000 OA
ATOM      5  O   UNL     1       2.237   4.470  18.356  0.00  0.00    +0.000 OA
BRANCH   3  10
ATOM      6  C   UNL     1       0.557  10.796  19.245  0.00  0.00    +0.000 C 
ATOM      7  C   UNL     1       1.273   9.487  19.082  0.00  0.00    +0.000 A 
ATOM      8  C   UNL     1       1.778   9.098  17.834  0.00  0.00    +0.000 A 
ATOM      9  C   UNL     1       2.419   7.867  17.682  0.00  0.00    +0.000 A 
ATOM     10  C   UNL     1       2.560   7.021  18.785  0.00  0.00    +0.000 A 
ATOM     11  C   UNL     1       2.051   7.390  20.032  0.00  0.00    +0.000 A 
ATOM     12  C   UNL     1       1.418   8.627  20.179  0.00  0.00    +0.000 A 
ENDBRANCH   3  10
ENDBRANCH   1   3
BRANCH   1  13
ATOM     13  C   UNL     1       4.669   4.362  16.478  0.00  0.00    +0.000 C 
BRANCH  13  14
ATOM     14  C   UNL     1       5.090   4.596  15.022  0.00  0.00    +0.000 C 
BRANCH  14  15
ATOM     15  S   UNL     1       6.884   4.904  14.944  0.00  0.00    +0.000 S 
BRANCH  15  16
ATOM     16  C   UNL     1       7.234   5.498  16.550  0.00  0.00    +0.000 A 
ATOM     17  N   UNL     1       7.205   6.766  16.894  0.00  0.00    +0.000 NA
ATOM     18  N   UNL     1       7.555   6.939  18.226  0.00  0.00    +0.000 NA
ATOM     19  C   UNL     1       7.835   5.802  18.829  0.00  0.00    +0.000 A 
ATOM     20  N   UNL     1       8.217   5.676  20.109  0.00  0.00    +0.000 N 
ATOM     21  S   UNL     1       7.664   4.427  17.818  0.00  0.00    +0.000 S 
ATOM     22  H   UNL     1       8.073   6.472  20.721  0.00  0.00    +0.000 HD
ATOM     23  H   UNL     1       8.139   4.770  20.563  0.00  0.00    +0.000 HD
ENDBRANCH  15  16
ENDBRANCH  14  15
ENDBRANCH  13  14
ENDBRANCH   1  13
TORSDOF 6
ENDMDL
MODEL 8
REMARK VINA RESULT:      -6.4      5.381      8.331
REMARK  Name = 
REMARK  7 active torsions:
REMARK  status: ('A' for Active; 'I' for Inactive)
REMARK    1  A    between atoms: C_1  and  C_2
REMARK    2  A    between atoms: C_5  and  S_6
REMARK    3  A    between atoms: S_6  and  N_9
REMARK    4  A    between atoms: N_9  and  C_10
REMARK    5  A    between atoms: C_10  and  C_11
REMARK    6  A    between atoms: C_11  and  S_12
REMARK    7  A    between atoms: S_12  and  C_13
REMARK                            x       y       z     vdW  Elec       q    Type
REMARK                         _______ _______ _______ _____ _____    ______ ____
ROOT
ATOM      1  N   UNL     1       5.164   5.935  18.230  0.00  0.00    +0.000 NA
ATOM      2  H   UNL     1       5.099   6.090  19.239  0.00  0.00    +0.000 HD
ENDROOT
BRANCH   1   3
ATOM      3  S   UNL     1       6.759   5.617  17.766  0.00  0.00    +0.000 S 
ATOM      4  O   UNL     1       7.293   4.600  18.646  0.00  0.00    +0.000 OA
ATOM      5  O   UNL     1       7.407   6.896  17.593  0.00  0.00    +0.000 OA
BRANCH   3  10
ATOM      6  C   UNL     1       5.894   3.325  12.206  0.00  0.00    +0.000 C 
ATOM      7  C   UNL     1       6.131   3.857  13.589  0.00  0.00    +0.000 A 
ATOM      8  C   UNL     1       5.327   3.448  14.661  0.00  0.00    +0.000 A 
ATOM      9  C   UNL     1       5.535   3.968  15.940  0.00  0.00    +0.000 A 
ATOM     10  C   UNL     1       6.555   4.899  16.150  0.00  0.00    +0.000 A 
ATOM     11  C   UNL     1       7.356   5.326  15.089  0.00  0.00    +0.000 A 
ATOM     12  C   UNL     1       7.148   4.795  13.812  0.00  0.00    +0.000 A 
ENDBRANCH   3  10
ENDBRANCH   1   3
BRANCH   1  13
ATOM     13  C   UNL     1       4.403   6.901  17.408  0.00  0.00    +0.000 C 
BRANCH  13  14
ATOM     14  C   UNL     1       2.916   6.909  17.782  0.00  0.00    +0.000 C 
BRANCH  14  15
ATOM     15  S   UNL     1       2.729   6.564  19.560  0.00  0.00    +0.000 S 
BRANCH  15  16
ATOM     16  C   UNL     1       1.980   4.985  19.562  0.00  0.00    +0.000 A 
ATOM     17  N   UNL     1       1.413   4.435  20.612  0.00  0.00    +0.000 NA
ATOM     18  N   UNL     1       0.930   3.166  20.322  0.00  0.00    +0.000 NA
ATOM     19  C   UNL     1       1.153   2.812  19.073  0.00  0.00    +0.000 A 
ATOM     20  N   UNL     1       0.807   1.635  18.528  0.00  0.00    +0.000 N 
ATOM     21  S   UNL     1       1.948   4.017  18.148  0.00  0.00    +0.000 S 
ATOM     22  H   UNL     1       0.140   1.063  19.033  0.00  0.00    +0.000 HD
ATOM     23  H   UNL     1       0.760   1.554  17.515  0.00  0.00    +0.000 HD
ENDBRANCH  15  16
ENDBRANCH  14  15
ENDBRANCH  13  14
ENDBRANCH   1  13
TORSDOF 6
ENDMDL
MODEL 9
REMARK VINA RESULT:      -6.4      5.346      6.630
REMARK  Name = 
REMARK  7 active torsions:
REMARK  status: ('A' for Active; 'I' for Inactive)
REMARK    1  A    between atoms: C_1  and  C_2
REMARK    2  A    between atoms: C_5  and  S_6
REMARK    3  A    between atoms: S_6  and  N_9
REMARK    4  A    between atoms: N_9  and  C_10
REMARK    5  A    between atoms: C_10  and  C_11
REMARK    6  A    between atoms: C_11  and  S_12
REMARK    7  A    between atoms: S_12  and  C_13
REMARK                            x       y       z     vdW  Elec       q    Type
REMARK                         _______ _______ _______ _____ _____    ______ ____
ROOT
ATOM      1  N   UNL     1       5.476   6.184  17.812  0.00  0.00    +0.000 NA
ATOM      2  H   UNL     1       4.844   6.439  17.049  0.00  0.00    +0.000 HD
ENDROOT
BRANCH   1   3
ATOM      3  S   UNL     1       6.983   5.698  17.217  0.00  0.00    +0.000 S 
ATOM      4  O   UNL     1       7.483   4.637  18.064  0.00  0.00    +0.000 OA
ATOM      5  O   UNL     1       7.741   6.901  16.968  0.00  0.00    +0.000 OA
BRANCH   3  10
ATOM      6  C   UNL     1       5.681   3.105  11.878  0.00  0.00    +0.000 C 
ATOM      7  C   UNL     1       5.987   3.782  13.182  0.00  0.00    +0.000 A 
ATOM      8  C   UNL     1       7.175   4.505  13.353  0.00  0.00    +0.000 A 
ATOM      9  C   UNL     1       7.468   5.109  14.577  0.00  0.00    +0.000 A 
ATOM     10  C   UNL     1       6.565   4.994  15.637  0.00  0.00    +0.000 A 
ATOM     11  C   UNL     1       5.382   4.266  15.486  0.00  0.00    +0.000 A 
ATOM     12  C   UNL     1       5.091   3.671  14.255  0.00  0.00    +0.000 A 
ENDBRANCH   3  10
ENDBRANCH   1   3
BRANCH   1  13
ATOM     13  C   UNL     1       4.864   5.345  18.865  0.00  0.00    +0.000 C 
BRANCH  13  14
ATOM     14  C   UNL     1       3.348   5.214  18.670  0.00  0.00    +0.000 C 
BRANCH  14  15
ATOM     15  S   UNL     1       2.480   6.215  19.920  0.00  0.00    +0.000 S 
BRANCH  15  16
ATOM     16  C   UNL     1       2.173   7.706  19.062  0.00  0.00    +0.000 A 
ATOM     17  N   UNL     1       2.650   7.987  17.870  0.00  0.00    +0.000 NA
ATOM     18  N   UNL     1       2.263   9.253  17.453  0.00  0.00    +0.000 NA
ATOM     19  C   UNL     1       1.517   9.874  18.343  0.00  0.00    +0.000 A 
ATOM     20  N   UNL     1       1.019  11.112  18.209  0.00  0.00    +0.000 N 
ATOM     21  S   UNL     1       1.207   8.943  19.750  0.00  0.00    +0.000 S 
ATOM     22  H   UNL     1       1.025  11.522  17.281  0.00  0.00    +0.000 HD
ATOM     23  H   UNL     1       0.241  11.400  18.797  0.00  0.00    +0.000 HD
ENDBRANCH  15  16
ENDBRANCH  14  15
ENDBRANCH  13  14
ENDBRANCH   1  13
TORSDOF 6
ENDMDL
