MODEL 1
REMARK VINA RESULT:      -6.9      0.000      0.000
REMARK  Name = 
REMARK  11 active torsions:
REMARK  status: ('A' for Active; 'I' for Inactive)
REMARK    1  A    between atoms: C_1  and  C_2
REMARK    2  A    between atoms: C_2  and  C_3
REMARK    3  A    between atoms: C_2  and  C_4
REMARK    4  A    between atoms: C_7  and  N_8
REMARK    5  A    between atoms: C_9  and  C_11
REMARK    6  A    between atoms: C_17  and  N_18
REMARK    7  A    between atoms: C_22  and  O_24
REMARK    8  A    between atoms: O_24  and  C_25
REMARK    9  A    between atoms: C_25  and  C_26
REMARK   10  A    between atoms: C_25  and  C_27
REMARK   11  A    between atoms: C_25  and  C_28
REMARK                            x       y       z     vdW  Elec       q    Type
REMARK                         _______ _______ _______ _____ _____    ______ ____
ROOT
ATOM      1  C   UNL     1      -2.120  10.658  17.833  0.00  0.00    +0.000 A 
ATOM      2  C   UNL     1      -2.134  11.985  18.232  0.00  0.00    +0.000 A 
ATOM      3  C   UNL     1      -1.034  12.526  18.893  0.00  0.00    +0.000 A 
ATOM      4  C   UNL     1       0.120  11.770  19.177  0.00  0.00    +0.000 A 
ATOM      5  C   UNL     1       0.189  10.417  18.739  0.00  0.00    +0.000 A 
ATOM      6  C   UNL     1      -0.968   9.897  18.104  0.00  0.00    +0.000 A 
ENDROOT
BRANCH   5   7
ATOM      7  N   UNL     1       1.293   9.578  18.884  0.00  0.00    +0.000 N 
ATOM      8  C   UNL     1       1.462   8.651  20.014  0.00  0.00    +0.000 C 
ATOM      9  C   UNL     1       1.707   7.211  19.528  0.00  0.00    +0.000 C 
ATOM     10  N   UNL     1       2.781   7.150  18.533  0.00  0.00    +0.000 N 
ATOM     11  C   UNL     1       3.907   6.399  18.798  0.00  0.00    +0.000 C 
ATOM     12  O   UNL     1       4.045   5.774  19.843  0.00  0.00    +0.000 OA
ATOM     13  C   UNL     1       2.575   8.019  17.374  0.00  0.00    +0.000 C 
ATOM     14  C   UNL     1       2.320   9.479  17.812  0.00  0.00    +0.000 C 
BRANCH  11  15
ATOM     15  O   UNL     1       4.841   6.433  17.801  0.00  0.00    +0.000 OA
BRANCH  15  16
ATOM     16  C   UNL     1       5.150   5.205  17.078  0.00  0.00    +0.000 C 
ATOM     17  C   UNL     1       3.964   4.228  17.084  0.00  0.00    +0.000 C 
ATOM     18  C   UNL     1       5.413   5.612  15.617  0.00  0.00    +0.000 C 
ATOM     19  C   UNL     1       6.434   4.560  17.619  0.00  0.00    +0.000 C 
ENDBRANCH  15  16
ENDBRANCH  11  15
ENDBRANCH   5   7
BRANCH   4  20
ATOM     20  N   UNL     1       1.217  12.401  19.841  0.00  0.00    +0.000 N 
ATOM     21  C   UNL     1       2.152  13.228  19.229  0.00  0.00    +0.000 C 
ATOM     22  O   UNL     1       2.193  13.517  18.036  0.00  0.00    +0.000 OA
ATOM     23  H   UNL     1       1.192  12.338  20.850  0.00  0.00    +0.000 HD
BRANCH  21  24
ATOM     24  C   UNL     1       3.156  13.893  20.087  0.00  0.00    +0.000 A 
ATOM     25  C   UNL     1       4.221  14.662  19.618  0.00  0.00    +0.000 A 
ATOM     26  C   UNL     1       5.080  15.261  20.544  0.00  0.00    +0.000 A 
ATOM     27  C   UNL     1       4.848  15.069  21.899  0.00  0.00    +0.000 A 
ATOM     28  N   UNL     1       3.821  14.344  22.385  0.00  0.00    +0.000 NA
ATOM     29  C   UNL     1       2.993  13.785  21.468  0.00  0.00    +0.000 A 
ENDBRANCH  21  24
ENDBRANCH   4  20
BRANCH   1  31
ATOM     30  C   UNL     1      -4.521  11.022  17.197  0.00  0.00    +0.000 C 
ATOM     31  C   UNL     1      -3.315  10.086  17.094  0.00  0.00    +0.000 C 
ATOM     32  C   UNL     1      -2.986   9.763  15.637  0.00  0.00    +0.000 C 
ENDBRANCH   1  31
TORSDOF 6
ENDMDL
MODEL 2
REMARK VINA RESULT:      -6.6      0.615      1.197
REMARK  Name = 
REMARK  11 active torsions:
REMARK  status: ('A' for Active; 'I' for Inactive)
REMARK    1  A    between atoms: C_1  and  C_2
REMARK    2  A    between atoms: C_2  and  C_3
REMARK    3  A    between atoms: C_2  and  C_4
REMARK    4  A    between atoms: C_7  and  N_8
REMARK    5  A    between atoms: C_9  and  C_11
REMARK    6  A    between atoms: C_17  and  N_18
REMARK    7  A    between atoms: C_22  and  O_24
REMARK    8  A    between atoms: O_24  and  C_25
REMARK    9  A    between atoms: C_25  and  C_26
REMARK   10  A    between atoms: C_25  and  C_27
REMARK   11  A    between atoms: C_25  and  C_28
REMARK                            x       y       z     vdW  Elec       q    Type
REMARK                         _______ _______ _______ _____ _____    ______ ____
ROOT
ATOM      1  C   UNL     1      -2.223  10.646  18.142  0.00  0.00    +0.000 A 
ATOM      2  C   UNL     1      -2.212  11.983  18.508  0.00  0.00    +0.000 A 
ATOM      3  C   UNL     1      -1.073  12.539  19.084  0.00  0.00    +0.000 A 
ATOM      4  C   UNL     1       0.097  11.790  19.314  0.00  0.00    +0.000 A 
ATOM      5  C   UNL     1       0.139  10.426  18.906  0.00  0.00    +0.000 A 
ATOM      6  C   UNL     1      -1.056   9.891  18.360  0.00  0.00    +0.000 A 
ENDROOT
BRANCH   5   7
ATOM      7  N   UNL     1       1.251   9.590  19.003  0.00  0.00    +0.000 N 
ATOM      8  C   UNL     1       1.466   8.657  20.119  0.00  0.00    +0.000 C 
ATOM      9  C   UNL     1       1.697   7.221  19.616  0.00  0.00    +0.000 C 
ATOM     10  N   UNL     1       2.732   7.169  18.579  0.00  0.00    +0.000 N 
ATOM     11  C   UNL     1       3.869   6.421  18.794  0.00  0.00    +0.000 C 
ATOM     12  O   UNL     1       4.051   5.789  19.829  0.00  0.00    +0.000 OA
ATOM     13  C   UNL     1       2.477   8.044  17.434  0.00  0.00    +0.000 C 
ATOM     14  C   UNL     1       2.235   9.501  17.891  0.00  0.00    +0.000 C 
BRANCH  11  15
ATOM     15  O   UNL     1       4.763   6.464  17.762  0.00  0.00    +0.000 OA
BRANCH  15  16
ATOM     16  C   UNL     1       5.020   5.250  16.996  0.00  0.00    +0.000 C 
ATOM     17  C   UNL     1       5.331   5.563  15.523  0.00  0.00    +0.000 C 
ATOM     18  C   UNL     1       6.273   4.601  17.610  0.00  0.00    +0.000 C 
ATOM     19  C   UNL     1       3.861   4.253  17.143  0.00  0.00    +0.000 C 
ENDBRANCH  15  16
ENDBRANCH  11  15
ENDBRANCH   5   7
BRANCH   4  20
ATOM     20  N   UNL     1       1.233  12.436  19.892  0.00  0.00    +0.000 N 
ATOM     21  C   UNL     1       2.127  13.247  19.202  0.00  0.00    +0.000 C 
ATOM     22  O   UNL     1       2.092  13.507  18.002  0.00  0.00    +0.000 OA
ATOM     23  H   UNL     1       1.272  12.398  20.902  0.00  0.00    +0.000 HD
BRANCH  21  24
ATOM     24  C   UNL     1       3.183  13.933  19.978  0.00  0.00    +0.000 A 
ATOM     25  C   UNL     1       3.337  13.850  21.361  0.00  0.00    +0.000 A 
ATOM     26  C   UNL     1       4.401  14.527  21.963  0.00  0.00    +0.000 A 
ATOM     27  C   UNL     1       5.268  15.262  21.166  0.00  0.00    +0.000 A 
ATOM     28  N   UNL     1       5.155  15.352  19.827  0.00  0.00    +0.000 NA
ATOM     29  C   UNL     1       4.124  14.675  19.263  0.00  0.00    +0.000 A 
ENDBRANCH  21  24
ENDBRANCH   4  20
BRANCH   1  31
ATOM     30  C   UNL     1      -4.667  10.981  17.681  0.00  0.00    +0.000 C 
ATOM     31  C   UNL     1      -3.462  10.057  17.495  0.00  0.00    +0.000 C 
ATOM     32  C   UNL     1      -3.235   9.729  16.019  0.00  0.00    +0.000 C 
ENDBRANCH   1  31
TORSDOF 6
ENDMDL
MODEL 3
REMARK VINA RESULT:      -6.4      4.272      8.859
REMARK  Name = 
REMARK  11 active torsions:
REMARK  status: ('A' for Active; 'I' for Inactive)
REMARK    1  A    between atoms: C_1  and  C_2
REMARK    2  A    between atoms: C_2  and  C_3
REMARK    3  A    between atoms: C_2  and  C_4
REMARK    4  A    between atoms: C_7  and  N_8
REMARK    5  A    between atoms: C_9  and  C_11
REMARK    6  A    between atoms: C_17  and  N_18
REMARK    7  A    between atoms: C_22  and  O_24
REMARK    8  A    between atoms: O_24  and  C_25
REMARK    9  A    between atoms: C_25  and  C_26
REMARK   10  A    between atoms: C_25  and  C_27
REMARK   11  A    between atoms: C_25  and  C_28
REMARK                            x       y       z     vdW  Elec       q    Type
REMARK                         _______ _______ _______ _____ _____    ______ ____
ROOT
ATOM      1  C   UNL     1       0.789  16.064  18.882  0.00  0.00    +0.000 A 
ATOM      2  C   UNL     1       1.887  15.397  18.360  0.00  0.00    +0.000 A 
ATOM      3  C   UNL     1       2.077  14.046  18.636  0.00  0.00    +0.000 A 
ATOM      4  C   UNL     1       1.183  13.307  19.436  0.00  0.00    +0.000 A 
ATOM      5  C   UNL     1       0.019  13.947  19.948  0.00  0.00    +0.000 A 
ATOM      6  C   UNL     1      -0.114  15.333  19.675  0.00  0.00    +0.000 A 
ENDROOT
BRANCH   5   7
ATOM      7  N   UNL     1      -0.985  13.323  20.688  0.00  0.00    +0.000 N 
ATOM      8  C   UNL     1      -0.846  12.981  22.112  0.00  0.00    +0.000 C 
ATOM      9  C   UNL     1      -1.999  13.567  22.946  0.00  0.00    +0.000 C 
ATOM     10  N   UNL     1      -3.306  13.238  22.372  0.00  0.00    +0.000 N 
ATOM     11  C   UNL     1      -4.207  12.505  23.116  0.00  0.00    +0.000 C 
ATOM     12  O   UNL     1      -3.955  12.115  24.250  0.00  0.00    +0.000 OA
ATOM     13  C   UNL     1      -3.468  13.646  20.977  0.00  0.00    +0.000 C 
ATOM     14  C   UNL     1      -2.328  13.083  20.097  0.00  0.00    +0.000 C 
BRANCH  11  15
ATOM     15  O   UNL     1      -5.382  12.251  22.467  0.00  0.00    +0.000 OA
BRANCH  15  16
ATOM     16  C   UNL     1      -6.544  13.085  22.751  0.00  0.00    +0.000 C 
ATOM     17  C   UNL     1      -7.247  13.539  21.462  0.00  0.00    +0.000 C 
ATOM     18  C   UNL     1      -7.532  12.205  23.537  0.00  0.00    +0.000 C 
ATOM     19  C   UNL     1      -6.161  14.270  23.649  0.00  0.00    +0.000 C 
ENDBRANCH  15  16
ENDBRANCH  11  15
ENDBRANCH   5   7
BRANCH   4  20
ATOM     20  N   UNL     1       1.435  11.918  19.659  0.00  0.00    +0.000 N 
ATOM     21  C   UNL     1       0.792  10.875  19.002  0.00  0.00    +0.000 C 
ATOM     22  O   UNL     1      -0.097  10.986  18.162  0.00  0.00    +0.000 OA
ATOM     23  H   UNL     1       2.246  11.723  20.230  0.00  0.00    +0.000 HD
BRANCH  21  24
ATOM     24  C   UNL     1       1.256   9.497  19.268  0.00  0.00    +0.000 A 
ATOM     25  C   UNL     1       1.946   8.698  18.357  0.00  0.00    +0.000 A 
ATOM     26  C   UNL     1       2.354   7.421  18.752  0.00  0.00    +0.000 A 
ATOM     27  C   UNL     1       2.058   6.988  20.037  0.00  0.00    +0.000 A 
ATOM     28  N   UNL     1       1.405   7.739  20.946  0.00  0.00    +0.000 NA
ATOM     29  C   UNL     1       1.032   8.979  20.545  0.00  0.00    +0.000 A 
ENDBRANCH  21  24
ENDBRANCH   4  20
BRANCH   1  31
ATOM     30  C   UNL     1       1.374  17.933  17.311  0.00  0.00    +0.000 C 
ATOM     31  C   UNL     1       0.580  17.531  18.556  0.00  0.00    +0.000 C 
ATOM     32  C   UNL     1      -0.901  17.878  18.406  0.00  0.00    +0.000 C 
ENDBRANCH   1  31
TORSDOF 6
ENDMDL
MODEL 4
REMARK VINA RESULT:      -6.1      3.964      8.814
REMARK  Name = 
REMARK  11 active torsions:
REMARK  status: ('A' for Active; 'I' for Inactive)
REMARK    1  A    between atoms: C_1  and  C_2
REMARK    2  A    between atoms: C_2  and  C_3
REMARK    3  A    between atoms: C_2  and  C_4
REMARK    4  A    between atoms: C_7  and  N_8
REMARK    5  A    between atoms: C_9  and  C_11
REMARK    6  A    between atoms: C_17  and  N_18
REMARK    7  A    between atoms: C_22  and  O_24
REMARK    8  A    between atoms: O_24  and  C_25
REMARK    9  A    between atoms: C_25  and  C_26
REMARK   10  A    between atoms: C_25  and  C_27
REMARK   11  A    between atoms: C_25  and  C_28
REMARK                            x       y       z     vdW  Elec       q    Type
REMARK                         _______ _______ _______ _____ _____    ______ ____
ROOT
ATOM      1  C   UNL     1       1.543  14.892  18.618  0.00  0.00    +0.000 A 
ATOM      2  C   UNL     1       2.488  14.030  18.084  0.00  0.00    +0.000 A 
ATOM      3  C   UNL     1       2.442  12.672  18.387  0.00  0.00    +0.000 A 
ATOM      4  C   UNL     1       1.455  12.120  19.227  0.00  0.00    +0.000 A 
ATOM      5  C   UNL     1       0.440  12.967  19.754  0.00  0.00    +0.000 A 
ATOM      6  C   UNL     1       0.547  14.349  19.451  0.00  0.00    +0.000 A 
ENDROOT
BRANCH   5   7
ATOM      7  N   UNL     1      -0.637  12.546  20.533  0.00  0.00    +0.000 N 
ATOM      8  C   UNL     1      -0.524  12.232  21.966  0.00  0.00    +0.000 C 
ATOM      9  C   UNL     1      -1.540  13.031  22.800  0.00  0.00    +0.000 C 
ATOM     10  N   UNL     1      -2.899  12.910  22.262  0.00  0.00    +0.000 N 
ATOM     11  C   UNL     1      -3.891  12.365  23.047  0.00  0.00    +0.000 C 
ATOM     12  O   UNL     1      -3.682  11.974  24.190  0.00  0.00    +0.000 OA
ATOM     13  C   UNL     1      -3.022  13.295  20.855  0.00  0.00    +0.000 C 
ATOM     14  C   UNL     1      -2.015  12.519  19.976  0.00  0.00    +0.000 C 
BRANCH  11  15
ATOM     15  O   UNL     1      -5.108  12.293  22.429  0.00  0.00    +0.000 OA
BRANCH  15  16
ATOM     16  C   UNL     1      -6.149  13.245  22.800  0.00  0.00    +0.000 C 
ATOM     17  C   UNL     1      -7.046  13.600  21.604  0.00  0.00    +0.000 C 
ATOM     18  C   UNL     1      -7.028  12.545  23.852  0.00  0.00    +0.000 C 
ATOM     19  C   UNL     1      -5.541  14.493  23.457  0.00  0.00    +0.000 C 
ENDBRANCH  15  16
ENDBRANCH  11  15
ENDBRANCH   5   7
BRANCH   4  20
ATOM     20  N   UNL     1       1.462  10.713  19.475  0.00  0.00    +0.000 N 
ATOM     21  C   UNL     1       1.821   9.740  18.548  0.00  0.00    +0.000 C 
ATOM     22  O   UNL     1       2.155   9.938  17.383  0.00  0.00    +0.000 OA
ATOM     23  H   UNL     1       1.337  10.455  20.445  0.00  0.00    +0.000 HD
BRANCH  21  24
ATOM     24  C   UNL     1       1.885   8.336  19.006  0.00  0.00    +0.000 A 
ATOM     25  C   UNL     1       2.316   7.262  18.227  0.00  0.00    +0.000 A 
ATOM     26  C   UNL     1       2.355   5.987  18.798  0.00  0.00    +0.000 A 
ATOM     27  C   UNL     1       1.963   5.830  20.121  0.00  0.00    +0.000 A 
ATOM     28  N   UNL     1       1.554   6.847  20.904  0.00  0.00    +0.000 NA
ATOM     29  C   UNL     1       1.538   8.077  20.333  0.00  0.00    +0.000 A 
ENDBRANCH  21  24
ENDBRANCH   4  20
BRANCH   1  31
ATOM     30  C   UNL     1       0.597  17.165  19.110  0.00  0.00    +0.000 C 
ATOM     31  C   UNL     1       1.589  16.366  18.263  0.00  0.00    +0.000 C 
ATOM     32  C   UNL     1       3.003  16.937  18.377  0.00  0.00    +0.000 C 
ENDBRANCH   1  31
TORSDOF 6
ENDMDL
MODEL 5
REMARK VINA RESULT:      -6.1      3.237      6.216
REMARK  Name = 
REMARK  11 active torsions:
REMARK  status: ('A' for Active; 'I' for Inactive)
REMARK    1  A    between atoms: C_1  and  C_2
REMARK    2  A    between atoms: C_2  and  C_3
REMARK    3  A    between atoms: C_2  and  C_4
REMARK    4  A    between atoms: C_7  and  N_8
REMARK    5  A    between atoms: C_9  and  C_11
REMARK    6  A    between atoms: C_17  and  N_18
REMARK    7  A    between atoms: C_22  and  O_24
REMARK    8  A    between atoms: O_24  and  C_25
REMARK    9  A    between atoms: C_25  and  C_26
REMARK   10  A    between atoms: C_25  and  C_27
REMARK   11  A    between atoms: C_25  and  C_28
REMARK                            x       y       z     vdW  Elec       q    Type
REMARK                         _______ _______ _______ _____ _____    ______ ____
ROOT
ATOM      1  C   UNL     1      -1.680  14.037  23.255  0.00  0.00    +0.000 A 
ATOM      2  C   UNL     1      -2.633  14.419  22.323  0.00  0.00    +0.000 A 
ATOM      3  C   UNL     1      -2.726  13.748  21.107  0.00  0.00    +0.000 A 
ATOM      4  C   UNL     1      -1.881  12.671  20.774  0.00  0.00    +0.000 A 
ATOM      5  C   UNL     1      -0.924  12.220  21.726  0.00  0.00    +0.000 A 
ATOM      6  C   UNL     1      -0.837  12.957  22.935  0.00  0.00    +0.000 A 
ENDROOT
BRANCH   5   7
ATOM      7  N   UNL     1      -0.078  11.124  21.561  0.00  0.00    +0.000 N 
ATOM      8  C   UNL     1      -0.226   9.868  22.313  0.00  0.00    +0.000 C 
ATOM      9  C   UNL     1      -0.317   8.655  21.370  0.00  0.00    +0.000 C 
ATOM     10  N   UNL     1       0.774   8.646  20.390  0.00  0.00    +0.000 N 
ATOM     11  C   UNL     1       1.654   7.586  20.367  0.00  0.00    +0.000 C 
ATOM     12  O   UNL     1       1.560   6.639  21.140  0.00  0.00    +0.000 OA
ATOM     13  C   UNL     1       0.871   9.868  19.592  0.00  0.00    +0.000 C 
ATOM     14  C   UNL     1       0.961  11.118  20.497  0.00  0.00    +0.000 C 
BRANCH  11  15
ATOM     15  O   UNL     1       2.632   7.701  19.420  0.00  0.00    +0.000 OA
BRANCH  15  16
ATOM     16  C   UNL     1       3.055   6.512  18.689  0.00  0.00    +0.000 C 
ATOM     17  C   UNL     1       1.855   5.745  18.110  0.00  0.00    +0.000 C 
ATOM     18  C   UNL     1       3.908   7.005  17.507  0.00  0.00    +0.000 C 
ATOM     19  C   UNL     1       3.945   5.618  19.564  0.00  0.00    +0.000 C 
ENDBRANCH  15  16
ENDBRANCH  11  15
ENDBRANCH   5   7
BRANCH   4  20
ATOM     20  N   UNL     1      -2.051  12.019  19.514  0.00  0.00    +0.000 N 
ATOM     21  C   UNL     1      -3.277  11.727  18.925  0.00  0.00    +0.000 C 
ATOM     22  O   UNL     1      -4.384  11.957  19.403  0.00  0.00    +0.000 OA
ATOM     23  H   UNL     1      -1.202  11.912  18.975  0.00  0.00    +0.000 HD
BRANCH  21  24
ATOM     24  C   UNL     1      -3.272  11.153  17.562  0.00  0.00    +0.000 A 
ATOM     25  C   UNL     1      -4.190  11.468  16.561  0.00  0.00    +0.000 A 
ATOM     26  C   UNL     1      -4.050  10.873  15.304  0.00  0.00    +0.000 A 
ATOM     27  C   UNL     1      -3.003   9.986  15.093  0.00  0.00    +0.000 A 
ATOM     28  N   UNL     1      -2.092   9.670  16.034  0.00  0.00    +0.000 NA
ATOM     29  C   UNL     1      -2.239  10.271  17.241  0.00  0.00    +0.000 A 
ENDBRANCH  21  24
ENDBRANCH   4  20
BRANCH   1  31
ATOM     30  C   UNL     1      -0.814  16.066  24.452  0.00  0.00    +0.000 C 
ATOM     31  C   UNL     1      -1.603  14.761  24.585  0.00  0.00    +0.000 C 
ATOM     32  C   UNL     1      -2.988  15.008  25.184  0.00  0.00    +0.000 C 
ENDBRANCH   1  31
TORSDOF 6
ENDMDL
MODEL 6
REMARK VINA RESULT:      -6.1      4.826     10.123
REMARK  Name = 
REMARK  11 active torsions:
REMARK  status: ('A' for Active; 'I' for Inactive)
REMARK    1  A    between atoms: C_1  and  C_2
REMARK    2  A    between atoms: C_2  and  C_3
REMARK    3  A    between atoms: C_2  and  C_4
REMARK    4  A    between atoms: C_7  and  N_8
REMARK    5  A    between atoms: C_9  and  C_11
REMARK    6  A    between atoms: C_17  and  N_18
REMARK    7  A    between atoms: C_22  and  O_24
REMARK    8  A    between atoms: O_24  and  C_25
REMARK    9  A    between atoms: C_25  and  C_26
REMARK   10  A    between atoms: C_25  and  C_27
REMARK   11  A    between atoms: C_25  and  C_28
REMARK                            x       y       z     vdW  Elec       q    Type
REMARK                         _______ _______ _______ _____ _____    ______ ____
ROOT
ATOM      1  C   UNL     1       0.298   9.979  19.011  0.00  0.00    +0.000 A 
ATOM      2  C   UNL     1      -0.519   9.800  17.905  0.00  0.00    +0.000 A 
ATOM      3  C   UNL     1      -1.692  10.538  17.778  0.00  0.00    +0.000 A 
ATOM      4  C   UNL     1      -2.094  11.485  18.740  0.00  0.00    +0.000 A 
ATOM      5  C   UNL     1      -1.256  11.731  19.864  0.00  0.00    +0.000 A 
ATOM      6  C   UNL     1      -0.091  10.929  19.974  0.00  0.00    +0.000 A 
ENDROOT
BRANCH   5   7
ATOM      7  N   UNL     1      -1.491  12.688  20.851  0.00  0.00    +0.000 N 
ATOM      8  C   UNL     1      -0.741  13.949  20.950  0.00  0.00    +0.000 C 
ATOM      9  C   UNL     1      -1.684  15.165  20.972  0.00  0.00    +0.000 C 
ATOM     10  N   UNL     1      -2.741  15.013  21.976  0.00  0.00    +0.000 N 
ATOM     11  C   UNL     1      -2.838  15.929  23.001  0.00  0.00    +0.000 C 
ATOM     12  O   UNL     1      -2.067  16.876  23.108  0.00  0.00    +0.000 OA
ATOM     13  C   UNL     1      -3.535  13.793  21.830  0.00  0.00    +0.000 C 
ATOM     14  C   UNL     1      -2.629  12.541  21.798  0.00  0.00    +0.000 C 
BRANCH  11  15
ATOM     15  O   UNL     1      -3.853  15.671  23.879  0.00  0.00    +0.000 OA
BRANCH  15  16
ATOM     16  C   UNL     1      -5.031  16.531  23.872  0.00  0.00    +0.000 C 
ATOM     17  C   UNL     1      -5.150  17.321  22.559  0.00  0.00    +0.000 C 
ATOM     18  C   UNL     1      -6.253  15.600  23.970  0.00  0.00    +0.000 C 
ATOM     19  C   UNL     1      -5.047  17.449  25.103  0.00  0.00    +0.000 C 
ENDBRANCH  15  16
ENDBRANCH  11  15
ENDBRANCH   5   7
BRANCH   4  20
ATOM     20  N   UNL     1      -3.302  12.219  18.530  0.00  0.00    +0.000 N 
ATOM     21  C   UNL     1      -4.550  11.652  18.296  0.00  0.00    +0.000 C 
ATOM     22  O   UNL     1      -4.797  10.452  18.209  0.00  0.00    +0.000 OA
ATOM     23  H   UNL     1      -3.233  13.210  18.719  0.00  0.00    +0.000 HD
BRANCH  21  24
ATOM     24  C   UNL     1      -5.719  12.555  18.215  0.00  0.00    +0.000 A 
ATOM     25  C   UNL     1      -6.325  12.970  17.030  0.00  0.00    +0.000 A 
ATOM     26  C   UNL     1      -7.445  13.803  17.101  0.00  0.00    +0.000 A 
ATOM     27  C   UNL     1      -7.916  14.193  18.347  0.00  0.00    +0.000 A 
ATOM     28  N   UNL     1      -7.361  13.799  19.510  0.00  0.00    +0.000 NA
ATOM     29  C   UNL     1      -6.285  12.980  19.417  0.00  0.00    +0.000 A 
ENDBRANCH  21  24
ENDBRANCH   4  20
BRANCH   1  31
ATOM     30  C   UNL     1       1.511   8.193  20.291  0.00  0.00    +0.000 C 
ATOM     31  C   UNL     1       1.584   9.185  19.128  0.00  0.00    +0.000 C 
ATOM     32  C   UNL     1       1.943   8.481  17.819  0.00  0.00    +0.000 C 
ENDBRANCH   1  31
TORSDOF 6
ENDMDL
MODEL 7
REMARK VINA RESULT:      -6.0      3.496      7.719
REMARK  Name = 
REMARK  11 active torsions:
REMARK  status: ('A' for Active; 'I' for Inactive)
REMARK    1  A    between atoms: C_1  and  C_2
REMARK    2  A    between atoms: C_2  and  C_3
REMARK    3  A    between atoms: C_2  and  C_4
REMARK    4  A    between atoms: C_7  and  N_8
REMARK    5  A    between atoms: C_9  and  C_11
REMARK    6  A    between atoms: C_17  and  N_18
REMARK    7  A    between atoms: C_22  and  O_24
REMARK    8  A    between atoms: O_24  and  C_25
REMARK    9  A    between atoms: C_25  and  C_26
REMARK   10  A    between atoms: C_25  and  C_27
REMARK   11  A    between atoms: C_25  and  C_28
REMARK                            x       y       z     vdW  Elec       q    Type
REMARK                         _______ _______ _______ _____ _____    ______ ____
ROOT
ATOM      1  C   UNL     1       2.010   8.021  18.596  0.00  0.00    +0.000 A 
ATOM      2  C   UNL     1       2.741   8.882  17.791  0.00  0.00    +0.000 A 
ATOM      3  C   UNL     1       2.395  10.229  17.718  0.00  0.00    +0.000 A 
ATOM      4  C   UNL     1       1.316  10.770  18.444  0.00  0.00    +0.000 A 
ATOM      5  C   UNL     1       0.575   9.926  19.318  0.00  0.00    +0.000 A 
ATOM      6  C   UNL     1       0.936   8.554  19.332  0.00  0.00    +0.000 A 
ENDROOT
BRANCH   5   7
ATOM      7  N   UNL     1      -0.465  10.341  20.150  0.00  0.00    +0.000 N 
ATOM      8  C   UNL     1      -0.351  10.409  21.614  0.00  0.00    +0.000 C 
ATOM      9  C   UNL     1      -0.724  11.805  22.144  0.00  0.00    +0.000 C 
ATOM     10  N   UNL     1      -2.016  12.257  21.618  0.00  0.00    +0.000 N 
ATOM     11  C   UNL     1      -3.045  12.530  22.494  0.00  0.00    +0.000 C 
ATOM     12  O   UNL     1      -2.921  12.409  23.708  0.00  0.00    +0.000 OA
ATOM     13  C   UNL     1      -2.101  12.259  20.158  0.00  0.00    +0.000 C 
ATOM     14  C   UNL     1      -1.729  10.875  19.577  0.00  0.00    +0.000 C 
BRANCH  11  15
ATOM     15  O   UNL     1      -4.200  12.928  21.883  0.00  0.00    +0.000 OA
BRANCH  15  16
ATOM     16  C   UNL     1      -4.602  14.327  21.969  0.00  0.00    +0.000 C 
ATOM     17  C   UNL     1      -3.387  15.259  22.106  0.00  0.00    +0.000 C 
ATOM     18  C   UNL     1      -5.301  14.665  20.640  0.00  0.00    +0.000 C 
ATOM     19  C   UNL     1      -5.622  14.536  23.097  0.00  0.00    +0.000 C 
ENDBRANCH  15  16
ENDBRANCH  11  15
ENDBRANCH   5   7
BRANCH   4  20
ATOM     20  N   UNL     1       1.036  12.167  18.332  0.00  0.00    +0.000 N 
ATOM     21  C   UNL     1       1.457  13.140  19.232  0.00  0.00    +0.000 C 
ATOM     22  O   UNL     1       2.102  12.948  20.259  0.00  0.00    +0.000 OA
ATOM     23  H   UNL     1       0.629  12.447  17.450  0.00  0.00    +0.000 HD
BRANCH  21  24
ATOM     24  C   UNL     1       1.178  14.555  18.904  0.00  0.00    +0.000 A 
ATOM     25  C   UNL     1      -0.092  15.127  18.858  0.00  0.00    +0.000 A 
ATOM     26  C   UNL     1      -0.209  16.489  18.563  0.00  0.00    +0.000 A 
ATOM     27  C   UNL     1       0.942  17.227  18.324  0.00  0.00    +0.000 A 
ATOM     28  N   UNL     1       2.184  16.707  18.374  0.00  0.00    +0.000 NA
ATOM     29  C   UNL     1       2.274  15.388  18.676  0.00  0.00    +0.000 A 
ENDBRANCH  21  24
ENDBRANCH   4  20
BRANCH   1  31
ATOM     30  C   UNL     1       3.821   6.345  18.133  0.00  0.00    +0.000 C 
ATOM     31  C   UNL     1       2.410   6.561  18.684  0.00  0.00    +0.000 C 
ATOM     32  C   UNL     1       2.280   6.018  20.107  0.00  0.00    +0.000 C 
ENDBRANCH   1  31
TORSDOF 6
ENDMDL
MODEL 8
REMARK VINA RESULT:      -5.9      4.430      9.478
REMARK  Name = 
REMARK  11 active torsions:
REMARK  status: ('A' for Active; 'I' for Inactive)
REMARK    1  A    between atoms: C_1  and  C_2
REMARK    2  A    between atoms: C_2  and  C_3
REMARK    3  A    between atoms: C_2  and  C_4
REMARK    4  A    between atoms: C_7  and  N_8
REMARK    5  A    between atoms: C_9  and  C_11
REMARK    6  A    between atoms: C_17  and  N_18
REMARK    7  A    between atoms: C_22  and  O_24
REMARK    8  A    between atoms: O_24  and  C_25
REMARK    9  A    between atoms: C_25  and  C_26
REMARK   10  A    between atoms: C_25  and  C_27
REMARK   11  A    between atoms: C_25  and  C_28
REMARK                            x       y       z     vdW  Elec       q    Type
REMARK                         _______ _______ _______ _____ _____    ______ ____
ROOT
ATOM      1  C   UNL     1       3.875  14.962  19.442  0.00  0.00    +0.000 A 
ATOM      2  C   UNL     1       3.804  14.146  18.323  0.00  0.00    +0.000 A 
ATOM      3  C   UNL     1       2.606  13.517  17.995  0.00  0.00    +0.000 A 
ATOM      4  C   UNL     1       1.435  13.679  18.761  0.00  0.00    +0.000 A 
ATOM      5  C   UNL     1       1.458  14.548  19.888  0.00  0.00    +0.000 A 
ATOM      6  C   UNL     1       2.708  15.137  20.209  0.00  0.00    +0.000 A 
ENDROOT
BRANCH   5   7
ATOM      7  N   UNL     1       0.359  14.859  20.688  0.00  0.00    +0.000 N 
ATOM      8  C   UNL     1      -0.571  15.960  20.392  0.00  0.00    +0.000 C 
ATOM      9  C   UNL     1      -2.028  15.467  20.342  0.00  0.00    +0.000 C 
ATOM     10  N   UNL     1      -2.378  14.685  21.532  0.00  0.00    +0.000 N 
ATOM     11  C   UNL     1      -3.397  15.121  22.352  0.00  0.00    +0.000 C 
ATOM     12  O   UNL     1      -4.029  16.146  22.123  0.00  0.00    +0.000 OA
ATOM     13  C   UNL     1      -1.495  13.546  21.781  0.00  0.00    +0.000 C 
ATOM     14  C   UNL     1      -0.015  13.992  21.837  0.00  0.00    +0.000 C 
BRANCH  11  15
ATOM     15  O   UNL     1      -3.617  14.316  23.434  0.00  0.00    +0.000 OA
BRANCH  15  16
ATOM     16  C   UNL     1      -4.826  13.501  23.476  0.00  0.00    +0.000 C 
ATOM     17  C   UNL     1      -5.081  12.792  22.137  0.00  0.00    +0.000 C 
ATOM     18  C   UNL     1      -4.586  12.416  24.541  0.00  0.00    +0.000 C 
ATOM     19  C   UNL     1      -6.034  14.336  23.927  0.00  0.00    +0.000 C 
ENDBRANCH  15  16
ENDBRANCH  11  15
ENDBRANCH   5   7
BRANCH   4  20
ATOM     20  N   UNL     1       0.239  13.016  18.348  0.00  0.00    +0.000 N 
ATOM     21  C   UNL     1      -0.140  11.736  18.738  0.00  0.00    +0.000 C 
ATOM     22  O   UNL     1       0.500  10.981  19.464  0.00  0.00    +0.000 OA
ATOM     23  H   UNL     1      -0.424  13.604  17.860  0.00  0.00    +0.000 HD
BRANCH  21  24
ATOM     24  C   UNL     1      -1.468  11.245  18.311  0.00  0.00    +0.000 A 
ATOM     25  C   UNL     1      -1.684  10.132  17.500  0.00  0.00    +0.000 A 
ATOM     26  C   UNL     1      -2.997   9.760  17.198  0.00  0.00    +0.000 A 
ATOM     27  C   UNL     1      -4.044  10.512  17.715  0.00  0.00    +0.000 A 
ATOM     28  N   UNL     1      -3.870  11.584  18.512  0.00  0.00    +0.000 NA
ATOM     29  C   UNL     1      -2.588  11.917  18.802  0.00  0.00    +0.000 A 
ENDBRANCH  21  24
ENDBRANCH   4  20
BRANCH   1  31
ATOM     30  C   UNL     1       5.530  15.481  21.256  0.00  0.00    +0.000 C 
ATOM     31  C   UNL     1       5.179  15.660  19.778  0.00  0.00    +0.000 C 
ATOM     32  C   UNL     1       6.323  15.198  18.876  0.00  0.00    +0.000 C 
ENDBRANCH   1  31
TORSDOF 6
ENDMDL
MODEL 9
REMARK VINA RESULT:      -5.9      3.802      7.898
REMARK  Name = 
REMARK  11 active torsions:
REMARK  status: ('A' for Active; 'I' for Inactive)
REMARK    1  A    between atoms: C_1  and  C_2
REMARK    2  A    between atoms: C_2  and  C_3
REMARK    3  A    between atoms: C_2  and  C_4
REMARK    4  A    between atoms: C_7  and  N_8
REMARK    5  A    between atoms: C_9  and  C_11
REMARK    6  A    between atoms: C_17  and  N_18
REMARK    7  A    between atoms: C_22  and  O_24
REMARK    8  A    between atoms: O_24  and  C_25
REMARK    9  A    between atoms: C_25  and  C_26
REMARK   10  A    between atoms: C_25  and  C_27
REMARK   11  A    between atoms: C_25  and  C_28
REMARK                            x       y       z     vdW  Elec       q    Type
REMARK                         _______ _______ _______ _____ _____    ______ ____
ROOT
ATOM      1  C   UNL     1       1.564   8.829  18.947  0.00  0.00    +0.000 A 
ATOM      2  C   UNL     1       2.228   9.538  17.957  0.00  0.00    +0.000 A 
ATOM      3  C   UNL     1       1.983  10.899  17.792  0.00  0.00    +0.000 A 
ATOM      4  C   UNL     1       1.075  11.605  18.606  0.00  0.00    +0.000 A 
ATOM      5  C   UNL     1       0.413  10.920  19.663  0.00  0.00    +0.000 A 
ATOM      6  C   UNL     1       0.662   9.528  19.770  0.00  0.00    +0.000 A 
ENDROOT
BRANCH   5   7
ATOM      7  N   UNL     1      -0.449  11.508  20.588  0.00  0.00    +0.000 N 
ATOM      8  C   UNL     1      -0.031  11.918  21.937  0.00  0.00    +0.000 C 
ATOM      9  C   UNL     1      -0.369  13.395  22.206  0.00  0.00    +0.000 C 
ATOM     10  N   UNL     1      -1.768  13.698  21.891  0.00  0.00    +0.000 N 
ATOM     11  C   UNL     1      -2.602  14.157  22.888  0.00  0.00    +0.000 C 
ATOM     12  O   UNL     1      -2.216  14.325  24.039  0.00  0.00    +0.000 OA
ATOM     13  C   UNL     1      -2.161  13.357  20.524  0.00  0.00    +0.000 C 
ATOM     14  C   UNL     1      -1.837  11.879  20.204  0.00  0.00    +0.000 C 
BRANCH  11  15
ATOM     15  O   UNL     1      -3.883  14.389  22.473  0.00  0.00    +0.000 OA
BRANCH  15  16
ATOM     16  C   UNL     1      -4.964  13.579  23.023  0.00  0.00    +0.000 C 
ATOM     17  C   UNL     1      -6.064  14.449  23.651  0.00  0.00    +0.000 C 
ATOM     18  C   UNL     1      -5.588  12.820  21.838  0.00  0.00    +0.000 C 
ATOM     19  C   UNL     1      -4.419  12.535  24.009  0.00  0.00    +0.000 C 
ENDBRANCH  15  16
ENDBRANCH  11  15
ENDBRANCH   5   7
BRANCH   4  20
ATOM     20  N   UNL     1       0.893  13.006  18.388  0.00  0.00    +0.000 N 
ATOM     21  C   UNL     1       1.559  14.014  19.076  0.00  0.00    +0.000 C 
ATOM     22  O   UNL     1       2.374  13.858  19.980  0.00  0.00    +0.000 OA
ATOM     23  H   UNL     1       0.346  13.238  17.569  0.00  0.00    +0.000 HD
BRANCH  21  24
ATOM     24  C   UNL     1       1.337  15.411  18.644  0.00  0.00    +0.000 A 
ATOM     25  C   UNL     1       0.104  16.063  18.654  0.00  0.00    +0.000 A 
ATOM     26  C   UNL     1       0.043  17.398  18.247  0.00  0.00    +0.000 A 
ATOM     27  C   UNL     1       1.210  18.033  17.844  0.00  0.00    +0.000 A 
ATOM     28  N   UNL     1       2.419  17.436  17.835  0.00  0.00    +0.000 NA
ATOM     29  C   UNL     1       2.456  16.145  18.248  0.00  0.00    +0.000 A 
ENDBRANCH  21  24
ENDBRANCH   4  20
BRANCH   1  31
ATOM     30  C   UNL     1       3.136   6.951  18.396  0.00  0.00    +0.000 C 
ATOM     31  C   UNL     1       1.855   7.352  19.131  0.00  0.00    +0.000 C 
ATOM     32  C   UNL     1       1.917   6.962  20.608  0.00  0.00    +0.000 C 
ENDBRANCH   1  31
TORSDOF 6
ENDMDL
