MODEL 1
REMARK VINA RESULT:      -9.5      0.000      0.000
REMARK  Name = 
REMARK  5 active torsions:
REMARK  status: ('A' for Active; 'I' for Inactive)
REMARK    1  A    between atoms: C_1  and  C_2
REMARK    2  A    between atoms: C_5  and  N_6
REMARK    3  A    between atoms: N_9  and  C_10
REMARK    4  A    between atoms: C_17  and  C_18
REMARK    5  A    between atoms: C_30  and  C_31
REMARK                            x       y       z     vdW  Elec       q    Type
REMARK                         _______ _______ _______ _____ _____    ______ ____
ROOT
ATOM      1  N   UNL     1       3.286   6.283  19.537  0.00  0.00    +0.000 N 
ATOM      2  C   UNL     1       2.427   7.321  19.310  0.00  0.00    +0.000 C 
ATOM      3  O   UNL     1       2.003   7.508  18.182  0.00  0.00    +0.000 OA
ATOM      4  N   UNL     1       1.932   8.056  20.356  0.00  0.00    +0.000 N 
ATOM      5  H   UNL     1       3.495   6.020  20.510  0.00  0.00    +0.000 HD
ATOM      6  H   UNL     1       2.310   7.889  21.303  0.00  0.00    +0.000 HD
ENDROOT
BRANCH   1  11
ATOM      7  C   UNL     1       7.764   8.250  17.698  0.00  0.00    +0.000 C 
ATOM      8  C   UNL     1       6.872   7.104  17.324  0.00  0.00    +0.000 A 
ATOM      9  C   UNL     1       5.695   6.852  18.033  0.00  0.00    +0.000 A 
ATOM     10  C   UNL     1       4.907   5.734  17.719  0.00  0.00    +0.000 A 
ATOM     11  C   UNL     1       3.740   5.427  18.476  0.00  0.00    +0.000 A 
ATOM     12  C   UNL     1       3.033   4.245  18.192  0.00  0.00    +0.000 A 
ATOM     13  C   UNL     1       3.437   3.411  17.157  0.00  0.00    +0.000 A 
ATOM     14  C   UNL     1       4.563   3.711  16.396  0.00  0.00    +0.000 A 
ATOM     15  C   UNL     1       5.326   4.867  16.663  0.00  0.00    +0.000 A 
ATOM     16  C   UNL     1       6.506   5.196  15.933  0.00  0.00    +0.000 A 
ATOM     17  C   UNL     1       7.057   4.400  14.772  0.00  0.00    +0.000 C 
ATOM     18  N   UNL     1       7.229   6.289  16.301  0.00  0.00    +0.000 NA
ENDBRANCH   1  11
BRANCH   4  19
ATOM     19  C   UNL     1       0.690   8.816  20.214  0.00  0.00    +0.000 C 
ATOM     20  C   UNL     1       0.827  10.302  19.758  0.00  0.00    +0.000 C 
ATOM     21  C   UNL     1       1.045  11.320  20.897  0.00  0.00    +0.000 C 
ATOM     22  N   UNL     1       0.091  11.046  21.970  0.00  0.00    +0.000 N 
ATOM     23  C   UNL     1      -0.938  11.953  22.426  0.00  0.00    +0.000 A 
ATOM     24  C   UNL     1      -0.949  13.332  22.124  0.00  0.00    +0.000 A 
ATOM     25  C   UNL     1      -1.961  14.149  22.649  0.00  0.00    +0.000 A 
ATOM     26  C   UNL     1      -2.974  13.604  23.454  0.00  0.00    +0.000 A 
ATOM     27  C   UNL     1      -2.955  12.228  23.695  0.00  0.00    +0.000 A 
ATOM     28  N   UNL     1      -1.953  11.461  23.196  0.00  0.00    +0.000 NA
ATOM     29  C   UNL     1       0.194   9.713  22.546  0.00  0.00    +0.000 C 
ATOM     30  C   UNL     1      -0.201   8.704  21.472  0.00  0.00    +0.000 C 
BRANCH  26  31
ATOM     31  C   UNL     1      -4.056  14.455  24.077  0.00  0.00    +0.000 C 
ATOM     32  F   UNL     1      -4.369  15.544  23.283  0.00  0.00    +0.000 F 
ATOM     33  F   UNL     1      -5.199  13.702  24.270  0.00  0.00    +0.000 F 
ATOM     34  F   UNL     1      -3.614  14.922  25.303  0.00  0.00    +0.000 F 
ENDBRANCH  26  31
ENDBRANCH   4  19
TORSDOF 3
ENDMDL
MODEL 2
REMARK VINA RESULT:      -8.4      1.590      2.897
REMARK  Name = 
REMARK  5 active torsions:
REMARK  status: ('A' for Active; 'I' for Inactive)
REMARK    1  A    between atoms: C_1  and  C_2
REMARK    2  A    between atoms: C_5  and  N_6
REMARK    3  A    between atoms: N_9  and  C_10
REMARK    4  A    between atoms: C_17  and  C_18
REMARK    5  A    between atoms: C_30  and  C_31
REMARK                            x       y       z     vdW  Elec       q    Type
REMARK                         _______ _______ _______ _____ _____    ______ ____
ROOT
ATOM      1  N   UNL     1       3.846   7.668  18.052  0.00  0.00    +0.000 N 
ATOM      2  C   UNL     1       2.610   8.231  17.905  0.00  0.00    +0.000 C 
ATOM      3  O   UNL     1       1.724   7.592  17.362  0.00  0.00    +0.000 OA
ATOM      4  N   UNL     1       2.321   9.439  18.486  0.00  0.00    +0.000 N 
ATOM      5  H   UNL     1       4.529   8.133  18.666  0.00  0.00    +0.000 HD
ATOM      6  H   UNL     1       3.086   9.969  18.935  0.00  0.00    +0.000 HD
ENDROOT
BRANCH   1  11
ATOM      7  C   UNL     1       1.651   4.173  21.255  0.00  0.00    +0.000 C 
ATOM      8  C   UNL     1       2.538   4.101  20.049  0.00  0.00    +0.000 A 
ATOM      9  C   UNL     1       2.979   5.263  19.413  0.00  0.00    +0.000 A 
ATOM     10  C   UNL     1       3.749   5.181  18.243  0.00  0.00    +0.000 A 
ATOM     11  C   UNL     1       4.149   6.358  17.547  0.00  0.00    +0.000 A 
ATOM     12  C   UNL     1       4.836   6.230  16.327  0.00  0.00    +0.000 A 
ATOM     13  C   UNL     1       5.162   4.974  15.828  0.00  0.00    +0.000 A 
ATOM     14  C   UNL     1       4.796   3.818  16.509  0.00  0.00    +0.000 A 
ATOM     15  C   UNL     1       4.076   3.892  17.720  0.00  0.00    +0.000 A 
ATOM     16  C   UNL     1       3.649   2.733  18.433  0.00  0.00    +0.000 A 
ATOM     17  C   UNL     1       3.944   1.308  18.028  0.00  0.00    +0.000 C 
ATOM     18  N   UNL     1       2.893   2.888  19.555  0.00  0.00    +0.000 NA
ENDBRANCH   1  11
BRANCH   4  19
ATOM     19  C   UNL     1       0.937   9.824  18.762  0.00  0.00    +0.000 C 
ATOM     20  C   UNL     1       0.574  11.327  18.551  0.00  0.00    +0.000 C 
ATOM     21  C   UNL     1       0.825  12.240  19.770  0.00  0.00    +0.000 C 
ATOM     22  N   UNL     1       0.288  11.595  20.966  0.00  0.00    +0.000 N 
ATOM     23  C   UNL     1      -0.776  12.119  21.793  0.00  0.00    +0.000 A 
ATOM     24  C   UNL     1      -1.210  13.461  21.743  0.00  0.00    +0.000 A 
ATOM     25  C   UNL     1      -2.216  13.898  22.616  0.00  0.00    +0.000 A 
ATOM     26  C   UNL     1      -2.812  13.006  23.523  0.00  0.00    +0.000 A 
ATOM     27  C   UNL     1      -2.387  11.675  23.513  0.00  0.00    +0.000 A 
ATOM     28  N   UNL     1      -1.395  11.281  22.675  0.00  0.00    +0.000 NA
ATOM     29  C   UNL     1       0.868  10.294  21.265  0.00  0.00    +0.000 C 
ATOM     30  C   UNL     1       0.468   9.333  20.150  0.00  0.00    +0.000 C 
BRANCH  26  31
ATOM     31  C   UNL     1      -3.867  13.444  24.512  0.00  0.00    +0.000 C 
ATOM     32  F   UNL     1      -4.904  14.115  23.888  0.00  0.00    +0.000 F 
ATOM     33  F   UNL     1      -4.382  12.345  25.173  0.00  0.00    +0.000 F 
ATOM     34  F   UNL     1      -3.292  14.297  25.438  0.00  0.00    +0.000 F 
ENDBRANCH  26  31
ENDBRANCH   4  19
TORSDOF 3
ENDMDL
MODEL 3
REMARK VINA RESULT:      -8.1      1.904      2.186
REMARK  Name = 
REMARK  5 active torsions:
REMARK  status: ('A' for Active; 'I' for Inactive)
REMARK    1  A    between atoms: C_1  and  C_2
REMARK    2  A    between atoms: C_5  and  N_6
REMARK    3  A    between atoms: N_9  and  C_10
REMARK    4  A    between atoms: C_17  and  C_18
REMARK    5  A    between atoms: C_30  and  C_31
REMARK                            x       y       z     vdW  Elec       q    Type
REMARK                         _______ _______ _______ _____ _____    ______ ____
ROOT
ATOM      1  N   UNL     1       2.622   7.213  19.079  0.00  0.00    +0.000 N 
ATOM      2  C   UNL     1       2.166   8.373  18.520  0.00  0.00    +0.000 C 
ATOM      3  O   UNL     1       2.023   8.436  17.310  0.00  0.00    +0.000 OA
ATOM      4  N   UNL     1       1.736   9.406  19.312  0.00  0.00    +0.000 N 
ATOM      5  H   UNL     1       2.567   7.104  20.101  0.00  0.00    +0.000 HD
ATOM      6  H   UNL     1       1.874   9.337  20.334  0.00  0.00    +0.000 HD
ENDROOT
BRANCH   1  11
ATOM      7  C   UNL     1       7.517   7.913  17.392  0.00  0.00    +0.000 C 
ATOM      8  C   UNL     1       6.452   6.883  17.167  0.00  0.00    +0.000 A 
ATOM      9  C   UNL     1       5.199   7.004  17.774  0.00  0.00    +0.000 A 
ATOM     10  C   UNL     1       4.236   5.996  17.613  0.00  0.00    +0.000 A 
ATOM     11  C   UNL     1       2.979   6.073  18.280  0.00  0.00    +0.000 A 
ATOM     12  C   UNL     1       2.081   4.997  18.171  0.00  0.00    +0.000 A 
ATOM     13  C   UNL     1       2.392   3.893  17.386  0.00  0.00    +0.000 A 
ATOM     14  C   UNL     1       3.607   3.815  16.713  0.00  0.00    +0.000 A 
ATOM     15  C   UNL     1       4.557   4.853  16.818  0.00  0.00    +0.000 A 
ATOM     16  C   UNL     1       5.829   4.800  16.174  0.00  0.00    +0.000 A 
ATOM     17  C   UNL     1       6.300   3.680  15.277  0.00  0.00    +0.000 C 
ATOM     18  N   UNL     1       6.720   5.808  16.385  0.00  0.00    +0.000 NA
ENDBRANCH   1  11
BRANCH   4  19
ATOM     19  C   UNL     1       0.823  10.421  18.787  0.00  0.00    +0.000 C 
ATOM     20  C   UNL     1       1.250  11.910  18.974  0.00  0.00    +0.000 C 
ATOM     21  C   UNL     1       0.823  12.552  20.311  0.00  0.00    +0.000 C 
ATOM     22  N   UNL     1      -0.581  12.233  20.565  0.00  0.00    +0.000 N 
ATOM     23  C   UNL     1      -1.652  13.198  20.670  0.00  0.00    +0.000 A 
ATOM     24  C   UNL     1      -1.438  14.579  20.866  0.00  0.00    +0.000 A 
ATOM     25  C   UNL     1      -2.537  15.439  21.006  0.00  0.00    +0.000 A 
ATOM     26  C   UNL     1      -3.848  14.941  20.932  0.00  0.00    +0.000 A 
ATOM     27  C   UNL     1      -4.021  13.575  20.694  0.00  0.00    +0.000 A 
ATOM     28  N   UNL     1      -2.942  12.759  20.584  0.00  0.00    +0.000 NA
ATOM     29  C   UNL     1      -0.873  10.809  20.648  0.00  0.00    +0.000 C 
ATOM     30  C   UNL     1      -0.627  10.198  19.272  0.00  0.00    +0.000 C 
BRANCH  26  31
ATOM     31  C   UNL     1      -5.059  15.823  21.123  0.00  0.00    +0.000 C 
ATOM     32  F   UNL     1      -5.032  16.469  22.347  0.00  0.00    +0.000 F 
ATOM     33  F   UNL     1      -5.117  16.773  20.120  0.00  0.00    +0.000 F 
ATOM     34  F   UNL     1      -6.200  15.042  21.068  0.00  0.00    +0.000 F 
ENDBRANCH  26  31
ENDBRANCH   4  19
TORSDOF 3
ENDMDL
MODEL 4
REMARK VINA RESULT:      -8.1      3.164      3.399
REMARK  Name = 
REMARK  5 active torsions:
REMARK  status: ('A' for Active; 'I' for Inactive)
REMARK    1  A    between atoms: C_1  and  C_2
REMARK    2  A    between atoms: C_5  and  N_6
REMARK    3  A    between atoms: N_9  and  C_10
REMARK    4  A    between atoms: C_17  and  C_18
REMARK    5  A    between atoms: C_30  and  C_31
REMARK                            x       y       z     vdW  Elec       q    Type
REMARK                         _______ _______ _______ _____ _____    ______ ____
ROOT
ATOM      1  N   UNL     1       2.547   7.369  19.046  0.00  0.00    +0.000 N 
ATOM      2  C   UNL     1       2.160   8.536  18.450  0.00  0.00    +0.000 C 
ATOM      3  O   UNL     1       2.055   8.578  17.235  0.00  0.00    +0.000 OA
ATOM      4  N   UNL     1       1.754   9.604  19.207  0.00  0.00    +0.000 N 
ATOM      5  H   UNL     1       2.458   7.285  20.069  0.00  0.00    +0.000 HD
ATOM      6  H   UNL     1       1.859   9.552  20.234  0.00  0.00    +0.000 HD
ENDROOT
BRANCH   1  11
ATOM      7  C   UNL     1       7.505   7.832  17.464  0.00  0.00    +0.000 C 
ATOM      8  C   UNL     1       6.404   6.840  17.237  0.00  0.00    +0.000 A 
ATOM      9  C   UNL     1       5.143   7.026  17.809  0.00  0.00    +0.000 A 
ATOM     10  C   UNL     1       4.144   6.054  17.648  0.00  0.00    +0.000 A 
ATOM     11  C   UNL     1       2.876   6.197  18.282  0.00  0.00    +0.000 A 
ATOM     12  C   UNL     1       1.937   5.157  18.176  0.00  0.00    +0.000 A 
ATOM     13  C   UNL     1       2.221   4.023  17.424  0.00  0.00    +0.000 A 
ATOM     14  C   UNL     1       3.447   3.880  16.783  0.00  0.00    +0.000 A 
ATOM     15  C   UNL     1       4.436   4.881  16.887  0.00  0.00    +0.000 A 
ATOM     16  C   UNL     1       5.719   4.762  16.276  0.00  0.00    +0.000 A 
ATOM     17  C   UNL     1       6.165   3.602  15.415  0.00  0.00    +0.000 C 
ATOM     18  N   UNL     1       6.646   5.737  16.486  0.00  0.00    +0.000 NA
ENDBRANCH   1  11
BRANCH   4  19
ATOM     19  C   UNL     1       0.903  10.646  18.634  0.00  0.00    +0.000 C 
ATOM     20  C   UNL     1       0.584  11.870  19.549  0.00  0.00    +0.000 C 
ATOM     21  C   UNL     1      -0.643  11.700  20.469  0.00  0.00    +0.000 C 
ATOM     22  N   UNL     1      -1.752  11.156  19.687  0.00  0.00    +0.000 N 
ATOM     23  C   UNL     1      -3.014  11.820  19.451  0.00  0.00    +0.000 A 
ATOM     24  C   UNL     1      -3.464  12.926  20.204  0.00  0.00    +0.000 A 
ATOM     25  C   UNL     1      -4.725  13.479  19.939  0.00  0.00    +0.000 A 
ATOM     26  C   UNL     1      -5.534  12.957  18.917  0.00  0.00    +0.000 A 
ATOM     27  C   UNL     1      -5.037  11.891  18.163  0.00  0.00    +0.000 A 
ATOM     28  N   UNL     1      -3.823  11.357  18.454  0.00  0.00    +0.000 NA
ATOM     29  C   UNL     1      -1.482   9.865  19.070  0.00  0.00    +0.000 C 
ATOM     30  C   UNL     1      -0.391  10.062  18.023  0.00  0.00    +0.000 C 
BRANCH  26  31
ATOM     31  C   UNL     1      -6.916  13.493  18.628  0.00  0.00    +0.000 C 
ATOM     32  F   UNL     1      -6.873  14.805  18.188  0.00  0.00    +0.000 F 
ATOM     33  F   UNL     1      -7.533  12.720  17.663  0.00  0.00    +0.000 F 
ATOM     34  F   UNL     1      -7.670  13.448  19.788  0.00  0.00    +0.000 F 
ENDBRANCH  26  31
ENDBRANCH   4  19
TORSDOF 3
ENDMDL
MODEL 5
REMARK VINA RESULT:      -8.0      5.121     12.202
REMARK  Name = 
REMARK  5 active torsions:
REMARK  status: ('A' for Active; 'I' for Inactive)
REMARK    1  A    between atoms: C_1  and  C_2
REMARK    2  A    between atoms: C_5  and  N_6
REMARK    3  A    between atoms: N_9  and  C_10
REMARK    4  A    between atoms: C_17  and  C_18
REMARK    5  A    between atoms: C_30  and  C_31
REMARK                            x       y       z     vdW  Elec       q    Type
REMARK                         _______ _______ _______ _____ _____    ______ ____
ROOT
ATOM      1  N   UNL     1      -3.347  12.617  24.125  0.00  0.00    +0.000 N 
ATOM      2  C   UNL     1      -2.336  12.352  23.246  0.00  0.00    +0.000 C 
ATOM      3  O   UNL     1      -1.928  13.243  22.519  0.00  0.00    +0.000 OA
ATOM      4  N   UNL     1      -1.688  11.145  23.273  0.00  0.00    +0.000 N 
ATOM      5  H   UNL     1      -3.561  11.922  24.855  0.00  0.00    +0.000 HD
ATOM      6  H   UNL     1      -2.053  10.399  23.889  0.00  0.00    +0.000 HD
ENDROOT
BRANCH   1  11
ATOM      7  C   UNL     1      -7.912  12.308  21.604  0.00  0.00    +0.000 C 
ATOM      8  C   UNL     1      -7.136  13.405  22.269  0.00  0.00    +0.000 A 
ATOM      9  C   UNL     1      -5.894  13.150  22.854  0.00  0.00    +0.000 A 
ATOM     10  C   UNL     1      -5.212  14.169  23.536  0.00  0.00    +0.000 A 
ATOM     11  C   UNL     1      -3.976  13.907  24.195  0.00  0.00    +0.000 A 
ATOM     12  C   UNL     1      -3.373  14.930  24.948  0.00  0.00    +0.000 A 
ATOM     13  C   UNL     1      -3.949  16.193  25.013  0.00  0.00    +0.000 A 
ATOM     14  C   UNL     1      -5.144  16.467  24.357  0.00  0.00    +0.000 A 
ATOM     15  C   UNL     1      -5.806  15.466  23.615  0.00  0.00    +0.000 A 
ATOM     16  C   UNL     1      -7.050  15.692  22.956  0.00  0.00    +0.000 A 
ATOM     17  C   UNL     1      -7.784  17.013  22.920  0.00  0.00    +0.000 C 
ATOM     18  N   UNL     1      -7.663  14.653  22.324  0.00  0.00    +0.000 NA
ENDBRANCH   1  11
BRANCH   4  19
ATOM     19  C   UNL     1      -0.343  11.005  22.715  0.00  0.00    +0.000 C 
ATOM     20  C   UNL     1      -0.117  11.579  21.281  0.00  0.00    +0.000 C 
ATOM     21  C   UNL     1      -0.444  10.607  20.127  0.00  0.00    +0.000 C 
ATOM     22  N   UNL     1       0.156   9.306  20.417  0.00  0.00    +0.000 N 
ATOM     23  C   UNL     1       1.173   8.657  19.621  0.00  0.00    +0.000 A 
ATOM     24  C   UNL     1       1.484   9.036  18.298  0.00  0.00    +0.000 A 
ATOM     25  C   UNL     1       2.451   8.320  17.580  0.00  0.00    +0.000 A 
ATOM     26  C   UNL     1       3.129   7.242  18.173  0.00  0.00    +0.000 A 
ATOM     27  C   UNL     1       2.826   6.924  19.499  0.00  0.00    +0.000 A 
ATOM     28  N   UNL     1       1.869   7.617  20.166  0.00  0.00    +0.000 NA
ATOM     29  C   UNL     1      -0.304   8.690  21.655  0.00  0.00    +0.000 C 
ATOM     30  C   UNL     1       0.176   9.553  22.816  0.00  0.00    +0.000 C 
BRANCH  26  31
ATOM     31  C   UNL     1       4.146   6.415  17.421  0.00  0.00    +0.000 C 
ATOM     32  F   UNL     1       4.410   6.945  16.170  0.00  0.00    +0.000 F 
ATOM     33  F   UNL     1       5.327   6.352  18.136  0.00  0.00    +0.000 F 
ATOM     34  F   UNL     1       3.652   5.133  17.256  0.00  0.00    +0.000 F 
ENDBRANCH  26  31
ENDBRANCH   4  19
TORSDOF 3
ENDMDL
MODEL 6
REMARK VINA RESULT:      -8.0      2.202      2.768
REMARK  Name = 
REMARK  5 active torsions:
REMARK  status: ('A' for Active; 'I' for Inactive)
REMARK    1  A    between atoms: C_1  and  C_2
REMARK    2  A    between atoms: C_5  and  N_6
REMARK    3  A    between atoms: N_9  and  C_10
REMARK    4  A    between atoms: C_17  and  C_18
REMARK    5  A    between atoms: C_30  and  C_31
REMARK                            x       y       z     vdW  Elec       q    Type
REMARK                         _______ _______ _______ _____ _____    ______ ____
ROOT
ATOM      1  N   UNL     1       2.852   6.663  19.295  0.00  0.00    +0.000 N 
ATOM      2  C   UNL     1       2.171   7.780  18.904  0.00  0.00    +0.000 C 
ATOM      3  O   UNL     1       1.877   7.918  17.727  0.00  0.00    +0.000 OA
ATOM      4  N   UNL     1       1.694   8.667  19.834  0.00  0.00    +0.000 N 
ATOM      5  H   UNL     1       2.936   6.465  20.303  0.00  0.00    +0.000 HD
ATOM      6  H   UNL     1       1.961   8.538  20.824  0.00  0.00    +0.000 HD
ENDROOT
BRANCH   1  11
ATOM      7  C   UNL     1       7.566   8.027  17.501  0.00  0.00    +0.000 C 
ATOM      8  C   UNL     1       6.591   6.928  17.203  0.00  0.00    +0.000 A 
ATOM      9  C   UNL     1       5.366   6.856  17.870  0.00  0.00    +0.000 A 
ATOM     10  C   UNL     1       4.495   5.782  17.634  0.00  0.00    +0.000 A 
ATOM     11  C   UNL     1       3.273   5.660  18.356  0.00  0.00    +0.000 A 
ATOM     12  C   UNL     1       2.474   4.520  18.160  0.00  0.00    +0.000 A 
ATOM     13  C   UNL     1       2.846   3.546  17.241  0.00  0.00    +0.000 A 
ATOM     14  C   UNL     1       4.026   3.664  16.514  0.00  0.00    +0.000 A 
ATOM     15  C   UNL     1       4.879   4.772  16.698  0.00  0.00    +0.000 A 
ATOM     16  C   UNL     1       6.115   4.918  16.002  0.00  0.00    +0.000 A 
ATOM     17  C   UNL     1       6.641   3.956  14.961  0.00  0.00    +0.000 C 
ATOM     18  N   UNL     1       6.917   5.979  16.291  0.00  0.00    +0.000 NA
ENDBRANCH   1  11
BRANCH   4  19
ATOM     19  C   UNL     1       0.588   9.568  19.510  0.00  0.00    +0.000 C 
ATOM     20  C   UNL     1       0.804  10.535  18.303  0.00  0.00    +0.000 C 
ATOM     21  C   UNL     1       1.486  11.875  18.651  0.00  0.00    +0.000 C 
ATOM     22  N   UNL     1       0.851  12.439  19.841  0.00  0.00    +0.000 N 
ATOM     23  C   UNL     1       0.140  13.696  19.893  0.00  0.00    +0.000 A 
ATOM     24  C   UNL     1       0.243  14.690  18.896  0.00  0.00    +0.000 A 
ATOM     25  C   UNL     1      -0.444  15.902  19.051  0.00  0.00    +0.000 A 
ATOM     26  C   UNL     1      -1.252  16.127  20.178  0.00  0.00    +0.000 A 
ATOM     27  C   UNL     1      -1.365  15.103  21.122  0.00  0.00    +0.000 A 
ATOM     28  N   UNL     1      -0.672  13.947  20.962  0.00  0.00    +0.000 NA
ATOM     29  C   UNL     1       0.919  11.591  21.023  0.00  0.00    +0.000 C 
ATOM     30  C   UNL     1       0.090  10.339  20.753  0.00  0.00    +0.000 C 
BRANCH  26  31
ATOM     31  C   UNL     1      -1.973  17.434  20.407  0.00  0.00    +0.000 C 
ATOM     32  F   UNL     1      -1.101  18.439  20.787  0.00  0.00    +0.000 F 
ATOM     33  F   UNL     1      -2.625  17.824  19.252  0.00  0.00    +0.000 F 
ATOM     34  F   UNL     1      -2.908  17.264  21.414  0.00  0.00    +0.000 F 
ENDBRANCH  26  31
ENDBRANCH   4  19
TORSDOF 3
ENDMDL
MODEL 7
REMARK VINA RESULT:      -7.8      6.216     11.242
REMARK  Name = 
REMARK  5 active torsions:
REMARK  status: ('A' for Active; 'I' for Inactive)
REMARK    1  A    between atoms: C_1  and  C_2
REMARK    2  A    between atoms: C_5  and  N_6
REMARK    3  A    between atoms: N_9  and  C_10
REMARK    4  A    between atoms: C_17  and  C_18
REMARK    5  A    between atoms: C_30  and  C_31
REMARK                            x       y       z     vdW  Elec       q    Type
REMARK                         _______ _______ _______ _____ _____    ______ ____
ROOT
ATOM      1  N   UNL     1       1.586   8.987  21.819  0.00  0.00    +0.000 N 
ATOM      2  C   UNL     1       1.337   7.920  21.004  0.00  0.00    +0.000 C 
ATOM      3  O   UNL     1       0.262   7.845  20.430  0.00  0.00    +0.000 OA
ATOM      4  N   UNL     1       2.327   7.016  20.716  0.00  0.00    +0.000 N 
ATOM      5  H   UNL     1       2.549   9.138  22.151  0.00  0.00    +0.000 HD
ATOM      6  H   UNL     1       3.227   7.091  21.218  0.00  0.00    +0.000 HD
ENDROOT
BRANCH   1  11
ATOM      7  C   UNL     1       2.293  12.744  18.257  0.00  0.00    +0.000 C 
ATOM      8  C   UNL     1       1.395  12.557  19.443  0.00  0.00    +0.000 A 
ATOM      9  C   UNL     1       1.474  11.404  20.227  0.00  0.00    +0.000 A 
ATOM     10  C   UNL     1       0.579  11.210  21.290  0.00  0.00    +0.000 A 
ATOM     11  C   UNL     1       0.604  10.009  22.056  0.00  0.00    +0.000 A 
ATOM     12  C   UNL     1      -0.371   9.812  23.049  0.00  0.00    +0.000 A 
ATOM     13  C   UNL     1      -1.318  10.793  23.315  0.00  0.00    +0.000 A 
ATOM     14  C   UNL     1      -1.340  11.980  22.588  0.00  0.00    +0.000 A 
ATOM     15  C   UNL     1      -0.404  12.211  21.559  0.00  0.00    +0.000 A 
ATOM     16  C   UNL     1      -0.410  13.397  20.765  0.00  0.00    +0.000 A 
ATOM     17  C   UNL     1      -1.361  14.557  20.948  0.00  0.00    +0.000 C 
ATOM     18  N   UNL     1       0.479  13.512  19.740  0.00  0.00    +0.000 NA
ENDBRANCH   1  11
BRANCH   4  19
ATOM     19  C   UNL     1       2.252   6.181  19.518  0.00  0.00    +0.000 C 
ATOM     20  C   UNL     1       3.009   4.817  19.567  0.00  0.00    +0.000 C 
ATOM     21  C   UNL     1       4.494   4.875  19.150  0.00  0.00    +0.000 C 
ATOM     22  N   UNL     1       4.611   5.648  17.915  0.00  0.00    +0.000 N 
ATOM     23  C   UNL     1       5.097   5.140  16.652  0.00  0.00    +0.000 A 
ATOM     24  C   UNL     1       5.820   3.934  16.526  0.00  0.00    +0.000 A 
ATOM     25  C   UNL     1       6.296   3.539  15.268  0.00  0.00    +0.000 A 
ATOM     26  C   UNL     1       6.041   4.321  14.129  0.00  0.00    +0.000 A 
ATOM     27  C   UNL     1       5.284   5.484  14.286  0.00  0.00    +0.000 A 
ATOM     28  N   UNL     1       4.853   5.858  15.518  0.00  0.00    +0.000 NA
ATOM     29  C   UNL     1       4.127   7.019  18.010  0.00  0.00    +0.000 C 
ATOM     30  C   UNL     1       2.620   6.970  18.241  0.00  0.00    +0.000 C 
BRANCH  26  31
ATOM     31  C   UNL     1       6.574   3.956  12.764  0.00  0.00    +0.000 C 
ATOM     32  F   UNL     1       7.572   4.824  12.357  0.00  0.00    +0.000 F 
ATOM     33  F   UNL     1       7.081   2.670  12.780  0.00  0.00    +0.000 F 
ATOM     34  F   UNL     1       5.541   4.019  11.844  0.00  0.00    +0.000 F 
ENDBRANCH  26  31
ENDBRANCH   4  19
TORSDOF 3
ENDMDL
MODEL 8
REMARK VINA RESULT:      -7.7      2.037      3.364
REMARK  Name = 
REMARK  5 active torsions:
REMARK  status: ('A' for Active; 'I' for Inactive)
REMARK    1  A    between atoms: C_1  and  C_2
REMARK    2  A    between atoms: C_5  and  N_6
REMARK    3  A    between atoms: N_9  and  C_10
REMARK    4  A    between atoms: C_17  and  C_18
REMARK    5  A    between atoms: C_30  and  C_31
REMARK                            x       y       z     vdW  Elec       q    Type
REMARK                         _______ _______ _______ _____ _____    ______ ____
ROOT
ATOM      1  N   UNL     1       2.607   7.321  20.169  0.00  0.00    +0.000 N 
ATOM      2  C   UNL     1       1.816   8.371  19.799  0.00  0.00    +0.000 C 
ATOM      3  O   UNL     1       1.462   8.471  18.636  0.00  0.00    +0.000 OA
ATOM      4  N   UNL     1       1.304   9.224  20.742  0.00  0.00    +0.000 N 
ATOM      5  H   UNL     1       2.749   7.141  21.173  0.00  0.00    +0.000 HD
ATOM      6  H   UNL     1       1.622   9.129  21.721  0.00  0.00    +0.000 HD
ENDROOT
BRANCH   1  11
ATOM      7  C   UNL     1       1.258   2.592  21.933  0.00  0.00    +0.000 C 
ATOM      8  C   UNL     1       2.045   3.107  20.766  0.00  0.00    +0.000 A 
ATOM      9  C   UNL     1       2.244   4.478  20.586  0.00  0.00    +0.000 A 
ATOM     10  C   UNL     1       2.920   4.950  19.450  0.00  0.00    +0.000 A 
ATOM     11  C   UNL     1       3.072   6.348  19.219  0.00  0.00    +0.000 A 
ATOM     12  C   UNL     1       3.670   6.782  18.023  0.00  0.00    +0.000 A 
ATOM     13  C   UNL     1       4.149   5.862  17.099  0.00  0.00    +0.000 A 
ATOM     14  C   UNL     1       4.026   4.494  17.323  0.00  0.00    +0.000 A 
ATOM     15  C   UNL     1       3.404   4.008  18.491  0.00  0.00    +0.000 A 
ATOM     16  C   UNL     1       3.224   2.616  18.746  0.00  0.00    +0.000 A 
ATOM     17  C   UNL     1       3.708   1.501  17.848  0.00  0.00    +0.000 C 
ATOM     18  N   UNL     1       2.547   2.230  19.862  0.00  0.00    +0.000 NA
ENDBRANCH   1  11
BRANCH   4  19
ATOM     19  C   UNL     1       0.112  10.023  20.460  0.00  0.00    +0.000 C 
ATOM     20  C   UNL     1       0.343  11.531  20.128  0.00  0.00    +0.000 C 
ATOM     21  C   UNL     1       0.398  12.471  21.351  0.00  0.00    +0.000 C 
ATOM     22  N   UNL     1      -0.716  12.157  22.243  0.00  0.00    +0.000 N 
ATOM     23  C   UNL     1      -1.789  13.061  22.593  0.00  0.00    +0.000 A 
ATOM     24  C   UNL     1      -1.730  14.455  22.382  0.00  0.00    +0.000 A 
ATOM     25  C   UNL     1      -2.797  15.265  22.797  0.00  0.00    +0.000 A 
ATOM     26  C   UNL     1      -3.932  14.699  23.399  0.00  0.00    +0.000 A 
ATOM     27  C   UNL     1      -3.974  13.311  23.550  0.00  0.00    +0.000 A 
ATOM     28  N   UNL     1      -2.919  12.550  23.163  0.00  0.00    +0.000 NA
ATOM     29  C   UNL     1      -0.727  10.788  22.741  0.00  0.00    +0.000 C 
ATOM     30  C   UNL     1      -0.966   9.859  21.555  0.00  0.00    +0.000 C 
BRANCH  26  31
ATOM     31  C   UNL     1      -5.083  15.538  23.901  0.00  0.00    +0.000 C 
ATOM     32  F   UNL     1      -6.174  14.757  24.241  0.00  0.00    +0.000 F 
ATOM     33  F   UNL     1      -4.693  16.265  25.010  0.00  0.00    +0.000 F 
ATOM     34  F   UNL     1      -5.471  16.417  22.903  0.00  0.00    +0.000 F 
ENDBRANCH  26  31
ENDBRANCH   4  19
TORSDOF 3
ENDMDL
MODEL 9
REMARK VINA RESULT:      -7.7      5.888     10.477
REMARK  Name = 
REMARK  5 active torsions:
REMARK  status: ('A' for Active; 'I' for Inactive)
REMARK    1  A    between atoms: C_1  and  C_2
REMARK    2  A    between atoms: C_5  and  N_6
REMARK    3  A    between atoms: N_9  and  C_10
REMARK    4  A    between atoms: C_17  and  C_18
REMARK    5  A    between atoms: C_30  and  C_31
REMARK                            x       y       z     vdW  Elec       q    Type
REMARK                         _______ _______ _______ _____ _____    ______ ____
ROOT
ATOM      1  N   UNL     1      -0.013  13.691  20.998  0.00  0.00    +0.000 N 
ATOM      2  C   UNL     1      -0.610  12.503  20.685  0.00  0.00    +0.000 C 
ATOM      3  O   UNL     1      -1.414  12.462  19.768  0.00  0.00    +0.000 OA
ATOM      4  N   UNL     1      -0.211  11.341  21.293  0.00  0.00    +0.000 N 
ATOM      5  H   UNL     1       0.790  13.684  21.643  0.00  0.00    +0.000 HD
ATOM      6  H   UNL     1       0.465  11.397  22.074  0.00  0.00    +0.000 HD
ENDROOT
BRANCH   1  11
ATOM      7  C   UNL     1       4.002  14.848  17.861  0.00  0.00    +0.000 C 
ATOM      8  C   UNL     1       2.711  15.515  18.227  0.00  0.00    +0.000 A 
ATOM      9  C   UNL     1       1.836  14.930  19.144  0.00  0.00    +0.000 A 
ATOM     10  C   UNL     1       0.598  15.529  19.422  0.00  0.00    +0.000 A 
ATOM     11  C   UNL     1      -0.332  14.908  20.305  0.00  0.00    +0.000 A 
ATOM     12  C   UNL     1      -1.600  15.491  20.481  0.00  0.00    +0.000 A 
ATOM     13  C   UNL     1      -1.926  16.680  19.841  0.00  0.00    +0.000 A 
ATOM     14  C   UNL     1      -1.019  17.307  18.993  0.00  0.00    +0.000 A 
ATOM     15  C   UNL     1       0.253  16.745  18.757  0.00  0.00    +0.000 A 
ATOM     16  C   UNL     1       1.201  17.334  17.869  0.00  0.00    +0.000 A 
ATOM     17  C   UNL     1       0.999  18.631  17.120  0.00  0.00    +0.000 C 
ATOM     18  N   UNL     1       2.378  16.690  17.636  0.00  0.00    +0.000 NA
ENDBRANCH   1  11
BRANCH   4  19
ATOM     19  C   UNL     1      -0.462  10.044  20.666  0.00  0.00    +0.000 C 
ATOM     20  C   UNL     1      -0.403   8.793  21.597  0.00  0.00    +0.000 C 
ATOM     21  C   UNL     1       1.000   8.173  21.776  0.00  0.00    +0.000 C 
ATOM     22  N   UNL     1       1.635   8.048  20.465  0.00  0.00    +0.000 N 
ATOM     23  C   UNL     1       2.034   6.806  19.843  0.00  0.00    +0.000 A 
ATOM     24  C   UNL     1       2.160   5.589  20.548  0.00  0.00    +0.000 A 
ATOM     25  C   UNL     1       2.600   4.440  19.876  0.00  0.00    +0.000 A 
ATOM     26  C   UNL     1       2.895   4.484  18.503  0.00  0.00    +0.000 A 
ATOM     27  C   UNL     1       2.716   5.695  17.830  0.00  0.00    +0.000 A 
ATOM     28  N   UNL     1       2.311   6.800  18.507  0.00  0.00    +0.000 NA
ATOM     29  C   UNL     1       1.798   9.306  19.749  0.00  0.00    +0.000 C 
ATOM     30  C   UNL     1       0.409   9.835  19.406  0.00  0.00    +0.000 C 
BRANCH  26  31
ATOM     31  C   UNL     1       3.415   3.282  17.750  0.00  0.00    +0.000 C 
ATOM     32  F   UNL     1       2.398   2.396  17.440  0.00  0.00    +0.000 F 
ATOM     33  F   UNL     1       4.028   3.685  16.579  0.00  0.00    +0.000 F 
ATOM     34  F   UNL     1       4.342   2.622  18.538  0.00  0.00    +0.000 F 
ENDBRANCH  26  31
ENDBRANCH   4  19
TORSDOF 3
ENDMDL
