MODEL 1
REMARK VINA RESULT:      -8.3      0.000      0.000
REMARK  Name = 
REMARK  6 active torsions:
REMARK  status: ('A' for Active; 'I' for Inactive)
REMARK    1  A    between atoms: C_2  and  C_3
REMARK    2  A    between atoms: C_3  and  O_4
REMARK    3  A    between atoms: O_4  and  C_5
REMARK    4  A    between atoms: C_5  and  C_7
REMARK    5  A    between atoms: C_7  and  N_8
REMARK    6  A    between atoms: N_19  and  C_20
REMARK                            x       y       z     vdW  Elec       q    Type
REMARK                         _______ _______ _______ _____ _____    ______ ____
ROOT
ATOM      1  C   UNL     1       7.222   5.853  16.413  0.00  0.00    +0.000 C 
ATOM      2  O   UNL     1       7.519   5.813  15.226  0.00  0.00    +0.000 OA
ENDROOT
BRANCH   1   3
ATOM      3  O   UNL     1       6.972   7.000  17.110  0.00  0.00    +0.000 OA
BRANCH   3   4
ATOM      4  C   UNL     1       7.980   7.318  18.065  0.00  0.00    +0.000 C 
BRANCH   4   6
ATOM      5  O   UNL     1       7.807   9.595  17.340  0.00  0.00    +0.000 OA
ATOM      6  C   UNL     1       8.264   8.823  18.182  0.00  0.00    +0.000 C 
ATOM      7  N   UNL     1       9.106   9.174  19.225  0.00  0.00    +0.000 N 
ATOM      8  H   UNL     1       9.623   8.420  19.663  0.00  0.00    +0.000 HD
BRANCH   7   9
ATOM      9  C   UNL     1       9.462  10.499  19.580  0.00  0.00    +0.000 A 
ATOM     10  C   UNL     1       9.270  11.027  20.863  0.00  0.00    +0.000 A 
ATOM     11  C   UNL     1       9.561  12.368  21.146  0.00  0.00    +0.000 A 
ATOM     12  C   UNL     1      10.076  13.190  20.151  0.00  0.00    +0.000 A 
ATOM     13  C   UNL     1      10.326  12.650  18.894  0.00  0.00    +0.000 A 
ATOM     14  F   UNL     1      10.847  13.433  17.938  0.00  0.00    +0.000 F 
ATOM     15  C   UNL     1      10.038  11.317  18.603  0.00  0.00    +0.000 A 
ENDBRANCH   7   9
ENDBRANCH   4   6
ENDBRANCH   3   4
ENDBRANCH   1   3
BRANCH   1  16
ATOM     16  C   UNL     1       7.126   4.643  17.314  0.00  0.00    +0.000 C 
BRANCH  16  17
ATOM     17  N   UNL     1       5.774   4.486  17.804  0.00  0.00    +0.000 N 
ATOM     18  C   UNL     1       5.384   4.750  19.089  0.00  0.00    +0.000 C 
ATOM     19  O   UNL     1       6.054   5.114  20.032  0.00  0.00    +0.000 OA
ATOM     20  C   UNL     1       3.944   4.496  19.144  0.00  0.00    +0.000 A 
ATOM     21  C   UNL     1       3.046   4.661  20.179  0.00  0.00    +0.000 A 
ATOM     22  C   UNL     1       1.704   4.367  19.913  0.00  0.00    +0.000 A 
ATOM     23  C   UNL     1       1.301   3.910  18.641  0.00  0.00    +0.000 A 
ATOM     24  C   UNL     1       2.231   3.752  17.609  0.00  0.00    +0.000 A 
ATOM     25  C   UNL     1       3.547   4.064  17.891  0.00  0.00    +0.000 A 
ATOM     26  C   UNL     1       4.728   4.074  17.031  0.00  0.00    +0.000 C 
ATOM     27  O   UNL     1       4.725   3.786  15.846  0.00  0.00    +0.000 OA
ENDBRANCH  16  17
ENDBRANCH   1  16
TORSDOF 6
ENDMDL
MODEL 2
REMARK VINA RESULT:      -8.3      1.486      1.577
REMARK  Name = 
REMARK  6 active torsions:
REMARK  status: ('A' for Active; 'I' for Inactive)
REMARK    1  A    between atoms: C_2  and  C_3
REMARK    2  A    between atoms: C_3  and  O_4
REMARK    3  A    between atoms: O_4  and  C_5
REMARK    4  A    between atoms: C_5  and  C_7
REMARK    5  A    between atoms: C_7  and  N_8
REMARK    6  A    between atoms: N_19  and  C_20
REMARK                            x       y       z     vdW  Elec       q    Type
REMARK                         _______ _______ _______ _____ _____    ______ ____
ROOT
ATOM      1  C   UNL     1       6.979   5.365  17.083  0.00  0.00    +0.000 C 
ATOM      2  O   UNL     1       6.980   4.312  16.459  0.00  0.00    +0.000 OA
ENDROOT
BRANCH   1   3
ATOM      3  O   UNL     1       7.628   6.499  16.688  0.00  0.00    +0.000 OA
BRANCH   3   4
ATOM      4  C   UNL     1       7.158   7.679  17.333  0.00  0.00    +0.000 C 
BRANCH   4   6
ATOM      5  O   UNL     1       8.801   7.698  19.076  0.00  0.00    +0.000 OA
ATOM      6  C   UNL     1       8.212   8.357  18.220  0.00  0.00    +0.000 C 
ATOM      7  N   UNL     1       8.351   9.720  18.015  0.00  0.00    +0.000 N 
ATOM      8  H   UNL     1       7.618  10.175  17.483  0.00  0.00    +0.000 HD
BRANCH   7   9
ATOM      9  C   UNL     1       9.300  10.552  18.660  0.00  0.00    +0.000 A 
ATOM     10  C   UNL     1       9.309  10.777  20.043  0.00  0.00    +0.000 A 
ATOM     11  C   UNL     1      10.215  11.673  20.626  0.00  0.00    +0.000 A 
ATOM     12  C   UNL     1      11.143  12.336  19.831  0.00  0.00    +0.000 A 
ATOM     13  C   UNL     1      11.176  12.066  18.467  0.00  0.00    +0.000 A 
ATOM     14  F   UNL     1      12.086  12.683  17.701  0.00  0.00    +0.000 F 
ATOM     15  C   UNL     1      10.277  11.177  17.878  0.00  0.00    +0.000 A 
ENDBRANCH   7   9
ENDBRANCH   4   6
ENDBRANCH   3   4
ENDBRANCH   1   3
BRANCH   1  16
ATOM     16  C   UNL     1       6.295   5.572  18.415  0.00  0.00    +0.000 C 
BRANCH  16  17
ATOM     17  N   UNL     1       5.017   4.895  18.437  0.00  0.00    +0.000 N 
ATOM     18  C   UNL     1       4.789   3.699  19.062  0.00  0.00    +0.000 C 
ATOM     19  O   UNL     1       5.568   2.988  19.659  0.00  0.00    +0.000 OA
ATOM     20  C   UNL     1       3.369   3.398  18.872  0.00  0.00    +0.000 A 
ATOM     21  C   UNL     1       2.606   2.350  19.345  0.00  0.00    +0.000 A 
ATOM     22  C   UNL     1       1.245   2.356  19.024  0.00  0.00    +0.000 A 
ATOM     23  C   UNL     1       0.690   3.387  18.238  0.00  0.00    +0.000 A 
ATOM     24  C   UNL     1       1.484   4.439  17.771  0.00  0.00    +0.000 A 
ATOM     25  C   UNL     1       2.822   4.420  18.116  0.00  0.00    +0.000 A 
ATOM     26  C   UNL     1       3.887   5.386  17.852  0.00  0.00    +0.000 C 
ATOM     27  O   UNL     1       3.738   6.432  17.242  0.00  0.00    +0.000 OA
ENDBRANCH  16  17
ENDBRANCH   1  16
TORSDOF 6
ENDMDL
MODEL 3
REMARK VINA RESULT:      -8.2      1.682      2.030
REMARK  Name = 
REMARK  6 active torsions:
REMARK  status: ('A' for Active; 'I' for Inactive)
REMARK    1  A    between atoms: C_2  and  C_3
REMARK    2  A    between atoms: C_3  and  O_4
REMARK    3  A    between atoms: O_4  and  C_5
REMARK    4  A    between atoms: C_5  and  C_7
REMARK    5  A    between atoms: C_7  and  N_8
REMARK    6  A    between atoms: N_19  and  C_20
REMARK                            x       y       z     vdW  Elec       q    Type
REMARK                         _______ _______ _______ _____ _____    ______ ____
ROOT
ATOM      1  C   UNL     1       6.927   5.802  16.673  0.00  0.00    +0.000 C 
ATOM      2  O   UNL     1       7.318   4.808  17.273  0.00  0.00    +0.000 OA
ENDROOT
BRANCH   1   3
ATOM      3  O   UNL     1       7.659   6.942  16.505  0.00  0.00    +0.000 OA
BRANCH   3   4
ATOM      4  C   UNL     1       7.199   8.036  17.293  0.00  0.00    +0.000 C 
BRANCH   4   6
ATOM      5  O   UNL     1       8.845   7.966  19.032  0.00  0.00    +0.000 OA
ATOM      6  C   UNL     1       8.288   8.656  18.179  0.00  0.00    +0.000 C 
ATOM      7  N   UNL     1       8.497  10.011  17.978  0.00  0.00    +0.000 N 
ATOM      8  H   UNL     1       7.786  10.504  17.449  0.00  0.00    +0.000 HD
BRANCH   7   9
ATOM      9  C   UNL     1       9.488  10.792  18.622  0.00  0.00    +0.000 A 
ATOM     10  C   UNL     1      10.650  11.239  17.980  0.00  0.00    +0.000 A 
ATOM     11  C   UNL     1      11.641  11.939  18.679  0.00  0.00    +0.000 A 
ATOM     12  C   UNL     1      11.467  12.225  20.028  0.00  0.00    +0.000 A 
ATOM     13  C   UNL     1      10.286  11.838  20.651  0.00  0.00    +0.000 A 
ATOM     14  F   UNL     1      10.102  12.135  21.945  0.00  0.00    +0.000 F 
ATOM     15  C   UNL     1       9.294  11.139  19.963  0.00  0.00    +0.000 A 
ENDBRANCH   7   9
ENDBRANCH   4   6
ENDBRANCH   3   4
ENDBRANCH   1   3
BRANCH   1  16
ATOM     16  C   UNL     1       5.555   5.946  16.056  0.00  0.00    +0.000 C 
BRANCH  16  17
ATOM     17  N   UNL     1       4.579   5.196  16.815  0.00  0.00    +0.000 N 
ATOM     18  C   UNL     1       3.700   5.752  17.704  0.00  0.00    +0.000 C 
ATOM     19  O   UNL     1       3.587   6.911  18.044  0.00  0.00    +0.000 OA
ATOM     20  C   UNL     1       2.877   4.655  18.213  0.00  0.00    +0.000 A 
ATOM     21  C   UNL     1       1.807   4.669  19.085  0.00  0.00    +0.000 A 
ATOM     22  C   UNL     1       1.187   3.445  19.356  0.00  0.00    +0.000 A 
ATOM     23  C   UNL     1       1.655   2.251  18.768  0.00  0.00    +0.000 A 
ATOM     24  C   UNL     1       2.741   2.262  17.888  0.00  0.00    +0.000 A 
ATOM     25  C   UNL     1       3.325   3.487  17.623  0.00  0.00    +0.000 A 
ATOM     26  C   UNL     1       4.411   3.845  16.713  0.00  0.00    +0.000 C 
ATOM     27  O   UNL     1       5.007   3.056  16.000  0.00  0.00    +0.000 OA
ENDBRANCH  16  17
ENDBRANCH   1  16
TORSDOF 6
ENDMDL
MODEL 4
REMARK VINA RESULT:      -8.1      1.417      2.013
REMARK  Name = 
REMARK  6 active torsions:
REMARK  status: ('A' for Active; 'I' for Inactive)
REMARK    1  A    between atoms: C_2  and  C_3
REMARK    2  A    between atoms: C_3  and  O_4
REMARK    3  A    between atoms: O_4  and  C_5
REMARK    4  A    between atoms: C_5  and  C_7
REMARK    5  A    between atoms: C_7  and  N_8
REMARK    6  A    between atoms: N_19  and  C_20
REMARK                            x       y       z     vdW  Elec       q    Type
REMARK                         _______ _______ _______ _____ _____    ______ ____
ROOT
ATOM      1  C   UNL     1       6.150   6.220  16.864  0.00  0.00    +0.000 C 
ATOM      2  O   UNL     1       6.900   5.754  16.015  0.00  0.00    +0.000 OA
ENDROOT
BRANCH   1   3
ATOM      3  O   UNL     1       6.523   6.525  18.142  0.00  0.00    +0.000 OA
BRANCH   3   4
ATOM      4  C   UNL     1       7.890   6.906  18.261  0.00  0.00    +0.000 C 
BRANCH   4   6
ATOM      5  O   UNL     1       7.571   9.063  17.269  0.00  0.00    +0.000 OA
ATOM      6  C   UNL     1       8.117   8.421  18.166  0.00  0.00    +0.000 C 
ATOM      7  N   UNL     1       9.014   8.932  19.090  0.00  0.00    +0.000 N 
ATOM      8  H   UNL     1       9.591   8.259  19.580  0.00  0.00    +0.000 HD
BRANCH   7   9
ATOM      9  C   UNL     1       9.337  10.303  19.248  0.00  0.00    +0.000 A 
ATOM     10  C   UNL     1       9.337  10.953  20.488  0.00  0.00    +0.000 A 
ATOM     11  C   UNL     1       9.583  12.329  20.585  0.00  0.00    +0.000 A 
ATOM     12  C   UNL     1       9.860  13.067  19.439  0.00  0.00    +0.000 A 
ATOM     13  C   UNL     1       9.922  12.409  18.215  0.00  0.00    +0.000 A 
ATOM     14  F   UNL     1      10.214  13.112  17.112  0.00  0.00    +0.000 F 
ATOM     15  C   UNL     1       9.677  11.041  18.109  0.00  0.00    +0.000 A 
ENDBRANCH   7   9
ENDBRANCH   4   6
ENDBRANCH   3   4
ENDBRANCH   1   3
BRANCH   1  16
ATOM     16  C   UNL     1       4.679   6.495  16.652  0.00  0.00    +0.000 C 
BRANCH  16  17
ATOM     17  N   UNL     1       3.879   5.651  17.512  0.00  0.00    +0.000 N 
ATOM     18  C   UNL     1       3.881   4.283  17.468  0.00  0.00    +0.000 C 
ATOM     19  O   UNL     1       4.489   3.543  16.725  0.00  0.00    +0.000 OA
ATOM     20  C   UNL     1       2.969   3.835  18.521  0.00  0.00    +0.000 A 
ATOM     21  C   UNL     1       2.649   2.561  18.945  0.00  0.00    +0.000 A 
ATOM     22  C   UNL     1       1.760   2.450  20.020  0.00  0.00    +0.000 A 
ATOM     23  C   UNL     1       1.209   3.598  20.626  0.00  0.00    +0.000 A 
ATOM     24  C   UNL     1       1.548   4.879  20.177  0.00  0.00    +0.000 A 
ATOM     25  C   UNL     1       2.442   4.962  19.127  0.00  0.00    +0.000 A 
ATOM     26  C   UNL     1       3.044   6.127  18.480  0.00  0.00    +0.000 C 
ATOM     27  O   UNL     1       2.829   7.284  18.798  0.00  0.00    +0.000 OA
ENDBRANCH  16  17
ENDBRANCH   1  16
TORSDOF 6
ENDMDL
MODEL 5
REMARK VINA RESULT:      -8.1      1.505      2.271
REMARK  Name = 
REMARK  6 active torsions:
REMARK  status: ('A' for Active; 'I' for Inactive)
REMARK    1  A    between atoms: C_2  and  C_3
REMARK    2  A    between atoms: C_3  and  O_4
REMARK    3  A    between atoms: O_4  and  C_5
REMARK    4  A    between atoms: C_5  and  C_7
REMARK    5  A    between atoms: C_7  and  N_8
REMARK    6  A    between atoms: N_19  and  C_20
REMARK                            x       y       z     vdW  Elec       q    Type
REMARK                         _______ _______ _______ _____ _____    ______ ____
ROOT
ATOM      1  C   UNL     1       6.699   5.961  16.989  0.00  0.00    +0.000 C 
ATOM      2  O   UNL     1       7.570   5.215  16.559  0.00  0.00    +0.000 OA
ENDROOT
BRANCH   1   3
ATOM      3  O   UNL     1       6.807   6.695  18.135  0.00  0.00    +0.000 OA
BRANCH   3   4
ATOM      4  C   UNL     1       8.129   7.157  18.394  0.00  0.00    +0.000 C 
BRANCH   4   6
ATOM      5  O   UNL     1       7.620   9.325  17.511  0.00  0.00    +0.000 OA
ATOM      6  C   UNL     1       8.270   8.685  18.337  0.00  0.00    +0.000 C 
ATOM      7  N   UNL     1       9.211   9.213  19.206  0.00  0.00    +0.000 N 
ATOM      8  H   UNL     1       9.861   8.556  19.623  0.00  0.00    +0.000 HD
BRANCH   7   9
ATOM      9  C   UNL     1       9.475  10.593  19.387  0.00  0.00    +0.000 A 
ATOM     10  C   UNL     1       9.769  11.464  18.330  0.00  0.00    +0.000 A 
ATOM     11  C   UNL     1      10.104  12.803  18.565  0.00  0.00    +0.000 A 
ATOM     12  C   UNL     1      10.122  13.295  19.865  0.00  0.00    +0.000 A 
ATOM     13  C   UNL     1       9.769  12.448  20.910  0.00  0.00    +0.000 A 
ATOM     14  F   UNL     1       9.760  12.925  22.163  0.00  0.00    +0.000 F 
ATOM     15  C   UNL     1       9.436  11.113  20.685  0.00  0.00    +0.000 A 
ENDBRANCH   7   9
ENDBRANCH   4   6
ENDBRANCH   3   4
ENDBRANCH   1   3
BRANCH   1  16
ATOM     16  C   UNL     1       5.346   6.159  16.347  0.00  0.00    +0.000 C 
BRANCH  16  17
ATOM     17  N   UNL     1       4.356   5.319  16.984  0.00  0.00    +0.000 N 
ATOM     18  C   UNL     1       4.270   3.964  16.812  0.00  0.00    +0.000 C 
ATOM     19  O   UNL     1       4.939   3.238  16.109  0.00  0.00    +0.000 OA
ATOM     20  C   UNL     1       3.166   3.510  17.659  0.00  0.00    +0.000 A 
ATOM     21  C   UNL     1       2.691   2.237  17.904  0.00  0.00    +0.000 A 
ATOM     22  C   UNL     1       1.630   2.114  18.807  0.00  0.00    +0.000 A 
ATOM     23  C   UNL     1       1.068   3.252  19.424  0.00  0.00    +0.000 A 
ATOM     24  C   UNL     1       1.566   4.531  19.159  0.00  0.00    +0.000 A 
ATOM     25  C   UNL     1       2.626   4.624  18.277  0.00  0.00    +0.000 A 
ATOM     26  C   UNL     1       3.407   5.783  17.848  0.00  0.00    +0.000 C 
ATOM     27  O   UNL     1       3.225   6.924  18.236  0.00  0.00    +0.000 OA
ENDBRANCH  16  17
ENDBRANCH   1  16
TORSDOF 6
ENDMDL
MODEL 6
REMARK VINA RESULT:      -8.0      4.866      7.043
REMARK  Name = 
REMARK  6 active torsions:
REMARK  status: ('A' for Active; 'I' for Inactive)
REMARK    1  A    between atoms: C_2  and  C_3
REMARK    2  A    between atoms: C_3  and  O_4
REMARK    3  A    between atoms: O_4  and  C_5
REMARK    4  A    between atoms: C_5  and  C_7
REMARK    5  A    between atoms: C_7  and  N_8
REMARK    6  A    between atoms: N_19  and  C_20
REMARK                            x       y       z     vdW  Elec       q    Type
REMARK                         _______ _______ _______ _____ _____    ______ ____
ROOT
ATOM      1  C   UNL     1       4.504   5.211  18.619  0.00  0.00    +0.000 C 
ATOM      2  O   UNL     1       4.814   4.311  19.389  0.00  0.00    +0.000 OA
ENDROOT
BRANCH   1   3
ATOM      3  O   UNL     1       5.367   6.159  18.149  0.00  0.00    +0.000 OA
BRANCH   3   4
ATOM      4  C   UNL     1       6.731   5.748  18.170  0.00  0.00    +0.000 C 
BRANCH   4   6
ATOM      5  O   UNL     1       8.062   4.193  16.925  0.00  0.00    +0.000 OA
ATOM      6  C   UNL     1       7.184   5.054  16.877  0.00  0.00    +0.000 C 
ATOM      7  N   UNL     1       6.590   5.536  15.722  0.00  0.00    +0.000 N 
ATOM      8  H   UNL     1       6.101   6.421  15.800  0.00  0.00    +0.000 HD
BRANCH   7   9
ATOM      9  C   UNL     1       6.791   5.017  14.419  0.00  0.00    +0.000 A 
ATOM     10  C   UNL     1       7.770   5.502  13.543  0.00  0.00    +0.000 A 
ATOM     11  C   UNL     1       7.878   5.013  12.234  0.00  0.00    +0.000 A 
ATOM     12  C   UNL     1       7.021   4.010  11.796  0.00  0.00    +0.000 A 
ATOM     13  C   UNL     1       6.090   3.484  12.685  0.00  0.00    +0.000 A 
ATOM     14  F   UNL     1       5.279   2.499  12.274  0.00  0.00    +0.000 F 
ATOM     15  C   UNL     1       5.975   3.966  13.989  0.00  0.00    +0.000 A 
ENDBRANCH   7   9
ENDBRANCH   4   6
ENDBRANCH   3   4
ENDBRANCH   1   3
BRANCH   1  16
ATOM     16  C   UNL     1       3.106   5.448  18.094  0.00  0.00    +0.000 C 
BRANCH  16  17
ATOM     17  N   UNL     1       2.495   6.568  18.775  0.00  0.00    +0.000 N 
ATOM     18  C   UNL     1       2.030   6.528  20.061  0.00  0.00    +0.000 C 
ATOM     19  O   UNL     1       2.004   5.596  20.836  0.00  0.00    +0.000 OA
ATOM     20  C   UNL     1       1.531   7.870  20.362  0.00  0.00    +0.000 A 
ATOM     21  C   UNL     1       1.011   8.391  21.530  0.00  0.00    +0.000 A 
ATOM     22  C   UNL     1       0.652   9.743  21.522  0.00  0.00    +0.000 A 
ATOM     23  C   UNL     1       0.805  10.527  20.359  0.00  0.00    +0.000 A 
ATOM     24  C   UNL     1       1.333   9.976  19.188  0.00  0.00    +0.000 A 
ATOM     25  C   UNL     1       1.697   8.643  19.226  0.00  0.00    +0.000 A 
ATOM     26  C   UNL     1       2.331   7.801  18.214  0.00  0.00    +0.000 C 
ATOM     27  O   UNL     1       2.658   8.181  17.102  0.00  0.00    +0.000 OA
ENDBRANCH  16  17
ENDBRANCH   1  16
TORSDOF 6
ENDMDL
MODEL 7
REMARK VINA RESULT:      -7.9      1.729      2.230
REMARK  Name = 
REMARK  6 active torsions:
REMARK  status: ('A' for Active; 'I' for Inactive)
REMARK    1  A    between atoms: C_2  and  C_3
REMARK    2  A    between atoms: C_3  and  O_4
REMARK    3  A    between atoms: O_4  and  C_5
REMARK    4  A    between atoms: C_5  and  C_7
REMARK    5  A    between atoms: C_7  and  N_8
REMARK    6  A    between atoms: N_19  and  C_20
REMARK                            x       y       z     vdW  Elec       q    Type
REMARK                         _______ _______ _______ _____ _____    ______ ____
ROOT
ATOM      1  C   UNL     1       6.334   6.858  16.865  0.00  0.00    +0.000 C 
ATOM      2  O   UNL     1       5.812   6.294  15.912  0.00  0.00    +0.000 OA
ENDROOT
BRANCH   1   3
ATOM      3  O   UNL     1       7.456   7.632  16.786  0.00  0.00    +0.000 OA
BRANCH   3   4
ATOM      4  C   UNL     1       8.067   7.881  18.048  0.00  0.00    +0.000 C 
BRANCH   4   6
ATOM      5  O   UNL     1       7.983  10.215  17.515  0.00  0.00    +0.000 OA
ATOM      6  C   UNL     1       8.422   9.357  18.280  0.00  0.00    +0.000 C 
ATOM      7  N   UNL     1       9.301   9.584  19.326  0.00  0.00    +0.000 N 
ATOM      8  H   UNL     1       9.792   8.774  19.689  0.00  0.00    +0.000 HD
BRANCH   7   9
ATOM      9  C   UNL     1       9.725  10.858  19.778  0.00  0.00    +0.000 A 
ATOM     10  C   UNL     1      10.677  11.633  19.103  0.00  0.00    +0.000 A 
ATOM     11  C   UNL     1      11.126  12.851  19.631  0.00  0.00    +0.000 A 
ATOM     12  C   UNL     1      10.605  13.321  20.831  0.00  0.00    +0.000 A 
ATOM     13  C   UNL     1       9.615  12.582  21.470  0.00  0.00    +0.000 A 
ATOM     14  F   UNL     1       9.091  13.044  22.614  0.00  0.00    +0.000 F 
ATOM     15  C   UNL     1       9.163  11.369  20.952  0.00  0.00    +0.000 A 
ENDBRANCH   7   9
ENDBRANCH   4   6
ENDBRANCH   3   4
ENDBRANCH   1   3
BRANCH   1  16
ATOM     16  C   UNL     1       5.848   6.758  18.293  0.00  0.00    +0.000 C 
BRANCH  16  17
ATOM     17  N   UNL     1       4.820   5.746  18.406  0.00  0.00    +0.000 N 
ATOM     18  C   UNL     1       3.490   5.969  18.176  0.00  0.00    +0.000 C 
ATOM     19  O   UNL     1       2.928   7.003  17.882  0.00  0.00    +0.000 OA
ATOM     20  C   UNL     1       2.817   4.684  18.363  0.00  0.00    +0.000 A 
ATOM     21  C   UNL     1       1.491   4.336  18.199  0.00  0.00    +0.000 A 
ATOM     22  C   UNL     1       1.151   2.996  18.417  0.00  0.00    +0.000 A 
ATOM     23  C   UNL     1       2.128   2.055  18.804  0.00  0.00    +0.000 A 
ATOM     24  C   UNL     1       3.464   2.432  18.964  0.00  0.00    +0.000 A 
ATOM     25  C   UNL     1       3.778   3.757  18.725  0.00  0.00    +0.000 A 
ATOM     26  C   UNL     1       5.067   4.446  18.737  0.00  0.00    +0.000 C 
ATOM     27  O   UNL     1       6.137   3.911  18.977  0.00  0.00    +0.000 OA
ENDBRANCH  16  17
ENDBRANCH   1  16
TORSDOF 6
ENDMDL
MODEL 8
REMARK VINA RESULT:      -7.9      1.517      2.490
REMARK  Name = 
REMARK  6 active torsions:
REMARK  status: ('A' for Active; 'I' for Inactive)
REMARK    1  A    between atoms: C_2  and  C_3
REMARK    2  A    between atoms: C_3  and  O_4
REMARK    3  A    between atoms: O_4  and  C_5
REMARK    4  A    between atoms: C_5  and  C_7
REMARK    5  A    between atoms: C_7  and  N_8
REMARK    6  A    between atoms: N_19  and  C_20
REMARK                            x       y       z     vdW  Elec       q    Type
REMARK                         _______ _______ _______ _____ _____    ______ ____
ROOT
ATOM      1  C   UNL     1       5.969   5.700  16.341  0.00  0.00    +0.000 C 
ATOM      2  O   UNL     1       5.407   6.296  15.430  0.00  0.00    +0.000 OA
ENDROOT
BRANCH   1   3
ATOM      3  O   UNL     1       6.904   6.255  17.167  0.00  0.00    +0.000 OA
BRANCH   3   4
ATOM      4  C   UNL     1       6.881   7.679  17.180  0.00  0.00    +0.000 C 
BRANCH   4   6
ATOM      5  O   UNL     1       8.650   7.602  18.792  0.00  0.00    +0.000 OA
ATOM      6  C   UNL     1       8.008   8.305  18.013  0.00  0.00    +0.000 C 
ATOM      7  N   UNL     1       8.150   9.674  17.859  0.00  0.00    +0.000 N 
ATOM      8  H   UNL     1       7.385  10.160  17.404  0.00  0.00    +0.000 HD
BRANCH   7   9
ATOM      9  C   UNL     1       9.156  10.467  18.465  0.00  0.00    +0.000 A 
ATOM     10  C   UNL     1      10.258  10.976  17.764  0.00  0.00    +0.000 A 
ATOM     11  C   UNL     1      11.270  11.686  18.422  0.00  0.00    +0.000 A 
ATOM     12  C   UNL     1      11.177  11.919  19.790  0.00  0.00    +0.000 A 
ATOM     13  C   UNL     1      10.053  11.469  20.474  0.00  0.00    +0.000 A 
ATOM     14  F   UNL     1       9.947  11.714  21.788  0.00  0.00    +0.000 F 
ATOM     15  C   UNL     1       9.042  10.760  19.828  0.00  0.00    +0.000 A 
ENDBRANCH   7   9
ENDBRANCH   4   6
ENDBRANCH   3   4
ENDBRANCH   1   3
BRANCH   1  16
ATOM     16  C   UNL     1       5.752   4.242  16.674  0.00  0.00    +0.000 C 
BRANCH  16  17
ATOM     17  N   UNL     1       4.659   4.095  17.610  0.00  0.00    +0.000 N 
ATOM     18  C   UNL     1       3.375   3.785  17.253  0.00  0.00    +0.000 C 
ATOM     19  O   UNL     1       2.909   3.614  16.147  0.00  0.00    +0.000 OA
ATOM     20  C   UNL     1       2.610   3.698  18.497  0.00  0.00    +0.000 A 
ATOM     21  C   UNL     1       1.289   3.359  18.714  0.00  0.00    +0.000 A 
ATOM     22  C   UNL     1       0.849   3.325  20.041  0.00  0.00    +0.000 A 
ATOM     23  C   UNL     1       1.722   3.639  21.103  0.00  0.00    +0.000 A 
ATOM     24  C   UNL     1       3.056   3.980  20.858  0.00  0.00    +0.000 A 
ATOM     25  C   UNL     1       3.472   3.990  19.540  0.00  0.00    +0.000 A 
ATOM     26  C   UNL     1       4.792   4.231  18.961  0.00  0.00    +0.000 C 
ATOM     27  O   UNL     1       5.797   4.476  19.606  0.00  0.00    +0.000 OA
ENDBRANCH  16  17
ENDBRANCH   1  16
TORSDOF 6
ENDMDL
MODEL 9
REMARK VINA RESULT:      -7.8      4.971      6.799
REMARK  Name = 
REMARK  6 active torsions:
REMARK  status: ('A' for Active; 'I' for Inactive)
REMARK    1  A    between atoms: C_2  and  C_3
REMARK    2  A    between atoms: C_3  and  O_4
REMARK    3  A    between atoms: O_4  and  C_5
REMARK    4  A    between atoms: C_5  and  C_7
REMARK    5  A    between atoms: C_7  and  N_8
REMARK    6  A    between atoms: N_19  and  C_20
REMARK                            x       y       z     vdW  Elec       q    Type
REMARK                         _______ _______ _______ _____ _____    ______ ____
ROOT
ATOM      1  C   UNL     1       4.853   4.106  19.208  0.00  0.00    +0.000 C 
ATOM      2  O   UNL     1       5.332   3.114  19.741  0.00  0.00    +0.000 OA
ENDROOT
BRANCH   1   3
ATOM      3  O   UNL     1       5.524   5.279  19.010  0.00  0.00    +0.000 OA
BRANCH   3   4
ATOM      4  C   UNL     1       6.934   5.117  18.897  0.00  0.00    +0.000 C 
BRANCH   4   6
ATOM      5  O   UNL     1       8.445   4.087  17.349  0.00  0.00    +0.000 OA
ATOM      6  C   UNL     1       7.395   4.714  17.489  0.00  0.00    +0.000 C 
ATOM      7  N   UNL     1       6.592   5.179  16.461  0.00  0.00    +0.000 N 
ATOM      8  H   UNL     1       5.926   5.905  16.700  0.00  0.00    +0.000 HD
BRANCH   7   9
ATOM      9  C   UNL     1       6.769   4.886  15.086  0.00  0.00    +0.000 A 
ATOM     10  C   UNL     1       7.793   5.442  14.308  0.00  0.00    +0.000 A 
ATOM     11  C   UNL     1       7.880   5.187  12.934  0.00  0.00    +0.000 A 
ATOM     12  C   UNL     1       6.954   4.347  12.325  0.00  0.00    +0.000 A 
ATOM     13  C   UNL     1       5.975   3.744  13.107  0.00  0.00    +0.000 A 
ATOM     14  F   UNL     1       5.097   2.913  12.529  0.00  0.00    +0.000 F 
ATOM     15  C   UNL     1       5.881   3.993  14.476  0.00  0.00    +0.000 A 
ENDBRANCH   7   9
ENDBRANCH   4   6
ENDBRANCH   3   4
ENDBRANCH   1   3
BRANCH   1  16
ATOM     16  C   UNL     1       3.427   4.212  18.718  0.00  0.00    +0.000 C 
BRANCH  16  17
ATOM     17  N   UNL     1       2.946   5.570  18.852  0.00  0.00    +0.000 N 
ATOM     18  C   UNL     1       3.127   6.547  17.912  0.00  0.00    +0.000 C 
ATOM     19  O   UNL     1       3.719   6.492  16.855  0.00  0.00    +0.000 OA
ATOM     20  C   UNL     1       2.458   7.743  18.425  0.00  0.00    +0.000 A 
ATOM     21  C   UNL     1       2.286   8.987  17.853  0.00  0.00    +0.000 A 
ATOM     22  C   UNL     1       1.555   9.931  18.583  0.00  0.00    +0.000 A 
ATOM     23  C   UNL     1       1.033   9.616  19.855  0.00  0.00    +0.000 A 
ATOM     24  C   UNL     1       1.221   8.348  20.413  0.00  0.00    +0.000 A 
ATOM     25  C   UNL     1       1.932   7.429  19.665  0.00  0.00    +0.000 A 
ATOM     26  C   UNL     1       2.238   6.023  19.926  0.00  0.00    +0.000 C 
ATOM     27  O   UNL     1       1.884   5.410  20.919  0.00  0.00    +0.000 OA
ENDBRANCH  16  17
ENDBRANCH   1  16
TORSDOF 6
ENDMDL
