MODEL 1
REMARK VINA RESULT:      -6.6      0.000      0.000
REMARK  Name = 
REMARK  4 active torsions:
REMARK  status: ('A' for Active; 'I' for Inactive)
REMARK    1  A    between atoms: C_2  and  C_3
REMARK    2  A    between atoms: C_2  and  C_4
REMARK    3  A    between atoms: C_8  and  C_9
REMARK    4  A    between atoms: C_9  and  O_10
REMARK                            x       y       z     vdW  Elec       q    Type
REMARK                         _______ _______ _______ _____ _____    ______ ____
ROOT
ATOM      1  C   UNL     1       2.033   4.455  18.375  0.00  0.00    +0.000 C 
ATOM      2  C   UNL     1       2.969   3.369  17.802  0.00  0.00    +0.000 C 
ATOM      3  C   UNL     1       3.914   4.235  17.056  0.00  0.00    +0.000 A 
ATOM      4  C   UNL     1       4.899   3.893  16.144  0.00  0.00    +0.000 A 
ATOM      5  C   UNL     1       5.707   4.913  15.609  0.00  0.00    +0.000 A 
ATOM      6  C   UNL     1       5.507   6.250  16.020  0.00  0.00    +0.000 A 
ATOM      7  C   UNL     1       4.516   6.573  16.950  0.00  0.00    +0.000 A 
ATOM      8  C   UNL     1       3.734   5.552  17.445  0.00  0.00    +0.000 A 
ATOM      9  O   UNL     1       2.737   5.728  18.368  0.00  0.00    +0.000 OA
ENDROOT
BRANCH   1  11
ATOM     10  C   UNL     1       0.823   3.085  20.082  0.00  0.00    +0.000 C 
ATOM     11  C   UNL     1       1.520   4.193  19.781  0.00  0.00    +0.000 C 
ATOM     12  C   UNL     1       1.780   5.250  20.823  0.00  0.00    +0.000 C 
ENDBRANCH   1  11
BRANCH   5  13
ATOM     13  C   UNL     1       6.770   4.579  14.595  0.00  0.00    +0.000 C 
BRANCH  13  14
ATOM     14  O   UNL     1       7.783   5.577  14.586  0.00  0.00    +0.000 OA
ATOM     15  H   UNL     1       7.328   6.433  14.508  0.00  0.00    +0.000 HD
ENDBRANCH  13  14
ENDBRANCH   5  13
TORSDOF 3
ENDMDL
MODEL 2
REMARK VINA RESULT:      -6.4      0.720      1.177
REMARK  Name = 
REMARK  4 active torsions:
REMARK  status: ('A' for Active; 'I' for Inactive)
REMARK    1  A    between atoms: C_2  and  C_3
REMARK    2  A    between atoms: C_2  and  C_4
REMARK    3  A    between atoms: C_8  and  C_9
REMARK    4  A    between atoms: C_9  and  O_10
REMARK                            x       y       z     vdW  Elec       q    Type
REMARK                         _______ _______ _______ _____ _____    ______ ____
ROOT
ATOM      1  C   UNL     1       2.042   4.515  18.406  0.00  0.00    +0.000 C 
ATOM      2  C   UNL     1       2.933   3.426  17.773  0.00  0.00    +0.000 C 
ATOM      3  C   UNL     1       3.892   4.292  17.044  0.00  0.00    +0.000 A 
ATOM      4  C   UNL     1       4.848   3.958  16.101  0.00  0.00    +0.000 A 
ATOM      5  C   UNL     1       5.679   4.973  15.592  0.00  0.00    +0.000 A 
ATOM      6  C   UNL     1       5.529   6.297  16.060  0.00  0.00    +0.000 A 
ATOM      7  C   UNL     1       4.565   6.612  17.022  0.00  0.00    +0.000 A 
ATOM      8  C   UNL     1       3.760   5.597  17.490  0.00  0.00    +0.000 A 
ATOM      9  O   UNL     1       2.785   5.765  18.437  0.00  0.00    +0.000 OA
ENDROOT
BRANCH   1  11
ATOM     10  C   UNL     1       1.596   5.130  20.789  0.00  0.00    +0.000 C 
ATOM     11  C   UNL     1       1.546   4.212  19.810  0.00  0.00    +0.000 C 
ATOM     12  C   UNL     1       1.037   2.819  20.081  0.00  0.00    +0.000 C 
ENDBRANCH   1  11
BRANCH   5  13
ATOM     13  C   UNL     1       6.713   4.648  14.545  0.00  0.00    +0.000 C 
BRANCH  13  14
ATOM     14  O   UNL     1       6.405   3.418  13.903  0.00  0.00    +0.000 OA
ATOM     15  H   UNL     1       6.733   2.712  14.485  0.00  0.00    +0.000 HD
ENDBRANCH  13  14
ENDBRANCH   5  13
TORSDOF 3
ENDMDL
MODEL 3
REMARK VINA RESULT:      -6.3      1.427      1.782
REMARK  Name = 
REMARK  4 active torsions:
REMARK  status: ('A' for Active; 'I' for Inactive)
REMARK    1  A    between atoms: C_2  and  C_3
REMARK    2  A    between atoms: C_2  and  C_4
REMARK    3  A    between atoms: C_8  and  C_9
REMARK    4  A    between atoms: C_9  and  O_10
REMARK                            x       y       z     vdW  Elec       q    Type
REMARK                         _______ _______ _______ _____ _____    ______ ____
ROOT
ATOM      1  C   UNL     1       3.105   4.380  19.061  0.00  0.00    +0.000 C 
ATOM      2  C   UNL     1       2.979   3.980  17.576  0.00  0.00    +0.000 C 
ATOM      3  C   UNL     1       4.371   4.242  17.136  0.00  0.00    +0.000 A 
ATOM      4  C   UNL     1       4.907   4.279  15.860  0.00  0.00    +0.000 A 
ATOM      5  C   UNL     1       6.288   4.501  15.712  0.00  0.00    +0.000 A 
ATOM      6  C   UNL     1       7.094   4.667  16.860  0.00  0.00    +0.000 A 
ATOM      7  C   UNL     1       6.537   4.615  18.141  0.00  0.00    +0.000 A 
ATOM      8  C   UNL     1       5.179   4.408  18.249  0.00  0.00    +0.000 A 
ATOM      9  O   UNL     1       4.509   4.326  19.440  0.00  0.00    +0.000 OA
ENDROOT
BRANCH   1  11
ATOM     10  C   UNL     1       2.111   3.903  21.306  0.00  0.00    +0.000 C 
ATOM     11  C   UNL     1       2.308   3.526  20.032  0.00  0.00    +0.000 C 
ATOM     12  C   UNL     1       1.781   2.207  19.526  0.00  0.00    +0.000 C 
ENDBRANCH   1  11
BRANCH   5  13
ATOM     13  C   UNL     1       6.899   4.572  14.336  0.00  0.00    +0.000 C 
BRANCH  13  14
ATOM     14  O   UNL     1       7.892   5.587  14.283  0.00  0.00    +0.000 OA
ATOM     15  H   UNL     1       7.801   6.020  13.417  0.00  0.00    +0.000 HD
ENDBRANCH  13  14
ENDBRANCH   5  13
TORSDOF 3
ENDMDL
MODEL 4
REMARK VINA RESULT:      -6.3      1.697      1.822
REMARK  Name = 
REMARK  4 active torsions:
REMARK  status: ('A' for Active; 'I' for Inactive)
REMARK    1  A    between atoms: C_2  and  C_3
REMARK    2  A    between atoms: C_2  and  C_4
REMARK    3  A    between atoms: C_8  and  C_9
REMARK    4  A    between atoms: C_9  and  O_10
REMARK                            x       y       z     vdW  Elec       q    Type
REMARK                         _______ _______ _______ _____ _____    ______ ____
ROOT
ATOM      1  C   UNL     1       3.250   4.580  19.166  0.00  0.00    +0.000 C 
ATOM      2  C   UNL     1       3.067   4.092  17.713  0.00  0.00    +0.000 C 
ATOM      3  C   UNL     1       4.448   4.301  17.213  0.00  0.00    +0.000 A 
ATOM      4  C   UNL     1       4.940   4.249  15.920  0.00  0.00    +0.000 A 
ATOM      5  C   UNL     1       6.319   4.436  15.713  0.00  0.00    +0.000 A 
ATOM      6  C   UNL     1       7.167   4.657  16.822  0.00  0.00    +0.000 A 
ATOM      7  C   UNL     1       6.653   4.694  18.121  0.00  0.00    +0.000 A 
ATOM      8  C   UNL     1       5.296   4.520  18.286  0.00  0.00    +0.000 A 
ATOM      9  O   UNL     1       4.665   4.523  19.502  0.00  0.00    +0.000 OA
ENDROOT
BRANCH   1  11
ATOM     10  C   UNL     1       3.002   2.739  20.841  0.00  0.00    +0.000 C 
ATOM     11  C   UNL     1       2.472   3.802  20.213  0.00  0.00    +0.000 C 
ATOM     12  C   UNL     1       1.056   4.237  20.492  0.00  0.00    +0.000 C 
ENDBRANCH   1  11
BRANCH   5  13
ATOM     13  C   UNL     1       6.884   4.411  14.317  0.00  0.00    +0.000 C 
BRANCH  13  14
ATOM     14  O   UNL     1       6.293   3.366  13.557  0.00  0.00    +0.000 OA
ATOM     15  H   UNL     1       6.589   2.530  13.957  0.00  0.00    +0.000 HD
ENDBRANCH  13  14
ENDBRANCH   5  13
TORSDOF 3
ENDMDL
MODEL 5
REMARK VINA RESULT:      -6.2      2.027      5.636
REMARK  Name = 
REMARK  4 active torsions:
REMARK  status: ('A' for Active; 'I' for Inactive)
REMARK    1  A    between atoms: C_2  and  C_3
REMARK    2  A    between atoms: C_2  and  C_4
REMARK    3  A    between atoms: C_8  and  C_9
REMARK    4  A    between atoms: C_9  and  O_10
REMARK                            x       y       z     vdW  Elec       q    Type
REMARK                         _______ _______ _______ _____ _____    ______ ____
ROOT
ATOM      1  C   UNL     1       5.274   6.036  17.885  0.00  0.00    +0.000 C 
ATOM      2  C   UNL     1       5.297   5.276  19.228  0.00  0.00    +0.000 C 
ATOM      3  C   UNL     1       3.934   4.692  19.198  0.00  0.00    +0.000 A 
ATOM      4  C   UNL     1       3.223   4.048  20.197  0.00  0.00    +0.000 A 
ATOM      5  C   UNL     1       1.950   3.532  19.894  0.00  0.00    +0.000 A 
ATOM      6  C   UNL     1       1.434   3.670  18.586  0.00  0.00    +0.000 A 
ATOM      7  C   UNL     1       2.172   4.312  17.589  0.00  0.00    +0.000 A 
ATOM      8  C   UNL     1       3.410   4.817  17.922  0.00  0.00    +0.000 A 
ATOM      9  O   UNL     1       4.239   5.459  17.041  0.00  0.00    +0.000 OA
ENDROOT
BRANCH   1  11
ATOM     10  C   UNL     1       6.911   5.031  16.284  0.00  0.00    +0.000 C 
ATOM     11  C   UNL     1       6.585   6.033  17.116  0.00  0.00    +0.000 C 
ATOM     12  C   UNL     1       7.534   7.178  17.358  0.00  0.00    +0.000 C 
ENDBRANCH   1  11
BRANCH   5  13
ATOM     13  C   UNL     1       1.138   2.848  20.964  0.00  0.00    +0.000 C 
BRANCH  13  14
ATOM     14  O   UNL     1       1.854   2.817  22.191  0.00  0.00    +0.000 OA
ATOM     15  H   UNL     1       1.683   3.666  22.634  0.00  0.00    +0.000 HD
ENDBRANCH  13  14
ENDBRANCH   5  13
TORSDOF 3
ENDMDL
MODEL 6
REMARK VINA RESULT:      -6.2      1.449      1.603
REMARK  Name = 
REMARK  4 active torsions:
REMARK  status: ('A' for Active; 'I' for Inactive)
REMARK    1  A    between atoms: C_2  and  C_3
REMARK    2  A    between atoms: C_2  and  C_4
REMARK    3  A    between atoms: C_8  and  C_9
REMARK    4  A    between atoms: C_9  and  O_10
REMARK                            x       y       z     vdW  Elec       q    Type
REMARK                         _______ _______ _______ _____ _____    ______ ____
ROOT
ATOM      1  C   UNL     1       2.390   4.144  18.858  0.00  0.00    +0.000 C 
ATOM      2  C   UNL     1       2.601   3.774  17.374  0.00  0.00    +0.000 C 
ATOM      3  C   UNL     1       4.032   4.137  17.236  0.00  0.00    +0.000 A 
ATOM      4  C   UNL     1       4.815   4.240  16.098  0.00  0.00    +0.000 A 
ATOM      5  C   UNL     1       6.179   4.556  16.243  0.00  0.00    +0.000 A 
ATOM      6  C   UNL     1       6.717   4.746  17.535  0.00  0.00    +0.000 A 
ATOM      7  C   UNL     1       5.914   4.626  18.671  0.00  0.00    +0.000 A 
ATOM      8  C   UNL     1       4.580   4.329  18.493  0.00  0.00    +0.000 A 
ATOM      9  O   UNL     1       3.686   4.174  19.519  0.00  0.00    +0.000 OA
ENDROOT
BRANCH   1  11
ATOM     10  C   UNL     1       0.652   2.352  19.011  0.00  0.00    +0.000 C 
ATOM     11  C   UNL     1       1.471   3.216  19.633  0.00  0.00    +0.000 C 
ATOM     12  C   UNL     1       1.473   3.333  21.136  0.00  0.00    +0.000 C 
ENDBRANCH   1  11
BRANCH   5  13
ATOM     13  C   UNL     1       7.053   4.701  15.024  0.00  0.00    +0.000 C 
BRANCH  13  14
ATOM     14  O   UNL     1       6.505   3.983  13.927  0.00  0.00    +0.000 OA
ATOM     15  H   UNL     1       5.654   3.622  14.229  0.00  0.00    +0.000 HD
ENDBRANCH  13  14
ENDBRANCH   5  13
TORSDOF 3
ENDMDL
MODEL 7
REMARK VINA RESULT:      -6.2      2.585      5.585
REMARK  Name = 
REMARK  4 active torsions:
REMARK  status: ('A' for Active; 'I' for Inactive)
REMARK    1  A    between atoms: C_2  and  C_3
REMARK    2  A    between atoms: C_2  and  C_4
REMARK    3  A    between atoms: C_8  and  C_9
REMARK    4  A    between atoms: C_9  and  O_10
REMARK                            x       y       z     vdW  Elec       q    Type
REMARK                         _______ _______ _______ _____ _____    ______ ____
ROOT
ATOM      1  C   UNL     1       6.148   5.175  17.837  0.00  0.00    +0.000 C 
ATOM      2  C   UNL     1       4.730   5.762  17.680  0.00  0.00    +0.000 C 
ATOM      3  C   UNL     1       3.943   4.653  18.272  0.00  0.00    +0.000 A 
ATOM      4  C   UNL     1       2.575   4.437  18.272  0.00  0.00    +0.000 A 
ATOM      5  C   UNL     1       2.067   3.319  18.960  0.00  0.00    +0.000 A 
ATOM      6  C   UNL     1       2.956   2.456  19.639  0.00  0.00    +0.000 A 
ATOM      7  C   UNL     1       4.332   2.697  19.637  0.00  0.00    +0.000 A 
ATOM      8  C   UNL     1       4.797   3.794  18.944  0.00  0.00    +0.000 A 
ATOM      9  O   UNL     1       6.117   4.150  18.869  0.00  0.00    +0.000 OA
ENDROOT
BRANCH   1  11
ATOM     10  C   UNL     1       7.431   7.288  17.451  0.00  0.00    +0.000 C 
ATOM     11  C   UNL     1       7.231   6.182  18.187  0.00  0.00    +0.000 C 
ATOM     12  C   UNL     1       8.111   5.872  19.370  0.00  0.00    +0.000 C 
ENDBRANCH   1  11
BRANCH   5  13
ATOM     13  C   UNL     1       0.587   3.041  18.959  0.00  0.00    +0.000 C 
BRANCH  13  14
ATOM     14  O   UNL     1       0.319   1.767  18.387  0.00  0.00    +0.000 OA
ATOM     15  H   UNL     1       1.181   1.343  18.237  0.00  0.00    +0.000 HD
ENDBRANCH  13  14
ENDBRANCH   5  13
TORSDOF 3
ENDMDL
MODEL 8
REMARK VINA RESULT:      -6.2      3.545      4.930
REMARK  Name = 
REMARK  4 active torsions:
REMARK  status: ('A' for Active; 'I' for Inactive)
REMARK    1  A    between atoms: C_2  and  C_3
REMARK    2  A    between atoms: C_2  and  C_4
REMARK    3  A    between atoms: C_8  and  C_9
REMARK    4  A    between atoms: C_9  and  O_10
REMARK                            x       y       z     vdW  Elec       q    Type
REMARK                         _______ _______ _______ _____ _____    ______ ____
ROOT
ATOM      1  C   UNL     1       6.441   5.983  16.342  0.00  0.00    +0.000 C 
ATOM      2  C   UNL     1       5.490   4.795  16.084  0.00  0.00    +0.000 C 
ATOM      3  C   UNL     1       5.893   4.459  14.697  0.00  0.00    +0.000 A 
ATOM      4  C   UNL     1       5.299   3.606  13.783  0.00  0.00    +0.000 A 
ATOM      5  C   UNL     1       5.917   3.418  12.533  0.00  0.00    +0.000 A 
ATOM      6  C   UNL     1       7.126   4.090  12.245  0.00  0.00    +0.000 A 
ATOM      7  C   UNL     1       7.716   4.938  13.185  0.00  0.00    +0.000 A 
ATOM      8  C   UNL     1       7.078   5.108  14.395  0.00  0.00    +0.000 A 
ATOM      9  O   UNL     1       7.552   5.901  15.407  0.00  0.00    +0.000 OA
ENDROOT
BRANCH   1  11
ATOM     10  C   UNL     1       6.681   5.170  18.695  0.00  0.00    +0.000 C 
ATOM     11  C   UNL     1       6.999   6.072  17.752  0.00  0.00    +0.000 C 
ATOM     12  C   UNL     1       7.891   7.244  18.073  0.00  0.00    +0.000 C 
ENDBRANCH   1  11
BRANCH   5  13
ATOM     13  C   UNL     1       5.284   2.517  11.505  0.00  0.00    +0.000 C 
BRANCH  13  14
ATOM     14  O   UNL     1       6.050   1.331  11.341  0.00  0.00    +0.000 OA
ATOM     15  H   UNL     1       5.851   0.993  10.451  0.00  0.00    +0.000 HD
ENDBRANCH  13  14
ENDBRANCH   5  13
TORSDOF 3
ENDMDL
MODEL 9
REMARK VINA RESULT:      -6.1      2.524      5.606
REMARK  Name = 
REMARK  4 active torsions:
REMARK  status: ('A' for Active; 'I' for Inactive)
REMARK    1  A    between atoms: C_2  and  C_3
REMARK    2  A    between atoms: C_2  and  C_4
REMARK    3  A    between atoms: C_8  and  C_9
REMARK    4  A    between atoms: C_9  and  O_10
REMARK                            x       y       z     vdW  Elec       q    Type
REMARK                         _______ _______ _______ _____ _____    ______ ____
ROOT
ATOM      1  C   UNL     1       6.196   4.979  17.838  0.00  0.00    +0.000 C 
ATOM      2  C   UNL     1       4.767   5.408  17.445  0.00  0.00    +0.000 C 
ATOM      3  C   UNL     1       3.998   4.329  18.112  0.00  0.00    +0.000 A 
ATOM      4  C   UNL     1       2.659   3.995  18.000  0.00  0.00    +0.000 A 
ATOM      5  C   UNL     1       2.157   2.945  18.791  0.00  0.00    +0.000 A 
ATOM      6  C   UNL     1       3.019   2.269  19.683  0.00  0.00    +0.000 A 
ATOM      7  C   UNL     1       4.365   2.629  19.789  0.00  0.00    +0.000 A 
ATOM      8  C   UNL     1       4.827   3.653  18.992  0.00  0.00    +0.000 A 
ATOM      9  O   UNL     1       6.118   4.111  19.003  0.00  0.00    +0.000 OA
ENDROOT
BRANCH   1  11
ATOM     10  C   UNL     1       8.027   6.050  19.163  0.00  0.00    +0.000 C 
ATOM     11  C   UNL     1       7.154   6.117  18.144  0.00  0.00    +0.000 C 
ATOM     12  C   UNL     1       7.058   7.355  17.290  0.00  0.00    +0.000 C 
ENDBRANCH   1  11
BRANCH   5  13
ATOM     13  C   UNL     1       0.710   2.539  18.676  0.00  0.00    +0.000 C 
BRANCH  13  14
ATOM     14  O   UNL     1       0.000   2.878  19.859  0.00  0.00    +0.000 OA
ATOM     15  H   UNL     1       0.559   2.605  20.606  0.00  0.00    +0.000 HD
ENDBRANCH  13  14
ENDBRANCH   5  13
TORSDOF 3
ENDMDL
