MODEL 1
REMARK VINA RESULT:      -7.4      0.000      0.000
REMARK  Name = 
REMARK  5 active torsions:
REMARK  status: ('A' for Active; 'I' for Inactive)
REMARK    1  A    between atoms: C_3  and  C_4
REMARK    2  A    between atoms: N_11  and  C_12
REMARK    3  A    between atoms: C_12  and  C_13
REMARK    4  A    between atoms: C_13  and  C_14
REMARK    5  A    between atoms: C_14  and  C_15
REMARK                            x       y       z     vdW  Elec       q    Type
REMARK                         _______ _______ _______ _____ _____    ______ ____
ROOT
ATOM      1  N   UNL     1       5.322   3.965  19.518  0.00  0.00    +0.000 NA
ATOM      2  C   UNL     1       5.714   4.186  18.295  0.00  0.00    +0.000 A 
ATOM      3  C   UNL     1       6.875   5.148  17.999  0.00  0.00    +0.000 A 
ATOM      4  C   UNL     1       7.192   5.312  16.697  0.00  0.00    +0.000 A 
ATOM      5  C   UNL     1       6.485   4.633  15.631  0.00  0.00    +0.000 A 
ATOM      6 CL   UNL     1       6.965   4.921  14.004  0.00  0.00    +0.000 Cl
ATOM      7  C   UNL     1       5.480   3.799  15.924  0.00  0.00    +0.000 A 
ATOM      8  N   UNL     1       5.069   3.535  17.228  0.00  0.00    +0.000 N 
ATOM      9  H   UNL     1       5.901   4.513  20.181  0.00  0.00    +0.000 HD
ENDROOT
BRANCH   3  10
ATOM     10  C   UNL     1       7.604   5.847  19.100  0.00  0.00    +0.000 C 
ATOM     11  N   UNL     1       8.264   7.007  18.830  0.00  0.00    +0.000 N 
ATOM     12  O   UNL     1       7.620   5.400  20.245  0.00  0.00    +0.000 OA
ATOM     13  H   UNL     1       8.317   7.471  17.938  0.00  0.00    +0.000 HD
ATOM     14  H   UNL     1       8.741   7.443  19.611  0.00  0.00    +0.000 HD
ENDBRANCH   3  10
BRANCH   8  15
ATOM     15  C   UNL     1       3.935   2.626  17.488  0.00  0.00    +0.000 C 
BRANCH  15  16
ATOM     16  C   UNL     1       2.605   3.343  17.249  0.00  0.00    +0.000 C 
BRANCH  16  17
ATOM     17  C   UNL     1       1.788   3.512  18.535  0.00  0.00    +0.000 C 
BRANCH  17  18
ATOM     18  C   UNL     1       1.849   4.944  19.019  0.00  0.00    +0.000 A 
ATOM     19  C   UNL     1       2.356   5.955  18.191  0.00  0.00    +0.000 A 
ATOM     20  C   UNL     1       2.496   7.259  18.669  0.00  0.00    +0.000 A 
ATOM     21  C   UNL     1       2.127   7.567  19.979  0.00  0.00    +0.000 A 
ATOM     22  C   UNL     1       1.606   6.573  20.805  0.00  0.00    +0.000 A 
ATOM     23  C   UNL     1       1.468   5.268  20.329  0.00  0.00    +0.000 A 
ENDBRANCH  17  18
ENDBRANCH  16  17
ENDBRANCH  15  16
ENDBRANCH   8  15
TORSDOF 5
ENDMDL
MODEL 2
REMARK VINA RESULT:      -7.4      1.142      1.797
REMARK  Name = 
REMARK  5 active torsions:
REMARK  status: ('A' for Active; 'I' for Inactive)
REMARK    1  A    between atoms: C_3  and  C_4
REMARK    2  A    between atoms: N_11  and  C_12
REMARK    3  A    between atoms: C_12  and  C_13
REMARK    4  A    between atoms: C_13  and  C_14
REMARK    5  A    between atoms: C_14  and  C_15
REMARK                            x       y       z     vdW  Elec       q    Type
REMARK                         _______ _______ _______ _____ _____    ______ ____
ROOT
ATOM      1  N   UNL     1       5.270   4.176  19.540  0.00  0.00    +0.000 NA
ATOM      2  C   UNL     1       5.703   4.361  18.324  0.00  0.00    +0.000 A 
ATOM      3  C   UNL     1       6.958   5.204  18.051  0.00  0.00    +0.000 A 
ATOM      4  C   UNL     1       7.311   5.339  16.755  0.00  0.00    +0.000 A 
ATOM      5  C   UNL     1       6.559   4.736  15.675  0.00  0.00    +0.000 A 
ATOM      6 CL   UNL     1       7.093   4.979  14.058  0.00  0.00    +0.000 Cl
ATOM      7  C   UNL     1       5.472   4.004  15.948  0.00  0.00    +0.000 A 
ATOM      8  N   UNL     1       5.015   3.780  17.244  0.00  0.00    +0.000 N 
ATOM      9  H   UNL     1       5.888   4.663  20.214  0.00  0.00    +0.000 HD
ENDROOT
BRANCH   3  10
ATOM     10  C   UNL     1       7.733   5.825  19.167  0.00  0.00    +0.000 C 
ATOM     11  N   UNL     1       8.388   6.999  18.951  0.00  0.00    +0.000 N 
ATOM     12  O   UNL     1       7.792   5.302  20.278  0.00  0.00    +0.000 OA
ATOM     13  H   UNL     1       8.408   7.523  18.090  0.00  0.00    +0.000 HD
ATOM     14  H   UNL     1       8.898   7.381  19.739  0.00  0.00    +0.000 HD
ENDBRANCH   3  10
BRANCH   8  15
ATOM     15  C   UNL     1       3.793   2.986  17.480  0.00  0.00    +0.000 C 
BRANCH  15  16
ATOM     16  C   UNL     1       2.566   3.704  16.914  0.00  0.00    +0.000 C 
BRANCH  16  17
ATOM     17  C   UNL     1       1.289   3.399  17.702  0.00  0.00    +0.000 C 
BRANCH  17  18
ATOM     18  C   UNL     1       1.540   3.512  19.189  0.00  0.00    +0.000 A 
ATOM     19  C   UNL     1       1.821   4.757  19.771  0.00  0.00    +0.000 A 
ATOM     20  C   UNL     1       2.142   4.849  21.127  0.00  0.00    +0.000 A 
ATOM     21  C   UNL     1       2.182   3.699  21.915  0.00  0.00    +0.000 A 
ATOM     22  C   UNL     1       1.888   2.460  21.350  0.00  0.00    +0.000 A 
ATOM     23  C   UNL     1       1.569   2.365  19.995  0.00  0.00    +0.000 A 
ENDBRANCH  17  18
ENDBRANCH  16  17
ENDBRANCH  15  16
ENDBRANCH   8  15
TORSDOF 5
ENDMDL
MODEL 3
REMARK VINA RESULT:      -7.3      1.761      2.417
REMARK  Name = 
REMARK  5 active torsions:
REMARK  status: ('A' for Active; 'I' for Inactive)
REMARK    1  A    between atoms: C_3  and  C_4
REMARK    2  A    between atoms: N_11  and  C_12
REMARK    3  A    between atoms: C_12  and  C_13
REMARK    4  A    between atoms: C_13  and  C_14
REMARK    5  A    between atoms: C_14  and  C_15
REMARK                            x       y       z     vdW  Elec       q    Type
REMARK                         _______ _______ _______ _____ _____    ______ ____
ROOT
ATOM      1  N   UNL     1       4.788   5.434  19.476  0.00  0.00    +0.000 NA
ATOM      2  C   UNL     1       5.324   5.287  18.297  0.00  0.00    +0.000 A 
ATOM      3  C   UNL     1       6.821   5.549  18.071  0.00  0.00    +0.000 A 
ATOM      4  C   UNL     1       7.268   5.377  16.809  0.00  0.00    +0.000 A 
ATOM      5  C   UNL     1       6.401   4.976  15.721  0.00  0.00    +0.000 A 
ATOM      6 CL   UNL     1       7.074   4.795  14.149  0.00  0.00    +0.000 Cl
ATOM      7  C   UNL     1       5.101   4.752  15.954  0.00  0.00    +0.000 A 
ATOM      8  N   UNL     1       4.523   4.882  17.214  0.00  0.00    +0.000 N 
ATOM      9  H   UNL     1       5.509   5.729  20.160  0.00  0.00    +0.000 HD
ENDROOT
BRANCH   3  10
ATOM     10  C   UNL     1       7.715   5.962  19.194  0.00  0.00    +0.000 C 
ATOM     11  N   UNL     1       8.478   7.082  19.061  0.00  0.00    +0.000 N 
ATOM     12  O   UNL     1       7.775   5.316  20.238  0.00  0.00    +0.000 OA
ATOM     13  H   UNL     1       8.509   7.692  18.260  0.00  0.00    +0.000 HD
ATOM     14  H   UNL     1       9.066   7.320  19.851  0.00  0.00    +0.000 HD
ENDBRANCH   3  10
BRANCH   8  15
ATOM     15  C   UNL     1       3.078   4.649  17.403  0.00  0.00    +0.000 C 
BRANCH  15  16
ATOM     16  C   UNL     1       2.676   3.282  16.844  0.00  0.00    +0.000 C 
BRANCH  16  17
ATOM     17  C   UNL     1       3.055   2.128  17.778  0.00  0.00    +0.000 C 
BRANCH  17  18
ATOM     18  C   UNL     1       2.505   2.364  19.167  0.00  0.00    +0.000 A 
ATOM     19  C   UNL     1       1.154   2.691  19.351  0.00  0.00    +0.000 A 
ATOM     20  C   UNL     1       0.666   2.996  20.623  0.00  0.00    +0.000 A 
ATOM     21  C   UNL     1       1.522   2.975  21.723  0.00  0.00    +0.000 A 
ATOM     22  C   UNL     1       2.862   2.634  21.554  0.00  0.00    +0.000 A 
ATOM     23  C   UNL     1       3.353   2.331  20.282  0.00  0.00    +0.000 A 
ENDBRANCH  17  18
ENDBRANCH  16  17
ENDBRANCH  15  16
ENDBRANCH   8  15
TORSDOF 5
ENDMDL
MODEL 4
REMARK VINA RESULT:      -7.3      1.366      2.074
REMARK  Name = 
REMARK  5 active torsions:
REMARK  status: ('A' for Active; 'I' for Inactive)
REMARK    1  A    between atoms: C_3  and  C_4
REMARK    2  A    between atoms: N_11  and  C_12
REMARK    3  A    between atoms: C_12  and  C_13
REMARK    4  A    between atoms: C_13  and  C_14
REMARK    5  A    between atoms: C_14  and  C_15
REMARK                            x       y       z     vdW  Elec       q    Type
REMARK                         _______ _______ _______ _____ _____    ______ ____
ROOT
ATOM      1  N   UNL     1       5.429   4.451  19.432  0.00  0.00    +0.000 NA
ATOM      2  C   UNL     1       5.821   4.546  18.192  0.00  0.00    +0.000 A 
ATOM      3  C   UNL     1       7.066   5.365  17.817  0.00  0.00    +0.000 A 
ATOM      4  C   UNL     1       7.376   5.405  16.504  0.00  0.00    +0.000 A 
ATOM      5  C   UNL     1       6.588   4.728  15.496  0.00  0.00    +0.000 A 
ATOM      6 CL   UNL     1       7.068   4.852  13.849  0.00  0.00    +0.000 Cl
ATOM      7  C   UNL     1       5.511   4.020  15.857  0.00  0.00    +0.000 A 
ATOM      8  N   UNL     1       5.097   3.891  17.180  0.00  0.00    +0.000 N 
ATOM      9  H   UNL     1       6.070   4.983  20.048  0.00  0.00    +0.000 HD
ENDROOT
BRANCH   3  10
ATOM     10  C   UNL     1       7.879   6.062  18.860  0.00  0.00    +0.000 C 
ATOM     11  N   UNL     1       8.186   5.407  20.013  0.00  0.00    +0.000 N 
ATOM     12  O   UNL     1       8.279   7.213  18.699  0.00  0.00    +0.000 OA
ATOM     13  H   UNL     1       7.922   4.465  20.254  0.00  0.00    +0.000 HD
ATOM     14  H   UNL     1       8.740   5.922  20.687  0.00  0.00    +0.000 HD
ENDBRANCH   3  10
BRANCH   8  15
ATOM     15  C   UNL     1       3.883   3.119  17.514  0.00  0.00    +0.000 C 
BRANCH  15  16
ATOM     16  C   UNL     1       2.652   3.737  16.848  0.00  0.00    +0.000 C 
BRANCH  16  17
ATOM     17  C   UNL     1       1.376   3.545  17.674  0.00  0.00    +0.000 C 
BRANCH  17  18
ATOM     18  C   UNL     1       1.693   3.551  19.152  0.00  0.00    +0.000 A 
ATOM     19  C   UNL     1       1.647   2.362  19.895  0.00  0.00    +0.000 A 
ATOM     20  C   UNL     1       1.851   2.381  21.276  0.00  0.00    +0.000 A 
ATOM     21  C   UNL     1       2.106   3.586  21.929  0.00  0.00    +0.000 A 
ATOM     22  C   UNL     1       2.171   4.771  21.198  0.00  0.00    +0.000 A 
ATOM     23  C   UNL     1       1.965   4.754  19.817  0.00  0.00    +0.000 A 
ENDBRANCH  17  18
ENDBRANCH  16  17
ENDBRANCH  15  16
ENDBRANCH   8  15
TORSDOF 5
ENDMDL
MODEL 5
REMARK VINA RESULT:      -7.3      0.864      1.381
REMARK  Name = 
REMARK  5 active torsions:
REMARK  status: ('A' for Active; 'I' for Inactive)
REMARK    1  A    between atoms: C_3  and  C_4
REMARK    2  A    between atoms: N_11  and  C_12
REMARK    3  A    between atoms: C_12  and  C_13
REMARK    4  A    between atoms: C_13  and  C_14
REMARK    5  A    between atoms: C_14  and  C_15
REMARK                            x       y       z     vdW  Elec       q    Type
REMARK                         _______ _______ _______ _____ _____    ______ ____
ROOT
ATOM      1  N   UNL     1       5.622   4.849  19.314  0.00  0.00    +0.000 NA
ATOM      2  C   UNL     1       5.781   4.672  18.032  0.00  0.00    +0.000 A 
ATOM      3  C   UNL     1       6.754   5.547  17.227  0.00  0.00    +0.000 A 
ATOM      4  C   UNL     1       6.833   5.285  15.906  0.00  0.00    +0.000 A 
ATOM      5  C   UNL     1       6.049   4.248  15.268  0.00  0.00    +0.000 A 
ATOM      6 CL   UNL     1       6.221   4.003  13.574  0.00  0.00    +0.000 Cl
ATOM      7  C   UNL     1       5.213   3.501  15.999  0.00  0.00    +0.000 A 
ATOM      8  N   UNL     1       5.053   3.665  17.373  0.00  0.00    +0.000 N 
ATOM      9  H   UNL     1       6.230   5.621  19.643  0.00  0.00    +0.000 HD
ENDROOT
BRANCH   3  10
ATOM     10  C   UNL     1       7.563   6.616  17.887  0.00  0.00    +0.000 C 
ATOM     11  N   UNL     1       7.712   7.818  17.265  0.00  0.00    +0.000 N 
ATOM     12  O   UNL     1       8.095   6.438  18.981  0.00  0.00    +0.000 OA
ATOM     13  H   UNL     1       7.320   8.083  16.375  0.00  0.00    +0.000 HD
ATOM     14  H   UNL     1       8.268   8.511  17.754  0.00  0.00    +0.000 HD
ENDBRANCH   3  10
BRANCH   8  15
ATOM     15  C   UNL     1       4.095   2.828  18.121  0.00  0.00    +0.000 C 
BRANCH  15  16
ATOM     16  C   UNL     1       2.736   2.806  17.417  0.00  0.00    +0.000 C 
BRANCH  16  17
ATOM     17  C   UNL     1       1.595   3.279  18.323  0.00  0.00    +0.000 C 
BRANCH  17  18
ATOM     18  C   UNL     1       1.873   4.670  18.847  0.00  0.00    +0.000 A 
ATOM     19  C   UNL     1       1.709   4.964  20.209  0.00  0.00    +0.000 A 
ATOM     20  C   UNL     1       1.878   6.268  20.678  0.00  0.00    +0.000 A 
ATOM     21  C   UNL     1       2.215   7.291  19.792  0.00  0.00    +0.000 A 
ATOM     22  C   UNL     1       2.397   7.007  18.440  0.00  0.00    +0.000 A 
ATOM     23  C   UNL     1       2.226   5.703  17.969  0.00  0.00    +0.000 A 
ENDBRANCH  17  18
ENDBRANCH  16  17
ENDBRANCH  15  16
ENDBRANCH   8  15
TORSDOF 5
ENDMDL
MODEL 6
REMARK VINA RESULT:      -7.3      3.137      6.461
REMARK  Name = 
REMARK  5 active torsions:
REMARK  status: ('A' for Active; 'I' for Inactive)
REMARK    1  A    between atoms: C_3  and  C_4
REMARK    2  A    between atoms: N_11  and  C_12
REMARK    3  A    between atoms: C_12  and  C_13
REMARK    4  A    between atoms: C_13  and  C_14
REMARK    5  A    between atoms: C_14  and  C_15
REMARK                            x       y       z     vdW  Elec       q    Type
REMARK                         _______ _______ _______ _____ _____    ______ ____
ROOT
ATOM      1  N   UNL     1       4.627   2.614  19.527  0.00  0.00    +0.000 NA
ATOM      2  C   UNL     1       4.053   3.784  19.486  0.00  0.00    +0.000 A 
ATOM      3  C   UNL     1       2.810   4.085  20.337  0.00  0.00    +0.000 A 
ATOM      4  C   UNL     1       2.290   5.325  20.210  0.00  0.00    +0.000 A 
ATOM      5  C   UNL     1       2.855   6.320  19.324  0.00  0.00    +0.000 A 
ATOM      6 CL   UNL     1       2.108   7.867  19.231  0.00  0.00    +0.000 Cl
ATOM      7  C   UNL     1       3.941   6.026  18.598  0.00  0.00    +0.000 A 
ATOM      8  N   UNL     1       4.577   4.789  18.653  0.00  0.00    +0.000 N 
ATOM      9  H   UNL     1       4.124   1.996  20.190  0.00  0.00    +0.000 HD
ENDROOT
BRANCH   3  10
ATOM     10  C   UNL     1       2.228   3.057  21.252  0.00  0.00    +0.000 C 
ATOM     11  N   UNL     1       0.884   2.841  21.243  0.00  0.00    +0.000 N 
ATOM     12  O   UNL     1       2.936   2.399  22.012  0.00  0.00    +0.000 OA
ATOM     13  H   UNL     1       0.207   3.311  20.663  0.00  0.00    +0.000 HD
ATOM     14  H   UNL     1       0.539   2.133  21.880  0.00  0.00    +0.000 HD
ENDBRANCH   3  10
BRANCH   8  15
ATOM     15  C   UNL     1       5.756   4.514  17.808  0.00  0.00    +0.000 C 
BRANCH  15  16
ATOM     16  C   UNL     1       5.670   5.294  16.494  0.00  0.00    +0.000 C 
BRANCH  16  17
ATOM     17  C   UNL     1       7.005   5.331  15.743  0.00  0.00    +0.000 C 
BRANCH  17  18
ATOM     18  C   UNL     1       6.834   4.827  14.327  0.00  0.00    +0.000 A 
ATOM     19  C   UNL     1       5.827   3.902  14.018  0.00  0.00    +0.000 A 
ATOM     20  C   UNL     1       5.726   3.368  12.731  0.00  0.00    +0.000 A 
ATOM     21  C   UNL     1       6.627   3.756  11.741  0.00  0.00    +0.000 A 
ATOM     22  C   UNL     1       7.622   4.688  12.034  0.00  0.00    +0.000 A 
ATOM     23  C   UNL     1       7.726   5.221  13.320  0.00  0.00    +0.000 A 
ENDBRANCH  17  18
ENDBRANCH  16  17
ENDBRANCH  15  16
ENDBRANCH   8  15
TORSDOF 5
ENDMDL
MODEL 7
REMARK VINA RESULT:      -7.2      1.963      2.529
REMARK  Name = 
REMARK  5 active torsions:
REMARK  status: ('A' for Active; 'I' for Inactive)
REMARK    1  A    between atoms: C_3  and  C_4
REMARK    2  A    between atoms: N_11  and  C_12
REMARK    3  A    between atoms: C_12  and  C_13
REMARK    4  A    between atoms: C_13  and  C_14
REMARK    5  A    between atoms: C_14  and  C_15
REMARK                            x       y       z     vdW  Elec       q    Type
REMARK                         _______ _______ _______ _____ _____    ______ ____
ROOT
ATOM      1  N   UNL     1       4.986   5.467  19.291  0.00  0.00    +0.000 NA
ATOM      2  C   UNL     1       5.478   5.328  18.092  0.00  0.00    +0.000 A 
ATOM      3  C   UNL     1       6.937   5.699  17.787  0.00  0.00    +0.000 A 
ATOM      4  C   UNL     1       7.339   5.525  16.511  0.00  0.00    +0.000 A 
ATOM      5  C   UNL     1       6.457   5.025  15.477  0.00  0.00    +0.000 A 
ATOM      6 CL   UNL     1       7.070   4.850  13.879  0.00  0.00    +0.000 Cl
ATOM      7  C   UNL     1       5.192   4.708  15.777  0.00  0.00    +0.000 A 
ATOM      8  N   UNL     1       4.664   4.829  17.059  0.00  0.00    +0.000 N 
ATOM      9  H   UNL     1       5.713   5.838  19.931  0.00  0.00    +0.000 HD
ENDROOT
BRANCH   3  10
ATOM     10  C   UNL     1       7.846   6.214  18.856  0.00  0.00    +0.000 C 
ATOM     11  N   UNL     1       8.082   5.447  19.956  0.00  0.00    +0.000 N 
ATOM     12  O   UNL     1       8.388   7.313  18.764  0.00  0.00    +0.000 OA
ATOM     13  H   UNL     1       7.703   4.532  20.139  0.00  0.00    +0.000 HD
ATOM     14  H   UNL     1       8.707   5.839  20.651  0.00  0.00    +0.000 HD
ENDBRANCH   3  10
BRANCH   8  15
ATOM     15  C   UNL     1       3.251   4.490  17.323  0.00  0.00    +0.000 C 
BRANCH  15  16
ATOM     16  C   UNL     1       2.936   3.077  16.828  0.00  0.00    +0.000 C 
BRANCH  16  17
ATOM     17  C   UNL     1       3.195   2.007  17.894  0.00  0.00    +0.000 C 
BRANCH  17  18
ATOM     18  C   UNL     1       2.570   2.406  19.212  0.00  0.00    +0.000 A 
ATOM     19  C   UNL     1       3.333   2.411  20.389  0.00  0.00    +0.000 A 
ATOM     20  C   UNL     1       2.735   2.692  21.620  0.00  0.00    +0.000 A 
ATOM     21  C   UNL     1       1.371   2.974  21.686  0.00  0.00    +0.000 A 
ATOM     22  C   UNL     1       0.608   2.989  20.520  0.00  0.00    +0.000 A 
ATOM     23  C   UNL     1       1.203   2.706  19.289  0.00  0.00    +0.000 A 
ENDBRANCH  17  18
ENDBRANCH  16  17
ENDBRANCH  15  16
ENDBRANCH   8  15
TORSDOF 5
ENDMDL
MODEL 8
REMARK VINA RESULT:      -7.1      1.446      2.136
REMARK  Name = 
REMARK  5 active torsions:
REMARK  status: ('A' for Active; 'I' for Inactive)
REMARK    1  A    between atoms: C_3  and  C_4
REMARK    2  A    between atoms: N_11  and  C_12
REMARK    3  A    between atoms: C_12  and  C_13
REMARK    4  A    between atoms: C_13  and  C_14
REMARK    5  A    between atoms: C_14  and  C_15
REMARK                            x       y       z     vdW  Elec       q    Type
REMARK                         _______ _______ _______ _____ _____    ______ ____
ROOT
ATOM      1  N   UNL     1       5.473   5.095  18.956  0.00  0.00    +0.000 NA
ATOM      2  C   UNL     1       5.792   4.940  17.701  0.00  0.00    +0.000 A 
ATOM      3  C   UNL     1       6.867   5.820  17.044  0.00  0.00    +0.000 A 
ATOM      4  C   UNL     1       7.111   5.581  15.738  0.00  0.00    +0.000 A 
ATOM      5  C   UNL     1       6.406   4.565  14.986  0.00  0.00    +0.000 A 
ATOM      6 CL   UNL     1       6.789   4.351  13.323  0.00  0.00    +0.000 Cl
ATOM      7  C   UNL     1       5.478   3.814  15.590  0.00  0.00    +0.000 A 
ATOM      8  N   UNL     1       5.146   3.954  16.935  0.00  0.00    +0.000 N 
ATOM      9  H   UNL     1       6.042   5.854  19.375  0.00  0.00    +0.000 HD
ENDROOT
BRANCH   3  10
ATOM     10  C   UNL     1       7.595   6.868  17.822  0.00  0.00    +0.000 C 
ATOM     11  N   UNL     1       7.648   8.140  17.339  0.00  0.00    +0.000 N 
ATOM     12  O   UNL     1       8.145   6.609  18.891  0.00  0.00    +0.000 OA
ATOM     13  H   UNL     1       7.232   8.472  16.483  0.00  0.00    +0.000 HD
ATOM     14  H   UNL     1       8.151   8.814  17.904  0.00  0.00    +0.000 HD
ENDBRANCH   3  10
BRANCH   8  15
ATOM     15  C   UNL     1       4.093   3.114  17.539  0.00  0.00    +0.000 C 
BRANCH  15  16
ATOM     16  C   UNL     1       2.751   3.352  16.845  0.00  0.00    +0.000 C 
BRANCH  16  17
ATOM     17  C   UNL     1       1.830   4.279  17.645  0.00  0.00    +0.000 C 
BRANCH  17  18
ATOM     18  C   UNL     1       1.850   3.912  19.112  0.00  0.00    +0.000 A 
ATOM     19  C   UNL     1       1.361   2.671  19.543  0.00  0.00    +0.000 A 
ATOM     20  C   UNL     1       1.296   2.368  20.904  0.00  0.00    +0.000 A 
ATOM     21  C   UNL     1       1.721   3.301  21.849  0.00  0.00    +0.000 A 
ATOM     22  C   UNL     1       2.225   4.532  21.431  0.00  0.00    +0.000 A 
ATOM     23  C   UNL     1       2.288   4.837  20.070  0.00  0.00    +0.000 A 
ENDBRANCH  17  18
ENDBRANCH  16  17
ENDBRANCH  15  16
ENDBRANCH   8  15
TORSDOF 5
ENDMDL
MODEL 9
REMARK VINA RESULT:      -7.1      2.916      6.268
REMARK  Name = 
REMARK  5 active torsions:
REMARK  status: ('A' for Active; 'I' for Inactive)
REMARK    1  A    between atoms: C_3  and  C_4
REMARK    2  A    between atoms: N_11  and  C_12
REMARK    3  A    between atoms: C_12  and  C_13
REMARK    4  A    between atoms: C_13  and  C_14
REMARK    5  A    between atoms: C_14  and  C_15
REMARK                            x       y       z     vdW  Elec       q    Type
REMARK                         _______ _______ _______ _____ _____    ______ ____
ROOT
ATOM      1  N   UNL     1       5.166   3.046  19.050  0.00  0.00    +0.000 NA
ATOM      2  C   UNL     1       4.468   4.116  18.790  0.00  0.00    +0.000 A 
ATOM      3  C   UNL     1       2.940   4.120  18.948  0.00  0.00    +0.000 A 
ATOM      4  C   UNL     1       2.315   5.277  18.642  0.00  0.00    +0.000 A 
ATOM      5  C   UNL     1       3.028   6.451  18.184  0.00  0.00    +0.000 A 
ATOM      6 CL   UNL     1       2.133   7.871  17.812  0.00  0.00    +0.000 Cl
ATOM      7  C   UNL     1       4.361   6.414  18.060  0.00  0.00    +0.000 A 
ATOM      8  N   UNL     1       5.119   5.286  18.359  0.00  0.00    +0.000 N 
ATOM      9  H   UNL     1       4.540   2.280  19.359  0.00  0.00    +0.000 HD
ENDROOT
BRANCH   3  10
ATOM     10  C   UNL     1       2.205   2.908  19.422  0.00  0.00    +0.000 C 
ATOM     11  N   UNL     1       2.240   1.773  18.671  0.00  0.00    +0.000 N 
ATOM     12  O   UNL     1       1.573   2.911  20.476  0.00  0.00    +0.000 OA
ATOM     13  H   UNL     1       2.727   1.649  17.798  0.00  0.00    +0.000 HD
ATOM     14  H   UNL     1       1.728   0.978  19.036  0.00  0.00    +0.000 HD
ENDBRANCH   3  10
BRANCH   8  15
ATOM     15  C   UNL     1       6.584   5.297  18.176  0.00  0.00    +0.000 C 
BRANCH  15  16
ATOM     16  C   UNL     1       6.941   5.290  16.688  0.00  0.00    +0.000 C 
BRANCH  16  17
ATOM     17  C   UNL     1       6.179   4.216  15.904  0.00  0.00    +0.000 C 
BRANCH  17  18
ATOM     18  C   UNL     1       6.505   4.300  14.430  0.00  0.00    +0.000 A 
ATOM     19  C   UNL     1       5.908   3.419  13.518  0.00  0.00    +0.000 A 
ATOM     20  C   UNL     1       6.276   3.437  12.170  0.00  0.00    +0.000 A 
ATOM     21  C   UNL     1       7.241   4.337  11.721  0.00  0.00    +0.000 A 
ATOM     22  C   UNL     1       7.828   5.229  12.617  0.00  0.00    +0.000 A 
ATOM     23  C   UNL     1       7.463   5.211  13.965  0.00  0.00    +0.000 A 
ENDBRANCH  17  18
ENDBRANCH  16  17
ENDBRANCH  15  16
ENDBRANCH   8  15
TORSDOF 5
ENDMDL
