MODEL 1
REMARK VINA RESULT:      -7.3      0.000      0.000
REMARK  Name = 
REMARK  4 active torsions:
REMARK  status: ('A' for Active; 'I' for Inactive)
REMARK    1  A    between atoms: C_1  and  C_2
REMARK    2  A    between atoms: C_2  and  N_3
REMARK    3  A    between atoms: C_2  and  C_15
REMARK    4  A    between atoms: C_4  and  C_6
REMARK                            x       y       z     vdW  Elec       q    Type
REMARK                         _______ _______ _______ _____ _____    ______ ____
ROOT
ATOM      1  N   UNL     1       3.711   5.575  17.737  0.00  0.00    +0.000 N 
ATOM      2  C   UNL     1       4.205   6.797  17.298  0.00  0.00    +0.000 C 
ATOM      3  O   UNL     1       3.678   7.873  17.557  0.00  0.00    +0.000 OA
ATOM      4  H   UNL     1       4.096   4.739  17.317  0.00  0.00    +0.000 HD
ENDROOT
BRANCH   2   5
ATOM      5  C   UNL     1       5.509   6.677  16.490  0.00  0.00    +0.000 C 
ATOM      6  C   UNL     1       5.258   6.056  15.087  0.00  0.00    +0.000 C 
ATOM      7  C   UNL     1       5.414   4.525  15.020  0.00  0.00    +0.000 C 
ATOM      8  C   UNL     1       6.797   4.070  15.503  0.00  0.00    +0.000 C 
ATOM      9  C   UNL     1       7.122   4.707  16.809  0.00  0.00    +0.000 A 
ATOM     10  N   UNL     1       8.072   4.164  17.647  0.00  0.00    +0.000 NA
ATOM     11  C   UNL     1       8.195   4.929  18.709  0.00  0.00    +0.000 A 
ATOM     12  S   UNL     1       7.213   6.338  18.745  0.00  0.00    +0.000 S 
ATOM     13  C   UNL     1       6.539   5.883  17.243  0.00  0.00    +0.000 A 
ENDBRANCH   2   5
BRANCH   1  15
ATOM     14  C   UNL     1       2.881   5.446  20.041  0.00  0.00    +0.000 C 
ATOM     15  C   UNL     1       2.502   5.406  18.559  0.00  0.00    +0.000 C 
BRANCH  15  16
ATOM     16  C   UNL     1       1.674   4.149  18.144  0.00  0.00    +0.000 C 
ATOM     17  C   UNL     1       2.365   3.205  17.135  0.00  0.00    +0.000 C 
ATOM     18  C   UNL     1       3.466   2.323  17.726  0.00  0.00    +0.000 C 
ATOM     19  C   UNL     1       3.041   1.603  19.004  0.00  0.00    +0.000 C 
ATOM     20  C   UNL     1       2.373   2.539  20.003  0.00  0.00    +0.000 C 
ATOM     21  C   UNL     1       1.225   3.311  19.360  0.00  0.00    +0.000 C 
ENDBRANCH  15  16
ENDBRANCH   1  15
TORSDOF 3
ENDMDL
MODEL 2
REMARK VINA RESULT:      -7.2      1.098      1.854
REMARK  Name = 
REMARK  4 active torsions:
REMARK  status: ('A' for Active; 'I' for Inactive)
REMARK    1  A    between atoms: C_1  and  C_2
REMARK    2  A    between atoms: C_2  and  N_3
REMARK    3  A    between atoms: C_2  and  C_15
REMARK    4  A    between atoms: C_4  and  C_6
REMARK                            x       y       z     vdW  Elec       q    Type
REMARK                         _______ _______ _______ _____ _____    ______ ____
ROOT
ATOM      1  N   UNL     1       3.680   4.857  17.615  0.00  0.00    +0.000 N 
ATOM      2  C   UNL     1       3.890   6.225  17.503  0.00  0.00    +0.000 C 
ATOM      3  O   UNL     1       3.119   7.068  17.945  0.00  0.00    +0.000 OA
ATOM      4  H   UNL     1       4.264   4.248  17.056  0.00  0.00    +0.000 HD
ENDROOT
BRANCH   2   5
ATOM      5  C   UNL     1       5.214   6.587  16.807  0.00  0.00    +0.000 C 
ATOM      6  C   UNL     1       5.105   6.448  15.262  0.00  0.00    +0.000 C 
ATOM      7  C   UNL     1       5.522   5.073  14.705  0.00  0.00    +0.000 C 
ATOM      8  C   UNL     1       6.952   4.698  15.120  0.00  0.00    +0.000 C 
ATOM      9  C   UNL     1       7.132   4.896  16.585  0.00  0.00    +0.000 A 
ATOM     10  N   UNL     1       8.141   4.255  17.268  0.00  0.00    +0.000 NA
ATOM     11  C   UNL     1       8.107   4.623  18.529  0.00  0.00    +0.000 A 
ATOM     12  S   UNL     1       6.899   5.768  18.951  0.00  0.00    +0.000 S 
ATOM     13  C   UNL     1       6.347   5.752  17.335  0.00  0.00    +0.000 A 
ENDBRANCH   2   5
BRANCH   1  15
ATOM     14  C   UNL     1       1.275   4.428  17.392  0.00  0.00    +0.000 C 
ATOM     15  C   UNL     1       2.515   4.239  18.270  0.00  0.00    +0.000 C 
BRANCH  15  16
ATOM     16  C   UNL     1       2.337   4.723  19.743  0.00  0.00    +0.000 C 
ATOM     17  C   UNL     1       0.972   4.394  20.388  0.00  0.00    +0.000 C 
ATOM     18  C   UNL     1       0.794   2.935  20.813  0.00  0.00    +0.000 C 
ATOM     19  C   UNL     1       1.969   2.396  21.626  0.00  0.00    +0.000 C 
ATOM     20  C   UNL     1       3.314   2.710  20.980  0.00  0.00    +0.000 C 
ATOM     21  C   UNL     1       3.450   4.198  20.674  0.00  0.00    +0.000 C 
ENDBRANCH  15  16
ENDBRANCH   1  15
TORSDOF 3
ENDMDL
MODEL 3
REMARK VINA RESULT:      -7.2      2.093      3.442
REMARK  Name = 
REMARK  4 active torsions:
REMARK  status: ('A' for Active; 'I' for Inactive)
REMARK    1  A    between atoms: C_1  and  C_2
REMARK    2  A    between atoms: C_2  and  N_3
REMARK    3  A    between atoms: C_2  and  C_15
REMARK    4  A    between atoms: C_4  and  C_6
REMARK                            x       y       z     vdW  Elec       q    Type
REMARK                         _______ _______ _______ _____ _____    ______ ____
ROOT
ATOM      1  N   UNL     1       5.298   3.056  19.194  0.00  0.00    +0.000 N 
ATOM      2  C   UNL     1       5.685   4.388  19.123  0.00  0.00    +0.000 C 
ATOM      3  O   UNL     1       5.096   5.297  19.696  0.00  0.00    +0.000 OA
ATOM      4  H   UNL     1       5.722   2.411  18.539  0.00  0.00    +0.000 HD
ENDROOT
BRANCH   2   5
ATOM      5  C   UNL     1       6.958   4.613  18.289  0.00  0.00    +0.000 C 
ATOM      6  C   UNL     1       7.767   5.839  18.797  0.00  0.00    +0.000 C 
ATOM      7  C   UNL     1       7.425   7.172  18.105  0.00  0.00    +0.000 C 
ATOM      8  C   UNL     1       7.596   7.085  16.582  0.00  0.00    +0.000 C 
ATOM      9  C   UNL     1       6.908   5.875  16.055  0.00  0.00    +0.000 A 
ATOM     10  N   UNL     1       6.548   5.785  14.728  0.00  0.00    +0.000 NA
ATOM     11  C   UNL     1       5.993   4.614  14.512  0.00  0.00    +0.000 A 
ATOM     12  S   UNL     1       5.903   3.558  15.864  0.00  0.00    +0.000 S 
ATOM     13  C   UNL     1       6.629   4.765  16.830  0.00  0.00    +0.000 A 
ENDBRANCH   2   5
BRANCH   1  15
ATOM     14  C   UNL     1       4.621   1.616  21.060  0.00  0.00    +0.000 C 
ATOM     15  C   UNL     1       4.140   2.559  19.955  0.00  0.00    +0.000 C 
BRANCH  15  16
ATOM     16  C   UNL     1       3.038   1.952  19.029  0.00  0.00    +0.000 C 
ATOM     17  C   UNL     1       1.593   2.052  19.568  0.00  0.00    +0.000 C 
ATOM     18  C   UNL     1       0.960   3.440  19.462  0.00  0.00    +0.000 C 
ATOM     19  C   UNL     1       1.114   4.070  18.080  0.00  0.00    +0.000 C 
ATOM     20  C   UNL     1       2.543   3.984  17.559  0.00  0.00    +0.000 C 
ATOM     21  C   UNL     1       3.067   2.552  17.608  0.00  0.00    +0.000 C 
ENDBRANCH  15  16
ENDBRANCH   1  15
TORSDOF 3
ENDMDL
MODEL 4
REMARK VINA RESULT:      -7.1      0.800      1.521
REMARK  Name = 
REMARK  4 active torsions:
REMARK  status: ('A' for Active; 'I' for Inactive)
REMARK    1  A    between atoms: C_1  and  C_2
REMARK    2  A    between atoms: C_2  and  N_3
REMARK    3  A    between atoms: C_2  and  C_15
REMARK    4  A    between atoms: C_4  and  C_6
REMARK                            x       y       z     vdW  Elec       q    Type
REMARK                         _______ _______ _______ _____ _____    ______ ____
ROOT
ATOM      1  N   UNL     1       3.962   5.626  18.161  0.00  0.00    +0.000 N 
ATOM      2  C   UNL     1       4.191   6.755  17.386  0.00  0.00    +0.000 C 
ATOM      3  O   UNL     1       3.453   7.733  17.378  0.00  0.00    +0.000 OA
ATOM      4  H   UNL     1       4.511   4.800  17.957  0.00  0.00    +0.000 HD
ENDROOT
BRANCH   2   5
ATOM      5  C   UNL     1       5.490   6.682  16.565  0.00  0.00    +0.000 C 
ATOM      6  C   UNL     1       5.238   6.104  15.144  0.00  0.00    +0.000 C 
ATOM      7  C   UNL     1       5.418   4.578  15.025  0.00  0.00    +0.000 C 
ATOM      8  C   UNL     1       6.812   4.129  15.484  0.00  0.00    +0.000 C 
ATOM      9  C   UNL     1       7.136   4.728  16.808  0.00  0.00    +0.000 A 
ATOM     10  N   UNL     1       8.100   4.173  17.620  0.00  0.00    +0.000 NA
ATOM     11  C   UNL     1       8.219   4.904  18.706  0.00  0.00    +0.000 A 
ATOM     12  S   UNL     1       7.216   6.295  18.796  0.00  0.00    +0.000 S 
ATOM     13  C   UNL     1       6.539   5.880  17.284  0.00  0.00    +0.000 A 
ENDBRANCH   2   5
BRANCH   1  15
ATOM     14  C   UNL     1       2.623   6.717  19.902  0.00  0.00    +0.000 C 
ATOM     15  C   UNL     1       2.814   5.449  19.067  0.00  0.00    +0.000 C 
BRANCH  15  16
ATOM     16  C   UNL     1       2.919   4.138  19.908  0.00  0.00    +0.000 C 
ATOM     17  C   UNL     1       1.631   3.724  20.653  0.00  0.00    +0.000 C 
ATOM     18  C   UNL     1       0.545   3.107  19.770  0.00  0.00    +0.000 C 
ATOM     19  C   UNL     1       1.068   2.005  18.851  0.00  0.00    +0.000 C 
ATOM     20  C   UNL     1       2.331   2.421  18.107  0.00  0.00    +0.000 C 
ATOM     21  C   UNL     1       3.399   2.936  19.067  0.00  0.00    +0.000 C 
ENDBRANCH  15  16
ENDBRANCH   1  15
TORSDOF 3
ENDMDL
MODEL 5
REMARK VINA RESULT:      -7.0      0.771      1.362
REMARK  Name = 
REMARK  4 active torsions:
REMARK  status: ('A' for Active; 'I' for Inactive)
REMARK    1  A    between atoms: C_1  and  C_2
REMARK    2  A    between atoms: C_2  and  N_3
REMARK    3  A    between atoms: C_2  and  C_15
REMARK    4  A    between atoms: C_4  and  C_6
REMARK                            x       y       z     vdW  Elec       q    Type
REMARK                         _______ _______ _______ _____ _____    ______ ____
ROOT
ATOM      1  N   UNL     1       3.842   5.302  17.809  0.00  0.00    +0.000 N 
ATOM      2  C   UNL     1       4.112   6.590  17.367  0.00  0.00    +0.000 C 
ATOM      3  O   UNL     1       3.398   7.555  17.612  0.00  0.00    +0.000 OA
ATOM      4  H   UNL     1       4.376   4.546  17.400  0.00  0.00    +0.000 HD
ENDROOT
BRANCH   2   5
ATOM      5  C   UNL     1       5.426   6.703  16.575  0.00  0.00    +0.000 C 
ATOM      6  C   UNL     1       5.223   6.343  15.076  0.00  0.00    +0.000 C 
ATOM      7  C   UNL     1       5.474   4.864  14.725  0.00  0.00    +0.000 C 
ATOM      8  C   UNL     1       6.881   4.410  15.139  0.00  0.00    +0.000 C 
ATOM      9  C   UNL     1       7.157   4.808  16.548  0.00  0.00    +0.000 A 
ATOM     10  N   UNL     1       8.134   4.176  17.285  0.00  0.00    +0.000 NA
ATOM     11  C   UNL     1       8.202   4.733  18.473  0.00  0.00    +0.000 A 
ATOM     12  S   UNL     1       7.134   6.048  18.756  0.00  0.00    +0.000 S 
ATOM     13  C   UNL     1       6.499   5.845  17.184  0.00  0.00    +0.000 A 
ENDBRANCH   2   5
BRANCH   1  15
ATOM     14  C   UNL     1       2.745   5.619  19.981  0.00  0.00    +0.000 C 
ATOM     15  C   UNL     1       2.672   4.922  18.620  0.00  0.00    +0.000 C 
BRANCH  15  16
ATOM     16  C   UNL     1       2.486   3.374  18.703  0.00  0.00    +0.000 C 
ATOM     17  C   UNL     1       3.387   2.653  19.732  0.00  0.00    +0.000 C 
ATOM     18  C   UNL     1       2.955   2.814  21.191  0.00  0.00    +0.000 C 
ATOM     19  C   UNL     1       1.471   2.534  21.415  0.00  0.00    +0.000 C 
ATOM     20  C   UNL     1       0.585   3.258  20.408  0.00  0.00    +0.000 C 
ATOM     21  C   UNL     1       1.022   2.970  18.975  0.00  0.00    +0.000 C 
ENDBRANCH  15  16
ENDBRANCH   1  15
TORSDOF 3
ENDMDL
MODEL 6
REMARK VINA RESULT:      -7.0      2.245      5.521
REMARK  Name = 
REMARK  4 active torsions:
REMARK  status: ('A' for Active; 'I' for Inactive)
REMARK    1  A    between atoms: C_1  and  C_2
REMARK    2  A    between atoms: C_2  and  N_3
REMARK    3  A    between atoms: C_2  and  C_15
REMARK    4  A    between atoms: C_4  and  C_6
REMARK                            x       y       z     vdW  Elec       q    Type
REMARK                         _______ _______ _______ _____ _____    ______ ____
ROOT
ATOM      1  N   UNL     1       6.218   3.941  18.130  0.00  0.00    +0.000 N 
ATOM      2  C   UNL     1       5.043   4.134  18.846  0.00  0.00    +0.000 C 
ATOM      3  O   UNL     1       4.874   5.054  19.637  0.00  0.00    +0.000 OA
ATOM      4  H   UNL     1       6.335   3.056  17.655  0.00  0.00    +0.000 HD
ENDROOT
BRANCH   2   5
ATOM      5  C   UNL     1       3.949   3.103  18.516  0.00  0.00    +0.000 C 
ATOM      6  C   UNL     1       3.190   3.472  17.210  0.00  0.00    +0.000 C 
ATOM      7  C   UNL     1       1.923   4.323  17.417  0.00  0.00    +0.000 C 
ATOM      8  C   UNL     1       0.930   3.647  18.372  0.00  0.00    +0.000 C 
ATOM      9  C   UNL     1       1.628   3.198  19.608  0.00  0.00    +0.000 A 
ATOM     10  N   UNL     1       0.930   2.958  20.770  0.00  0.00    +0.000 NA
ATOM     11  C   UNL     1       1.765   2.542  21.695  0.00  0.00    +0.000 A 
ATOM     12  S   UNL     1       3.408   2.386  21.217  0.00  0.00    +0.000 S 
ATOM     13  C   UNL     1       2.988   2.951  19.661  0.00  0.00    +0.000 A 
ENDBRANCH   2   5
BRANCH   1  15
ATOM     14  C   UNL     1       7.361   5.598  19.532  0.00  0.00    +0.000 C 
ATOM     15  C   UNL     1       7.408   4.804  18.225  0.00  0.00    +0.000 C 
BRANCH  15  16
ATOM     16  C   UNL     1       7.607   5.681  16.949  0.00  0.00    +0.000 C 
ATOM     17  C   UNL     1       7.066   5.072  15.636  0.00  0.00    +0.000 C 
ATOM     18  C   UNL     1       5.546   5.130  15.476  0.00  0.00    +0.000 C 
ATOM     19  C   UNL     1       4.961   6.511  15.764  0.00  0.00    +0.000 C 
ATOM     20  C   UNL     1       5.485   7.103  17.067  0.00  0.00    +0.000 C 
ATOM     21  C   UNL     1       7.011   7.096  17.108  0.00  0.00    +0.000 C 
ENDBRANCH  15  16
ENDBRANCH   1  15
TORSDOF 3
ENDMDL
MODEL 7
REMARK VINA RESULT:      -6.7      4.103      6.560
REMARK  Name = 
REMARK  4 active torsions:
REMARK  status: ('A' for Active; 'I' for Inactive)
REMARK    1  A    between atoms: C_1  and  C_2
REMARK    2  A    between atoms: C_2  and  N_3
REMARK    3  A    between atoms: C_2  and  C_15
REMARK    4  A    between atoms: C_4  and  C_6
REMARK                            x       y       z     vdW  Elec       q    Type
REMARK                         _______ _______ _______ _____ _____    ______ ____
ROOT
ATOM      1  N   UNL     1       2.956   6.907  19.760  0.00  0.00    +0.000 N 
ATOM      2  C   UNL     1       1.829   7.277  20.483  0.00  0.00    +0.000 C 
ATOM      3  O   UNL     1       0.995   6.479  20.894  0.00  0.00    +0.000 OA
ATOM      4  H   UNL     1       3.478   7.642  19.301  0.00  0.00    +0.000 HD
ENDROOT
BRANCH   2   5
ATOM      5  C   UNL     1       1.749   8.788  20.762  0.00  0.00    +0.000 C 
ATOM      6  C   UNL     1       1.445   9.078  22.259  0.00  0.00    +0.000 C 
ATOM      7  C   UNL     1      -0.050   9.228  22.599  0.00  0.00    +0.000 C 
ATOM      8  C   UNL     1      -0.721  10.320  21.755  0.00  0.00    +0.000 C 
ATOM      9  C   UNL     1      -0.390  10.134  20.315  0.00  0.00    +0.000 A 
ATOM     10  N   UNL     1      -1.175  10.689  19.329  0.00  0.00    +0.000 NA
ATOM     11  C   UNL     1      -0.652  10.411  18.156  0.00  0.00    +0.000 A 
ATOM     12  S   UNL     1       0.808   9.507  18.173  0.00  0.00    +0.000 S 
ATOM     13  C   UNL     1       0.727   9.446  19.878  0.00  0.00    +0.000 A 
ENDBRANCH   2   5
BRANCH   1  15
ATOM     14  C   UNL     1       4.800   5.299  19.582  0.00  0.00    +0.000 C 
ATOM     15  C   UNL     1       3.298   5.523  19.390  0.00  0.00    +0.000 C 
BRANCH  15  16
ATOM     16  C   UNL     1       2.769   5.142  17.971  0.00  0.00    +0.000 C 
ATOM     17  C   UNL     1       3.732   4.290  17.113  0.00  0.00    +0.000 C 
ATOM     18  C   UNL     1       3.818   2.815  17.511  0.00  0.00    +0.000 C 
ATOM     19  C   UNL     1       2.452   2.157  17.685  0.00  0.00    +0.000 C 
ATOM     20  C   UNL     1       1.510   2.992  18.543  0.00  0.00    +0.000 C 
ATOM     21  C   UNL     1       1.405   4.423  18.024  0.00  0.00    +0.000 C 
ENDBRANCH  15  16
ENDBRANCH   1  15
TORSDOF 3
ENDMDL
MODEL 8
REMARK VINA RESULT:      -6.7      2.113      2.888
REMARK  Name = 
REMARK  4 active torsions:
REMARK  status: ('A' for Active; 'I' for Inactive)
REMARK    1  A    between atoms: C_1  and  C_2
REMARK    2  A    between atoms: C_2  and  N_3
REMARK    3  A    between atoms: C_2  and  C_15
REMARK    4  A    between atoms: C_4  and  C_6
REMARK                            x       y       z     vdW  Elec       q    Type
REMARK                         _______ _______ _______ _____ _____    ______ ____
ROOT
ATOM      1  N   UNL     1       3.610   5.261  19.270  0.00  0.00    +0.000 N 
ATOM      2  C   UNL     1       4.032   4.665  18.089  0.00  0.00    +0.000 C 
ATOM      3  O   UNL     1       3.282   4.401  17.157  0.00  0.00    +0.000 OA
ATOM      4  H   UNL     1       4.256   5.261  20.050  0.00  0.00    +0.000 HD
ENDROOT
BRANCH   2   5
ATOM      5  C   UNL     1       5.548   4.405  18.041  0.00  0.00    +0.000 C 
ATOM      6  C   UNL     1       6.310   5.272  19.082  0.00  0.00    +0.000 C 
ATOM      7  C   UNL     1       6.817   6.626  18.550  0.00  0.00    +0.000 C 
ATOM      8  C   UNL     1       7.717   6.455  17.319  0.00  0.00    +0.000 C 
ATOM      9  C   UNL     1       7.065   5.560  16.323  0.00  0.00    +0.000 A 
ATOM     10  N   UNL     1       7.440   5.580  14.998  0.00  0.00    +0.000 NA
ATOM     11  C   UNL     1       6.744   4.679  14.342  0.00  0.00    +0.000 A 
ATOM     12  S   UNL     1       5.639   3.750  15.272  0.00  0.00    +0.000 S 
ATOM     13  C   UNL     1       6.092   4.637  16.659  0.00  0.00    +0.000 A 
ENDBRANCH   2   5
BRANCH   1  15
ATOM     14  C   UNL     1       2.186   7.112  20.020  0.00  0.00    +0.000 C 
ATOM     15  C   UNL     1       2.221   5.652  19.563  0.00  0.00    +0.000 C 
BRANCH  15  16
ATOM     16  C   UNL     1       1.519   4.657  20.542  0.00  0.00    +0.000 C 
ATOM     17  C   UNL     1       0.468   3.725  19.897  0.00  0.00    +0.000 C 
ATOM     18  C   UNL     1       1.047   2.565  19.085  0.00  0.00    +0.000 C 
ATOM     19  C   UNL     1       2.137   1.794  19.826  0.00  0.00    +0.000 C 
ATOM     20  C   UNL     1       3.179   2.716  20.448  0.00  0.00    +0.000 C 
ATOM     21  C   UNL     1       2.528   3.786  21.319  0.00  0.00    +0.000 C 
ENDBRANCH  15  16
ENDBRANCH   1  15
TORSDOF 3
ENDMDL
MODEL 9
REMARK VINA RESULT:      -6.6      2.097      3.549
REMARK  Name = 
REMARK  4 active torsions:
REMARK  status: ('A' for Active; 'I' for Inactive)
REMARK    1  A    between atoms: C_1  and  C_2
REMARK    2  A    between atoms: C_2  and  N_3
REMARK    3  A    between atoms: C_2  and  C_15
REMARK    4  A    between atoms: C_4  and  C_6
REMARK                            x       y       z     vdW  Elec       q    Type
REMARK                         _______ _______ _______ _____ _____    ______ ____
ROOT
ATOM      1  N   UNL     1       4.847   3.423  18.225  0.00  0.00    +0.000 N 
ATOM      2  C   UNL     1       5.822   4.106  18.939  0.00  0.00    +0.000 C 
ATOM      3  O   UNL     1       5.737   4.354  20.136  0.00  0.00    +0.000 OA
ATOM      4  H   UNL     1       4.913   3.436  17.215  0.00  0.00    +0.000 HD
ENDROOT
BRANCH   2   5
ATOM      5  C   UNL     1       7.049   4.485  18.092  0.00  0.00    +0.000 C 
ATOM      6  C   UNL     1       7.777   5.734  18.666  0.00  0.00    +0.000 C 
ATOM      7  C   UNL     1       7.315   7.080  18.078  0.00  0.00    +0.000 C 
ATOM      8  C   UNL     1       7.447   7.111  16.549  0.00  0.00    +0.000 C 
ATOM      9  C   UNL     1       6.837   5.890  15.955  0.00  0.00    +0.000 A 
ATOM     10  N   UNL     1       6.445   5.863  14.634  0.00  0.00    +0.000 NA
ATOM     11  C   UNL     1       5.975   4.669  14.350  0.00  0.00    +0.000 A 
ATOM     12  S   UNL     1       6.006   3.520  15.626  0.00  0.00    +0.000 S 
ATOM     13  C   UNL     1       6.666   4.711  16.656  0.00  0.00    +0.000 A 
ENDBRANCH   2   5
BRANCH   1  15
ATOM     14  C   UNL     1       3.480   1.409  18.529  0.00  0.00    +0.000 C 
ATOM     15  C   UNL     1       3.591   2.912  18.798  0.00  0.00    +0.000 C 
BRANCH  15  16
ATOM     16  C   UNL     1       2.348   3.738  18.338  0.00  0.00    +0.000 C 
ATOM     17  C   UNL     1       1.051   3.485  19.138  0.00  0.00    +0.000 C 
ATOM     18  C   UNL     1       1.010   4.136  20.522  0.00  0.00    +0.000 C 
ATOM     19  C   UNL     1       1.410   5.610  20.507  0.00  0.00    +0.000 C 
ATOM     20  C   UNL     1       2.698   5.854  19.730  0.00  0.00    +0.000 C 
ATOM     21  C   UNL     1       2.623   5.257  18.328  0.00  0.00    +0.000 C 
ENDBRANCH  15  16
ENDBRANCH   1  15
TORSDOF 3
ENDMDL
