MODEL 1
REMARK VINA RESULT:      -9.2      0.000      0.000
REMARK  Name = 
REMARK  7 active torsions:
REMARK  status: ('A' for Active; 'I' for Inactive)
REMARK    1  A    between atoms: C_1  and  O_2
REMARK    2  A    between atoms: O_2  and  C_3
REMARK    3  A    between atoms: C_6  and  N_7
REMARK    4  A    between atoms: N_7  and  N_8
REMARK    5  A    between atoms: N_8  and  C_9
REMARK    6  A    between atoms: N_16  and  C_17
REMARK    7  A    between atoms: C_21  and  C_22
REMARK                            x       y       z     vdW  Elec       q    Type
REMARK                         _______ _______ _______ _____ _____    ______ ____
ROOT
ATOM      1  C   UNL     1       1.747   5.763  20.733  0.00  0.00    +0.000 C 
ATOM      2  C   UNL     1       2.423   4.704  20.238  0.00  0.00    +0.000 C 
ATOM      3  C   UNL     1       1.914   3.346  20.502  0.00  0.00    +0.000 C 
ATOM      4  O   UNL     1       1.020   3.088  21.316  0.00  0.00    +0.000 OA
ATOM      5  N   UNL     1       2.483   2.367  19.743  0.00  0.00    +0.000 N 
ATOM      6  C   UNL     1       3.485   2.497  18.809  0.00  0.00    +0.000 C 
ATOM      7  O   UNL     1       3.787   1.509  18.138  0.00  0.00    +0.000 OA
ATOM      8  N   UNL     1       4.066   3.770  18.694  0.00  0.00    +0.000 N 
ATOM      9  C   UNL     1       3.603   4.892  19.384  0.00  0.00    +0.000 C 
ATOM     10  O   UNL     1       4.167   5.998  19.374  0.00  0.00    +0.000 OA
ATOM     11  H   UNL     1       2.100   1.438  19.841  0.00  0.00    +0.000 HD
ENDROOT
BRANCH   8  12
ATOM     12  C   UNL     1       5.113   3.960  17.744  0.00  0.00    +0.000 A 
ATOM     13  C   UNL     1       6.386   4.359  18.182  0.00  0.00    +0.000 A 
ATOM     14  C   UNL     1       7.360   4.756  17.269  0.00  0.00    +0.000 A 
ATOM     15  C   UNL     1       7.089   4.712  15.905  0.00  0.00    +0.000 A 
ATOM     16  C   UNL     1       5.851   4.245  15.445  0.00  0.00    +0.000 A 
ATOM     17  C   UNL     1       5.540   4.245  13.978  0.00  0.00    +0.000 C 
ATOM     18  C   UNL     1       4.868   3.860  16.369  0.00  0.00    +0.000 A 
ENDBRANCH   8  12
BRANCH   1  19
ATOM     19  N   UNL     1       1.852   7.146  20.553  0.00  0.00    +0.000 N 
ATOM     20  H   UNL     1       1.350   7.468  19.713  0.00  0.00    +0.000 HD
BRANCH  19  21
ATOM     21  N   UNL     1       1.717   8.034  21.618  0.00  0.00    +0.000 N 
ATOM     22  H   UNL     1       1.834   7.630  22.549  0.00  0.00    +0.000 HD
BRANCH  21  26
ATOM     23  C   UNL     1      -1.051  11.238  21.962  0.00  0.00    +0.000 A 
ATOM     24  C   UNL     1      -0.710  10.453  23.059  0.00  0.00    +0.000 A 
ATOM     25  C   UNL     1       0.184   9.392  22.915  0.00  0.00    +0.000 A 
ATOM     26  C   UNL     1       0.735   9.059  21.667  0.00  0.00    +0.000 A 
ATOM     27  C   UNL     1       0.355   9.827  20.561  0.00  0.00    +0.000 A 
ATOM     28  C   UNL     1      -0.538  10.910  20.707  0.00  0.00    +0.000 A 
BRANCH  23  30
ATOM     29  C   UNL     1      -1.390  13.249  23.172  0.00  0.00    +0.000 C 
ATOM     30  O   UNL     1      -1.882  12.285  22.250  0.00  0.00    +0.000 OA
ENDBRANCH  23  30
ENDBRANCH  21  26
ENDBRANCH  19  21
ENDBRANCH   1  19
TORSDOF 5
ENDMDL
MODEL 2
REMARK VINA RESULT:      -9.1      0.545      1.149
REMARK  Name = 
REMARK  7 active torsions:
REMARK  status: ('A' for Active; 'I' for Inactive)
REMARK    1  A    between atoms: C_1  and  O_2
REMARK    2  A    between atoms: O_2  and  C_3
REMARK    3  A    between atoms: C_6  and  N_7
REMARK    4  A    between atoms: N_7  and  N_8
REMARK    5  A    between atoms: N_8  and  C_9
REMARK    6  A    between atoms: N_16  and  C_17
REMARK    7  A    between atoms: C_21  and  C_22
REMARK                            x       y       z     vdW  Elec       q    Type
REMARK                         _______ _______ _______ _____ _____    ______ ____
ROOT
ATOM      1  C   UNL     1       1.714   5.717  20.766  0.00  0.00    +0.000 C 
ATOM      2  C   UNL     1       2.400   4.668  20.263  0.00  0.00    +0.000 C 
ATOM      3  C   UNL     1       1.900   3.303  20.509  0.00  0.00    +0.000 C 
ATOM      4  O   UNL     1       1.004   3.030  21.315  0.00  0.00    +0.000 OA
ATOM      5  N   UNL     1       2.480   2.337  19.742  0.00  0.00    +0.000 N 
ATOM      6  C   UNL     1       3.486   2.485  18.816  0.00  0.00    +0.000 C 
ATOM      7  O   UNL     1       3.799   1.506  18.136  0.00  0.00    +0.000 OA
ATOM      8  N   UNL     1       4.059   3.763  18.718  0.00  0.00    +0.000 N 
ATOM      9  C   UNL     1       3.583   4.874  19.418  0.00  0.00    +0.000 C 
ATOM     10  O   UNL     1       4.140   5.984  19.424  0.00  0.00    +0.000 OA
ATOM     11  H   UNL     1       2.103   1.404  19.828  0.00  0.00    +0.000 HD
ENDROOT
BRANCH   8  12
ATOM     12  C   UNL     1       5.110   3.971  17.777  0.00  0.00    +0.000 A 
ATOM     13  C   UNL     1       6.370   4.398  18.224  0.00  0.00    +0.000 A 
ATOM     14  C   UNL     1       7.343   4.812  17.317  0.00  0.00    +0.000 A 
ATOM     15  C   UNL     1       7.085   4.757  15.951  0.00  0.00    +0.000 A 
ATOM     16  C   UNL     1       5.861   4.263  15.482  0.00  0.00    +0.000 A 
ATOM     17  C   UNL     1       5.562   4.251  14.013  0.00  0.00    +0.000 C 
ATOM     18  C   UNL     1       4.879   3.861  16.400  0.00  0.00    +0.000 A 
ENDBRANCH   8  12
BRANCH   1  19
ATOM     19  N   UNL     1       1.810   7.102  20.602  0.00  0.00    +0.000 N 
ATOM     20  H   UNL     1       1.262   7.437  19.797  0.00  0.00    +0.000 HD
BRANCH  19  21
ATOM     21  N   UNL     1       1.735   7.973  21.686  0.00  0.00    +0.000 N 
ATOM     22  H   UNL     1       1.760   7.535  22.609  0.00  0.00    +0.000 HD
BRANCH  21  26
ATOM     23  C   UNL     1      -0.973  11.246  21.591  0.00  0.00    +0.000 A 
ATOM     24  C   UNL     1      -0.245  10.873  20.465  0.00  0.00    +0.000 A 
ATOM     25  C   UNL     1       0.656   9.809  20.528  0.00  0.00    +0.000 A 
ATOM     26  C   UNL     1       0.884   9.110  21.725  0.00  0.00    +0.000 A 
ATOM     27  C   UNL     1       0.179   9.516  22.862  0.00  0.00    +0.000 A 
ATOM     28  C   UNL     1      -0.742  10.583  22.797  0.00  0.00    +0.000 A 
BRANCH  23  30
ATOM     29  C   UNL     1      -2.458  12.321  20.087  0.00  0.00    +0.000 C 
ATOM     30  O   UNL     1      -1.868  12.257  21.380  0.00  0.00    +0.000 OA
ENDBRANCH  23  30
ENDBRANCH  21  26
ENDBRANCH  19  21
ENDBRANCH   1  19
TORSDOF 5
ENDMDL
MODEL 3
REMARK VINA RESULT:      -8.7      3.557      4.921
REMARK  Name = 
REMARK  7 active torsions:
REMARK  status: ('A' for Active; 'I' for Inactive)
REMARK    1  A    between atoms: C_1  and  O_2
REMARK    2  A    between atoms: O_2  and  C_3
REMARK    3  A    between atoms: C_6  and  N_7
REMARK    4  A    between atoms: N_7  and  N_8
REMARK    5  A    between atoms: N_8  and  C_9
REMARK    6  A    between atoms: N_16  and  C_17
REMARK    7  A    between atoms: C_21  and  C_22
REMARK                            x       y       z     vdW  Elec       q    Type
REMARK                         _______ _______ _______ _____ _____    ______ ____
ROOT
ATOM      1  C   UNL     1       0.597   9.974  19.336  0.00  0.00    +0.000 C 
ATOM      2  C   UNL     1       1.248   8.874  19.770  0.00  0.00    +0.000 C 
ATOM      3  C   UNL     1       1.209   8.541  21.206  0.00  0.00    +0.000 C 
ATOM      4  O   UNL     1       0.791   9.306  22.082  0.00  0.00    +0.000 OA
ATOM      5  N   UNL     1       1.644   7.285  21.511  0.00  0.00    +0.000 N 
ATOM      6  C   UNL     1       2.142   6.332  20.653  0.00  0.00    +0.000 C 
ATOM      7  O   UNL     1       2.375   5.209  21.104  0.00  0.00    +0.000 OA
ATOM      8  N   UNL     1       2.322   6.730  19.319  0.00  0.00    +0.000 N 
ATOM      9  C   UNL     1       1.922   7.974  18.826  0.00  0.00    +0.000 C 
ATOM     10  O   UNL     1       2.168   8.380  17.679  0.00  0.00    +0.000 OA
ATOM     11  H   UNL     1       1.554   6.997  22.475  0.00  0.00    +0.000 HD
ENDROOT
BRANCH   8  12
ATOM     12  C   UNL     1       2.841   5.782  18.387  0.00  0.00    +0.000 A 
ATOM     13  C   UNL     1       2.003   4.778  17.877  0.00  0.00    +0.000 A 
ATOM     14  C   UNL     1       2.530   3.719  17.140  0.00  0.00    +0.000 A 
ATOM     15  C   UNL     1       3.892   3.680  16.862  0.00  0.00    +0.000 A 
ATOM     16  C   UNL     1       4.733   4.712  17.297  0.00  0.00    +0.000 A 
ATOM     17  C   UNL     1       6.209   4.644  17.042  0.00  0.00    +0.000 C 
ATOM     18  C   UNL     1       4.200   5.768  18.052  0.00  0.00    +0.000 A 
ENDBRANCH   8  12
BRANCH   1  19
ATOM     19  N   UNL     1       0.303  10.486  18.069  0.00  0.00    +0.000 N 
ATOM     20  H   UNL     1       1.152  10.760  17.554  0.00  0.00    +0.000 HD
BRANCH  19  21
ATOM     21  N   UNL     1      -0.641   9.886  17.239  0.00  0.00    +0.000 N 
ATOM     22  H   UNL     1      -0.294   9.564  16.334  0.00  0.00    +0.000 HD
BRANCH  21  26
ATOM     23  C   UNL     1      -4.535  11.553  16.914  0.00  0.00    +0.000 A 
ATOM     24  C   UNL     1      -3.885  11.464  18.140  0.00  0.00    +0.000 A 
ATOM     25  C   UNL     1      -2.615  10.891  18.224  0.00  0.00    +0.000 A 
ATOM     26  C   UNL     1      -1.974  10.357  17.095  0.00  0.00    +0.000 A 
ATOM     27  C   UNL     1      -2.651  10.414  15.873  0.00  0.00    +0.000 A 
ATOM     28  C   UNL     1      -3.929  11.006  15.783  0.00  0.00    +0.000 A 
BRANCH  23  30
ATOM     29  C   UNL     1      -6.653  11.766  17.960  0.00  0.00    +0.000 C 
ATOM     30  O   UNL     1      -5.742  12.196  16.956  0.00  0.00    +0.000 OA
ENDBRANCH  23  30
ENDBRANCH  21  26
ENDBRANCH  19  21
ENDBRANCH   1  19
TORSDOF 5
ENDMDL
MODEL 4
REMARK VINA RESULT:      -8.7      1.179      1.844
REMARK  Name = 
REMARK  7 active torsions:
REMARK  status: ('A' for Active; 'I' for Inactive)
REMARK    1  A    between atoms: C_1  and  O_2
REMARK    2  A    between atoms: O_2  and  C_3
REMARK    3  A    between atoms: C_6  and  N_7
REMARK    4  A    between atoms: N_7  and  N_8
REMARK    5  A    between atoms: N_8  and  C_9
REMARK    6  A    between atoms: N_16  and  C_17
REMARK    7  A    between atoms: C_21  and  C_22
REMARK                            x       y       z     vdW  Elec       q    Type
REMARK                         _______ _______ _______ _____ _____    ______ ____
ROOT
ATOM      1  C   UNL     1       1.919   5.839  20.743  0.00  0.00    +0.000 C 
ATOM      2  C   UNL     1       2.526   4.759  20.205  0.00  0.00    +0.000 C 
ATOM      3  C   UNL     1       1.939   3.425  20.428  0.00  0.00    +0.000 C 
ATOM      4  O   UNL     1       1.039   3.192  21.243  0.00  0.00    +0.000 OA
ATOM      5  N   UNL     1       2.441   2.441  19.629  0.00  0.00    +0.000 N 
ATOM      6  C   UNL     1       3.440   2.544  18.688  0.00  0.00    +0.000 C 
ATOM      7  O   UNL     1       3.676   1.564  17.980  0.00  0.00    +0.000 OA
ATOM      8  N   UNL     1       4.095   3.784  18.610  0.00  0.00    +0.000 N 
ATOM      9  C   UNL     1       3.706   4.907  19.344  0.00  0.00    +0.000 C 
ATOM     10  O   UNL     1       4.336   5.976  19.366  0.00  0.00    +0.000 OA
ATOM     11  H   UNL     1       2.004   1.534  19.699  0.00  0.00    +0.000 HD
ENDROOT
BRANCH   8  12
ATOM     12  C   UNL     1       5.143   3.944  17.656  0.00  0.00    +0.000 A 
ATOM     13  C   UNL     1       6.429   4.301  18.088  0.00  0.00    +0.000 A 
ATOM     14  C   UNL     1       7.411   4.671  17.171  0.00  0.00    +0.000 A 
ATOM     15  C   UNL     1       7.131   4.641  15.808  0.00  0.00    +0.000 A 
ATOM     16  C   UNL     1       5.877   4.214  15.353  0.00  0.00    +0.000 A 
ATOM     17  C   UNL     1       5.557   4.230  13.888  0.00  0.00    +0.000 C 
ATOM     18  C   UNL     1       4.887   3.857  16.282  0.00  0.00    +0.000 A 
ENDBRANCH   8  12
BRANCH   1  19
ATOM     19  N   UNL     1       2.105   7.218  20.610  0.00  0.00    +0.000 N 
ATOM     20  H   UNL     1       2.232   7.500  19.628  0.00  0.00    +0.000 HD
BRANCH  19  21
ATOM     21  N   UNL     1       1.332   8.132  21.323  0.00  0.00    +0.000 N 
ATOM     22  H   UNL     1       0.732   7.734  22.048  0.00  0.00    +0.000 HD
BRANCH  21  26
ATOM     23  C   UNL     1      -0.741  11.271  19.349  0.00  0.00    +0.000 A 
ATOM     24  C   UNL     1       0.169  10.465  18.672  0.00  0.00    +0.000 A 
ATOM     25  C   UNL     1       0.855   9.455  19.349  0.00  0.00    +0.000 A 
ATOM     26  C   UNL     1       0.680   9.244  20.726  0.00  0.00    +0.000 A 
ATOM     27  C   UNL     1      -0.206  10.084  21.408  0.00  0.00    +0.000 A 
ATOM     28  C   UNL     1      -0.911  11.097  20.723  0.00  0.00    +0.000 A 
BRANCH  23  30
ATOM     29  C   UNL     1      -2.227  11.640  17.538  0.00  0.00    +0.000 C 
ATOM     30  O   UNL     1      -1.395  12.176  18.560  0.00  0.00    +0.000 OA
ENDBRANCH  23  30
ENDBRANCH  21  26
ENDBRANCH  19  21
ENDBRANCH   1  19
TORSDOF 5
ENDMDL
MODEL 5
REMARK VINA RESULT:      -8.5      1.257      1.637
REMARK  Name = 
REMARK  7 active torsions:
REMARK  status: ('A' for Active; 'I' for Inactive)
REMARK    1  A    between atoms: C_1  and  O_2
REMARK    2  A    between atoms: O_2  and  C_3
REMARK    3  A    between atoms: C_6  and  N_7
REMARK    4  A    between atoms: N_7  and  N_8
REMARK    5  A    between atoms: N_8  and  C_9
REMARK    6  A    between atoms: N_16  and  C_17
REMARK    7  A    between atoms: C_21  and  C_22
REMARK                            x       y       z     vdW  Elec       q    Type
REMARK                         _______ _______ _______ _____ _____    ______ ____
ROOT
ATOM      1  C   UNL     1       1.830   5.669  20.863  0.00  0.00    +0.000 C 
ATOM      2  C   UNL     1       2.453   4.619  20.287  0.00  0.00    +0.000 C 
ATOM      3  C   UNL     1       1.872   3.272  20.440  0.00  0.00    +0.000 C 
ATOM      4  O   UNL     1       0.961   2.998  21.230  0.00  0.00    +0.000 OA
ATOM      5  N   UNL     1       2.394   2.328  19.606  0.00  0.00    +0.000 N 
ATOM      6  C   UNL     1       3.407   2.480  18.688  0.00  0.00    +0.000 C 
ATOM      7  O   UNL     1       3.661   1.533  17.941  0.00  0.00    +0.000 OA
ATOM      8  N   UNL     1       4.054   3.726  18.676  0.00  0.00    +0.000 N 
ATOM      9  C   UNL     1       3.646   4.812  19.453  0.00  0.00    +0.000 C 
ATOM     10  O   UNL     1       4.268   5.883  19.533  0.00  0.00    +0.000 OA
ATOM     11  H   UNL     1       1.962   1.416  19.629  0.00  0.00    +0.000 HD
ENDROOT
BRANCH   8  12
ATOM     12  C   UNL     1       5.116   3.935  17.747  0.00  0.00    +0.000 A 
ATOM     13  C   UNL     1       6.382   4.321  18.213  0.00  0.00    +0.000 A 
ATOM     14  C   UNL     1       7.370   4.738  17.323  0.00  0.00    +0.000 A 
ATOM     15  C   UNL     1       7.120   4.726  15.955  0.00  0.00    +0.000 A 
ATOM     16  C   UNL     1       5.889   4.271  15.466  0.00  0.00    +0.000 A 
ATOM     17  C   UNL     1       5.599   4.306  13.995  0.00  0.00    +0.000 C 
ATOM     18  C   UNL     1       4.891   3.867  16.366  0.00  0.00    +0.000 A 
ENDBRANCH   8  12
BRANCH   1  19
ATOM     19  N   UNL     1       2.009   7.054  20.795  0.00  0.00    +0.000 N 
ATOM     20  H   UNL     1       2.833   7.367  21.329  0.00  0.00    +0.000 HD
BRANCH  19  21
ATOM     21  N   UNL     1       1.864   7.751  19.598  0.00  0.00    +0.000 N 
ATOM     22  H   UNL     1       2.664   7.712  18.963  0.00  0.00    +0.000 HD
BRANCH  21  26
ATOM     23  C   UNL     1       0.129  11.629  19.566  0.00  0.00    +0.000 A 
ATOM     24  C   UNL     1      -0.170  10.708  20.566  0.00  0.00    +0.000 A 
ATOM     25  C   UNL     1       0.395   9.433  20.541  0.00  0.00    +0.000 A 
ATOM     26  C   UNL     1       1.245   9.026  19.500  0.00  0.00    +0.000 A 
ATOM     27  C   UNL     1       1.509   9.942  18.477  0.00  0.00    +0.000 A 
ATOM     28  C   UNL     1       0.949  11.238  18.507  0.00  0.00    +0.000 A 
BRANCH  23  30
ATOM     29  C   UNL     1      -0.272  13.791  18.678  0.00  0.00    +0.000 C 
ATOM     30  O   UNL     1      -0.435  12.862  19.742  0.00  0.00    +0.000 OA
ENDBRANCH  23  30
ENDBRANCH  21  26
ENDBRANCH  19  21
ENDBRANCH   1  19
TORSDOF 5
ENDMDL
MODEL 6
REMARK VINA RESULT:      -8.4      2.542      3.046
REMARK  Name = 
REMARK  7 active torsions:
REMARK  status: ('A' for Active; 'I' for Inactive)
REMARK    1  A    between atoms: C_1  and  O_2
REMARK    2  A    between atoms: O_2  and  C_3
REMARK    3  A    between atoms: C_6  and  N_7
REMARK    4  A    between atoms: N_7  and  N_8
REMARK    5  A    between atoms: N_8  and  C_9
REMARK    6  A    between atoms: N_16  and  C_17
REMARK    7  A    between atoms: C_21  and  C_22
REMARK                            x       y       z     vdW  Elec       q    Type
REMARK                         _______ _______ _______ _____ _____    ______ ____
ROOT
ATOM      1  C   UNL     1       1.859   7.929  18.831  0.00  0.00    +0.000 C 
ATOM      2  C   UNL     1       2.589   6.811  19.028  0.00  0.00    +0.000 C 
ATOM      3  C   UNL     1       2.199   5.882  20.104  0.00  0.00    +0.000 C 
ATOM      4  O   UNL     1       1.368   6.148  20.979  0.00  0.00    +0.000 OA
ATOM      5  N   UNL     1       2.805   4.662  20.052  0.00  0.00    +0.000 N 
ATOM      6  C   UNL     1       3.748   4.225  19.151  0.00  0.00    +0.000 C 
ATOM      7  O   UNL     1       4.092   3.043  19.197  0.00  0.00    +0.000 OA
ATOM      8  N   UNL     1       4.224   5.179  18.237  0.00  0.00    +0.000 N 
ATOM      9  C   UNL     1       3.710   6.474  18.140  0.00  0.00    +0.000 C 
ATOM     10  O   UNL     1       4.187   7.359  17.412  0.00  0.00    +0.000 OA
ATOM     11  H   UNL     1       2.498   3.975  20.726  0.00  0.00    +0.000 HD
ENDROOT
BRANCH   8  12
ATOM     12  C   UNL     1       5.207   4.781  17.284  0.00  0.00    +0.000 A 
ATOM     13  C   UNL     1       6.570   4.886  17.604  0.00  0.00    +0.000 A 
ATOM     14  C   UNL     1       7.546   4.710  16.626  0.00  0.00    +0.000 A 
ATOM     15  C   UNL     1       7.173   4.378  15.328  0.00  0.00    +0.000 A 
ATOM     16  C   UNL     1       5.822   4.193  15.005  0.00  0.00    +0.000 A 
ATOM     17  C   UNL     1       5.415   3.886  13.595  0.00  0.00    +0.000 C 
ATOM     18  C   UNL     1       4.842   4.387  15.991  0.00  0.00    +0.000 A 
ENDBRANCH   8  12
BRANCH   1  19
ATOM     19  N   UNL     1       1.850   8.915  17.841  0.00  0.00    +0.000 N 
ATOM     20  H   UNL     1       1.558   8.544  16.925  0.00  0.00    +0.000 HD
BRANCH  19  21
ATOM     21  N   UNL     1       1.333  10.186  18.079  0.00  0.00    +0.000 N 
ATOM     22  H   UNL     1       1.849  10.755  18.753  0.00  0.00    +0.000 HD
BRANCH  21  26
ATOM     23  C   UNL     1      -2.764  11.284  18.320  0.00  0.00    +0.000 A 
ATOM     24  C   UNL     1      -1.790  11.950  19.057  0.00  0.00    +0.000 A 
ATOM     25  C   UNL     1      -0.454  11.555  18.979  0.00  0.00    +0.000 A 
ATOM     26  C   UNL     1      -0.056  10.462  18.192  0.00  0.00    +0.000 A 
ATOM     27  C   UNL     1      -1.046   9.772  17.485  0.00  0.00    +0.000 A 
ATOM     28  C   UNL     1      -2.396  10.179  17.553  0.00  0.00    +0.000 A 
BRANCH  23  30
ATOM     29  C   UNL     1      -4.885  11.633  17.318  0.00  0.00    +0.000 C 
ATOM     30  O   UNL     1      -4.021  11.811  18.433  0.00  0.00    +0.000 OA
ENDBRANCH  23  30
ENDBRANCH  21  26
ENDBRANCH  19  21
ENDBRANCH   1  19
TORSDOF 5
ENDMDL
MODEL 7
REMARK VINA RESULT:      -8.3      1.662      1.917
REMARK  Name = 
REMARK  7 active torsions:
REMARK  status: ('A' for Active; 'I' for Inactive)
REMARK    1  A    between atoms: C_1  and  O_2
REMARK    2  A    between atoms: O_2  and  C_3
REMARK    3  A    between atoms: C_6  and  N_7
REMARK    4  A    between atoms: N_7  and  N_8
REMARK    5  A    between atoms: N_8  and  C_9
REMARK    6  A    between atoms: N_16  and  C_17
REMARK    7  A    between atoms: C_21  and  C_22
REMARK                            x       y       z     vdW  Elec       q    Type
REMARK                         _______ _______ _______ _____ _____    ______ ____
ROOT
ATOM      1  C   UNL     1       1.434   5.297  20.980  0.00  0.00    +0.000 C 
ATOM      2  C   UNL     1       2.480   4.477  20.742  0.00  0.00    +0.000 C 
ATOM      3  C   UNL     1       2.514   3.156  21.394  0.00  0.00    +0.000 C 
ATOM      4  O   UNL     1       1.754   2.815  22.307  0.00  0.00    +0.000 OA
ATOM      5  N   UNL     1       3.442   2.294  20.888  0.00  0.00    +0.000 N 
ATOM      6  C   UNL     1       4.356   2.530  19.887  0.00  0.00    +0.000 C 
ATOM      7  O   UNL     1       5.037   1.584  19.487  0.00  0.00    +0.000 OA
ATOM      8  N   UNL     1       4.415   3.844  19.396  0.00  0.00    +0.000 N 
ATOM      9  C   UNL     1       3.534   4.853  19.790  0.00  0.00    +0.000 C 
ATOM     10  O   UNL     1       3.637   6.041  19.446  0.00  0.00    +0.000 OA
ATOM     11  H   UNL     1       3.437   1.354  21.257  0.00  0.00    +0.000 HD
ENDROOT
BRANCH   8  12
ATOM     12  C   UNL     1       5.349   4.145  18.361  0.00  0.00    +0.000 A 
ATOM     13  C   UNL     1       6.585   4.726  18.686  0.00  0.00    +0.000 A 
ATOM     14  C   UNL     1       7.421   5.224  17.689  0.00  0.00    +0.000 A 
ATOM     15  C   UNL     1       7.053   5.102  16.353  0.00  0.00    +0.000 A 
ATOM     16  C   UNL     1       5.860   4.458  16.004  0.00  0.00    +0.000 A 
ATOM     17  C   UNL     1       5.438   4.371  14.567  0.00  0.00    +0.000 C 
ATOM     18  C   UNL     1       5.014   3.971  17.012  0.00  0.00    +0.000 A 
ENDBRANCH   8  12
BRANCH   1  19
ATOM     19  N   UNL     1       1.015   6.512  20.430  0.00  0.00    +0.000 N 
ATOM     20  H   UNL     1      -0.011   6.571  20.355  0.00  0.00    +0.000 HD
BRANCH  19  21
ATOM     21  N   UNL     1       1.583   7.724  20.814  0.00  0.00    +0.000 N 
ATOM     22  H   UNL     1       1.650   7.882  21.822  0.00  0.00    +0.000 HD
BRANCH  21  26
ATOM     23  C   UNL     1       1.001  11.539  19.038  0.00  0.00    +0.000 A 
ATOM     24  C   UNL     1       0.716  11.313  20.381  0.00  0.00    +0.000 A 
ATOM     25  C   UNL     1       0.894  10.045  20.936  0.00  0.00    +0.000 A 
ATOM     26  C   UNL     1       1.325   8.958  20.159  0.00  0.00    +0.000 A 
ATOM     27  C   UNL     1       1.570   9.183  18.801  0.00  0.00    +0.000 A 
ATOM     28  C   UNL     1       1.404  10.468  18.241  0.00  0.00    +0.000 A 
BRANCH  23  30
ATOM     29  C   UNL     1       0.485  13.773  19.643  0.00  0.00    +0.000 C 
ATOM     30  O   UNL     1       0.850  12.837  18.637  0.00  0.00    +0.000 OA
ENDBRANCH  23  30
ENDBRANCH  21  26
ENDBRANCH  19  21
ENDBRANCH   1  19
TORSDOF 5
ENDMDL
MODEL 8
REMARK VINA RESULT:      -8.2      3.341      4.708
REMARK  Name = 
REMARK  7 active torsions:
REMARK  status: ('A' for Active; 'I' for Inactive)
REMARK    1  A    between atoms: C_1  and  O_2
REMARK    2  A    between atoms: O_2  and  C_3
REMARK    3  A    between atoms: C_6  and  N_7
REMARK    4  A    between atoms: N_7  and  N_8
REMARK    5  A    between atoms: N_8  and  C_9
REMARK    6  A    between atoms: N_16  and  C_17
REMARK    7  A    between atoms: C_21  and  C_22
REMARK                            x       y       z     vdW  Elec       q    Type
REMARK                         _______ _______ _______ _____ _____    ______ ____
ROOT
ATOM      1  C   UNL     1       0.782   9.892  19.349  0.00  0.00    +0.000 C 
ATOM      2  C   UNL     1       1.385   8.754  19.754  0.00  0.00    +0.000 C 
ATOM      3  C   UNL     1       1.301   8.368  21.174  0.00  0.00    +0.000 C 
ATOM      4  O   UNL     1       0.888   9.112  22.070  0.00  0.00    +0.000 OA
ATOM      5  N   UNL     1       1.685   7.087  21.440  0.00  0.00    +0.000 N 
ATOM      6  C   UNL     1       2.170   6.150  20.557  0.00  0.00    +0.000 C 
ATOM      7  O   UNL     1       2.355   5.004  20.968  0.00  0.00    +0.000 OA
ATOM      8  N   UNL     1       2.396   6.592  19.243  0.00  0.00    +0.000 N 
ATOM      9  C   UNL     1       2.051   7.868  18.791  0.00  0.00    +0.000 C 
ATOM     10  O   UNL     1       2.338   8.309  17.666  0.00  0.00    +0.000 OA
ATOM     11  H   UNL     1       1.563   6.765  22.389  0.00  0.00    +0.000 HD
ENDROOT
BRANCH   8  12
ATOM     12  C   UNL     1       2.904   5.664  18.287  0.00  0.00    +0.000 A 
ATOM     13  C   UNL     1       2.120   4.567  17.898  0.00  0.00    +0.000 A 
ATOM     14  C   UNL     1       2.667   3.536  17.137  0.00  0.00    +0.000 A 
ATOM     15  C   UNL     1       3.990   3.615  16.714  0.00  0.00    +0.000 A 
ATOM     16  C   UNL     1       4.767   4.737  17.028  0.00  0.00    +0.000 A 
ATOM     17  C   UNL     1       6.208   4.800  16.617  0.00  0.00    +0.000 C 
ATOM     18  C   UNL     1       4.216   5.766  17.807  0.00  0.00    +0.000 A 
ENDBRANCH   8  12
BRANCH   1  19
ATOM     19  N   UNL     1       0.536  10.462  18.097  0.00  0.00    +0.000 N 
ATOM     20  H   UNL     1       0.349   9.751  17.375  0.00  0.00    +0.000 HD
BRANCH  19  21
ATOM     21  N   UNL     1      -0.278  11.583  17.950  0.00  0.00    +0.000 N 
ATOM     22  H   UNL     1       0.032  12.423  18.443  0.00  0.00    +0.000 HD
BRANCH  21  26
ATOM     23  C   UNL     1      -4.502  11.132  17.970  0.00  0.00    +0.000 A 
ATOM     24  C   UNL     1      -3.717  10.570  16.968  0.00  0.00    +0.000 A 
ATOM     25  C   UNL     1      -2.334  10.753  16.971  0.00  0.00    +0.000 A 
ATOM     26  C   UNL     1      -1.698  11.530  17.952  0.00  0.00    +0.000 A 
ATOM     27  C   UNL     1      -2.497  12.125  18.933  0.00  0.00    +0.000 A 
ATOM     28  C   UNL     1      -3.895  11.931  18.940  0.00  0.00    +0.000 A 
BRANCH  23  30
ATOM     29  C   UNL     1      -6.739  11.918  17.918  0.00  0.00    +0.000 C 
ATOM     30  O   UNL     1      -5.831  10.823  17.891  0.00  0.00    +0.000 OA
ENDBRANCH  23  30
ENDBRANCH  21  26
ENDBRANCH  19  21
ENDBRANCH   1  19
TORSDOF 5
ENDMDL
MODEL 9
REMARK VINA RESULT:      -8.2      2.044      2.409
REMARK  Name = 
REMARK  7 active torsions:
REMARK  status: ('A' for Active; 'I' for Inactive)
REMARK    1  A    between atoms: C_1  and  O_2
REMARK    2  A    between atoms: O_2  and  C_3
REMARK    3  A    between atoms: C_6  and  N_7
REMARK    4  A    between atoms: N_7  and  N_8
REMARK    5  A    between atoms: N_8  and  C_9
REMARK    6  A    between atoms: N_16  and  C_17
REMARK    7  A    between atoms: C_21  and  C_22
REMARK                            x       y       z     vdW  Elec       q    Type
REMARK                         _______ _______ _______ _____ _____    ______ ____
ROOT
ATOM      1  C   UNL     1       2.062   7.743  19.125  0.00  0.00    +0.000 C 
ATOM      2  C   UNL     1       2.703   6.555  19.146  0.00  0.00    +0.000 C 
ATOM      3  C   UNL     1       2.223   5.500  20.058  0.00  0.00    +0.000 C 
ATOM      4  O   UNL     1       1.396   5.687  20.957  0.00  0.00    +0.000 OA
ATOM      5  N   UNL     1       2.736   4.261  19.816  0.00  0.00    +0.000 N 
ATOM      6  C   UNL     1       3.662   3.901  18.864  0.00  0.00    +0.000 C 
ATOM      7  O   UNL     1       3.917   2.703  18.724  0.00  0.00    +0.000 OA
ATOM      8  N   UNL     1       4.227   4.948  18.118  0.00  0.00    +0.000 N 
ATOM      9  C   UNL     1       3.812   6.278  18.225  0.00  0.00    +0.000 C 
ATOM     10  O   UNL     1       4.369   7.228  17.652  0.00  0.00    +0.000 OA
ATOM     11  H   UNL     1       2.367   3.501  20.370  0.00  0.00    +0.000 HD
ENDROOT
BRANCH   8  12
ATOM     12  C   UNL     1       5.196   4.632  17.122  0.00  0.00    +0.000 A 
ATOM     13  C   UNL     1       6.562   4.781  17.408  0.00  0.00    +0.000 A 
ATOM     14  C   UNL     1       7.515   4.687  16.395  0.00  0.00    +0.000 A 
ATOM     15  C   UNL     1       7.117   4.393  15.095  0.00  0.00    +0.000 A 
ATOM     16  C   UNL     1       5.766   4.166  14.804  0.00  0.00    +0.000 A 
ATOM     17  C   UNL     1       5.330   3.899  13.394  0.00  0.00    +0.000 C 
ATOM     18  C   UNL     1       4.809   4.276  15.824  0.00  0.00    +0.000 A 
ENDBRANCH   8  12
BRANCH   1  19
ATOM     19  N   UNL     1       2.147   8.871  18.304  0.00  0.00    +0.000 N 
ATOM     20  H   UNL     1       3.017   8.887  17.752  0.00  0.00    +0.000 HD
BRANCH  19  21
ATOM     21  N   UNL     1       1.053   9.324  17.570  0.00  0.00    +0.000 N 
ATOM     22  H   UNL     1       1.268   9.711  16.648  0.00  0.00    +0.000 HD
BRANCH  21  26
ATOM     23  C   UNL     1      -2.056  11.698  19.226  0.00  0.00    +0.000 A 
ATOM     24  C   UNL     1      -0.777  11.692  19.775  0.00  0.00    +0.000 A 
ATOM     25  C   UNL     1       0.221  10.886  19.226  0.00  0.00    +0.000 A 
ATOM     26  C   UNL     1      -0.037  10.035  18.139  0.00  0.00    +0.000 A 
ATOM     27  C   UNL     1      -1.335  10.016  17.619  0.00  0.00    +0.000 A 
ATOM     28  C   UNL     1      -2.343  10.841  18.164  0.00  0.00    +0.000 A 
BRANCH  23  30
ATOM     29  C   UNL     1      -2.757  12.796  21.208  0.00  0.00    +0.000 C 
ATOM     30  O   UNL     1      -2.921  12.580  19.812  0.00  0.00    +0.000 OA
ENDBRANCH  23  30
ENDBRANCH  21  26
ENDBRANCH  19  21
ENDBRANCH   1  19
TORSDOF 5
ENDMDL
