MODEL 1
REMARK VINA RESULT:      -5.5      0.000      0.000
REMARK  Name = 
REMARK  1 active torsions:
REMARK  status: ('A' for Active; 'I' for Inactive)
REMARK    1  A    between atoms: C_2  and  N_3
REMARK                            x       y       z     vdW  Elec       q    Type
REMARK                         _______ _______ _______ _____ _____    ______ ____
ROOT
ATOM      1  N   UNL     1       3.489   2.727  19.797  0.00  0.00    +0.000 N 
ATOM      2  C   UNL     1       2.059   2.310  19.862  0.00  0.00    +0.000 C 
ATOM      3  C   UNL     1       1.494   3.292  20.896  0.00  0.00    +0.000 C 
ATOM      4  C   UNL     1       2.271   4.593  20.682  0.00  0.00    +0.000 C 
ATOM      5  C   UNL     1       3.390   4.222  19.697  0.00  0.00    +0.000 C 
ATOM      6  C   UNL     1       2.975   4.569  18.268  0.00  0.00    +0.000 C 
ATOM      7  C   UNL     1       1.686   3.851  17.919  0.00  0.00    +0.000 C 
ATOM      8  O   UNL     1       0.862   4.350  17.157  0.00  0.00    +0.000 OA
ATOM      9  C   UNL     1       1.507   2.440  18.444  0.00  0.00    +0.000 C 
ENDROOT
BRANCH   1  11
ATOM     10  N   UNL     1       5.259   1.583  21.136  0.00  0.00    +0.000 NA
ATOM     11  C   UNL     1       4.428   2.094  20.513  0.00  0.00    +0.000 C 
ENDBRANCH   1  11
TORSDOF 1
ENDMDL
MODEL 2
REMARK VINA RESULT:      -5.4      1.626      1.998
REMARK  Name = 
REMARK  1 active torsions:
REMARK  status: ('A' for Active; 'I' for Inactive)
REMARK    1  A    between atoms: C_2  and  N_3
REMARK                            x       y       z     vdW  Elec       q    Type
REMARK                         _______ _______ _______ _____ _____    ______ ____
ROOT
ATOM      1  N   UNL     1       3.685   4.134  19.269  0.00  0.00    +0.000 N 
ATOM      2  C   UNL     1       3.163   3.130  20.241  0.00  0.00    +0.000 C 
ATOM      3  C   UNL     1       2.345   4.013  21.194  0.00  0.00    +0.000 C 
ATOM      4  C   UNL     1       1.768   5.125  20.316  0.00  0.00    +0.000 C 
ATOM      5  C   UNL     1       2.465   4.953  18.958  0.00  0.00    +0.000 C 
ATOM      6  C   UNL     1       1.585   4.138  18.010  0.00  0.00    +0.000 C 
ATOM      7  C   UNL     1       1.269   2.793  18.631  0.00  0.00    +0.000 C 
ATOM      8  O   UNL     1       0.201   2.225  18.418  0.00  0.00    +0.000 OA
ATOM      9  C   UNL     1       2.367   2.113  19.425  0.00  0.00    +0.000 C 
ENDROOT
BRANCH   1  11
ATOM     10  N   UNL     1       5.987   5.068  19.521  0.00  0.00    +0.000 NA
ATOM     11  C   UNL     1       4.912   4.656  19.405  0.00  0.00    +0.000 C 
ENDBRANCH   1  11
TORSDOF 1
ENDMDL
MODEL 3
REMARK VINA RESULT:      -5.3      2.574      3.659
REMARK  Name = 
REMARK  1 active torsions:
REMARK  status: ('A' for Active; 'I' for Inactive)
REMARK    1  A    between atoms: C_2  and  N_3
REMARK                            x       y       z     vdW  Elec       q    Type
REMARK                         _______ _______ _______ _____ _____    ______ ____
ROOT
ATOM      1  N   UNL     1       4.980   4.983  18.682  0.00  0.00    +0.000 N 
ATOM      2  C   UNL     1       4.145   6.105  18.163  0.00  0.00    +0.000 C 
ATOM      3  C   UNL     1       4.591   6.174  16.696  0.00  0.00    +0.000 C 
ATOM      4  C   UNL     1       4.893   4.728  16.299  0.00  0.00    +0.000 C 
ATOM      5  C   UNL     1       4.824   3.938  17.615  0.00  0.00    +0.000 C 
ATOM      6  C   UNL     1       3.443   3.304  17.780  0.00  0.00    +0.000 C 
ATOM      7  C   UNL     1       2.376   4.378  17.736  0.00  0.00    +0.000 C 
ATOM      8  O   UNL     1       1.261   4.154  17.272  0.00  0.00    +0.000 OA
ATOM      9  C   UNL     1       2.690   5.705  18.401  0.00  0.00    +0.000 C 
ENDROOT
BRANCH   1  11
ATOM     10  N   UNL     1       7.147   5.400  19.850  0.00  0.00    +0.000 NA
ATOM     11  C   UNL     1       6.132   5.219  19.325  0.00  0.00    +0.000 C 
ENDBRANCH   1  11
TORSDOF 1
ENDMDL
MODEL 4
REMARK VINA RESULT:      -5.3      1.858      2.837
REMARK  Name = 
REMARK  1 active torsions:
REMARK  status: ('A' for Active; 'I' for Inactive)
REMARK    1  A    between atoms: C_2  and  N_3
REMARK                            x       y       z     vdW  Elec       q    Type
REMARK                         _______ _______ _______ _____ _____    ______ ____
ROOT
ATOM      1  N   UNL     1       2.792   3.400  19.925  0.00  0.00    +0.000 N 
ATOM      2  C   UNL     1       4.058   2.800  19.412  0.00  0.00    +0.000 C 
ATOM      3  C   UNL     1       3.527   1.713  18.468  0.00  0.00    +0.000 C 
ATOM      4  C   UNL     1       2.241   2.289  17.873  0.00  0.00    +0.000 C 
ATOM      5  C   UNL     1       1.981   3.574  18.674  0.00  0.00    +0.000 C 
ATOM      6  C   UNL     1       2.533   4.787  17.924  0.00  0.00    +0.000 C 
ATOM      7  C   UNL     1       4.014   4.599  17.665  0.00  0.00    +0.000 C 
ATOM      8  O   UNL     1       4.550   5.057  16.659  0.00  0.00    +0.000 OA
ATOM      9  C   UNL     1       4.836   3.936  18.752  0.00  0.00    +0.000 C 
ENDROOT
BRANCH   1  11
ATOM     10  N   UNL     1       1.808   2.647  22.093  0.00  0.00    +0.000 NA
ATOM     11  C   UNL     1       2.270   3.015  21.098  0.00  0.00    +0.000 C 
ENDBRANCH   1  11
TORSDOF 1
ENDMDL
MODEL 5
REMARK VINA RESULT:      -5.3      1.954      2.328
REMARK  Name = 
REMARK  1 active torsions:
REMARK  status: ('A' for Active; 'I' for Inactive)
REMARK    1  A    between atoms: C_2  and  N_3
REMARK                            x       y       z     vdW  Elec       q    Type
REMARK                         _______ _______ _______ _____ _____    ______ ____
ROOT
ATOM      1  N   UNL     1       4.595   4.857  18.948  0.00  0.00    +0.000 N 
ATOM      2  C   UNL     1       4.175   3.449  18.688  0.00  0.00    +0.000 C 
ATOM      3  C   UNL     1       3.499   3.074  20.014  0.00  0.00    +0.000 C 
ATOM      4  C   UNL     1       2.842   4.364  20.509  0.00  0.00    +0.000 C 
ATOM      5  C   UNL     1       3.363   5.457  19.564  0.00  0.00    +0.000 C 
ATOM      6  C   UNL     1       2.357   5.711  18.441  0.00  0.00    +0.000 C 
ATOM      7  C   UNL     1       2.092   4.424  17.688  0.00  0.00    +0.000 C 
ATOM      8  O   UNL     1       0.995   4.189  17.188  0.00  0.00    +0.000 OA
ATOM      9  C   UNL     1       3.265   3.490  17.462  0.00  0.00    +0.000 C 
ENDROOT
BRANCH   1  11
ATOM     10  N   UNL     1       6.926   5.354  19.691  0.00  0.00    +0.000 NA
ATOM     11  C   UNL     1       5.839   5.144  19.354  0.00  0.00    +0.000 C 
ENDBRANCH   1  11
TORSDOF 1
ENDMDL
MODEL 6
REMARK VINA RESULT:      -5.2      1.724      2.377
REMARK  Name = 
REMARK  1 active torsions:
REMARK  status: ('A' for Active; 'I' for Inactive)
REMARK    1  A    between atoms: C_2  and  N_3
REMARK                            x       y       z     vdW  Elec       q    Type
REMARK                         _______ _______ _______ _____ _____    ______ ____
ROOT
ATOM      1  N   UNL     1       3.953   3.975  18.966  0.00  0.00    +0.000 N 
ATOM      2  C   UNL     1       2.937   4.137  20.046  0.00  0.00    +0.000 C 
ATOM      3  C   UNL     1       2.251   5.447  19.636  0.00  0.00    +0.000 C 
ATOM      4  C   UNL     1       2.266   5.446  18.106  0.00  0.00    +0.000 C 
ATOM      5  C   UNL     1       3.156   4.254  17.724  0.00  0.00    +0.000 C 
ATOM      6  C   UNL     1       2.298   3.023  17.432  0.00  0.00    +0.000 C 
ATOM      7  C   UNL     1       1.443   2.696  18.639  0.00  0.00    +0.000 C 
ATOM      8  O   UNL     1       0.326   2.200  18.516  0.00  0.00    +0.000 OA
ATOM      9  C   UNL     1       2.064   2.885  20.009  0.00  0.00    +0.000 C 
ENDROOT
BRANCH   1  11
ATOM     10  N   UNL     1       6.298   4.761  19.308  0.00  0.00    +0.000 NA
ATOM     11  C   UNL     1       5.219   4.378  19.140  0.00  0.00    +0.000 C 
ENDBRANCH   1  11
TORSDOF 1
ENDMDL
MODEL 7
REMARK VINA RESULT:      -5.2      2.316      3.517
REMARK  Name = 
REMARK  1 active torsions:
REMARK  status: ('A' for Active; 'I' for Inactive)
REMARK    1  A    between atoms: C_2  and  N_3
REMARK                            x       y       z     vdW  Elec       q    Type
REMARK                         _______ _______ _______ _____ _____    ______ ____
ROOT
ATOM      1  N   UNL     1       3.074   4.255  18.978  0.00  0.00    +0.000 N 
ATOM      2  C   UNL     1       1.593   4.263  19.154  0.00  0.00    +0.000 C 
ATOM      3  C   UNL     1       1.179   3.009  18.374  0.00  0.00    +0.000 C 
ATOM      4  C   UNL     1       2.324   2.014  18.575  0.00  0.00    +0.000 C 
ATOM      5  C   UNL     1       3.430   2.825  19.265  0.00  0.00    +0.000 C 
ATOM      6  C   UNL     1       3.369   2.624  20.780  0.00  0.00    +0.000 C 
ATOM      7  C   UNL     1       2.002   3.023  21.296  0.00  0.00    +0.000 C 
ATOM      8  O   UNL     1       1.492   2.459  22.260  0.00  0.00    +0.000 OA
ATOM      9  C   UNL     1       1.339   4.229  20.659  0.00  0.00    +0.000 C 
ENDROOT
BRANCH   1  11
ATOM     10  N   UNL     1       4.181   5.581  17.174  0.00  0.00    +0.000 NA
ATOM     11  C   UNL     1       3.661   4.986  18.019  0.00  0.00    +0.000 C 
ENDBRANCH   1  11
TORSDOF 1
ENDMDL
MODEL 8
REMARK VINA RESULT:      -5.2      1.952      2.507
REMARK  Name = 
REMARK  1 active torsions:
REMARK  status: ('A' for Active; 'I' for Inactive)
REMARK    1  A    between atoms: C_2  and  N_3
REMARK                            x       y       z     vdW  Elec       q    Type
REMARK                         _______ _______ _______ _____ _____    ______ ____
ROOT
ATOM      1  N   UNL     1       2.829   3.229  19.949  0.00  0.00    +0.000 N 
ATOM      2  C   UNL     1       2.307   2.720  18.648  0.00  0.00    +0.000 C 
ATOM      3  C   UNL     1       1.468   3.909  18.161  0.00  0.00    +0.000 C 
ATOM      4  C   UNL     1       2.206   5.153  18.662  0.00  0.00    +0.000 C 
ATOM      5  C   UNL     1       3.297   4.611  19.596  0.00  0.00    +0.000 C 
ATOM      6  C   UNL     1       4.621   4.478  18.844  0.00  0.00    +0.000 C 
ATOM      7  C   UNL     1       4.440   3.575  17.641  0.00  0.00    +0.000 C 
ATOM      8  O   UNL     1       5.083   3.746  16.609  0.00  0.00    +0.000 OA
ATOM      9  C   UNL     1       3.529   2.373  17.800  0.00  0.00    +0.000 C 
ENDROOT
BRANCH   1  11
ATOM     10  N   UNL     1       1.713   2.627  22.101  0.00  0.00    +0.000 NA
ATOM     11  C   UNL     1       2.221   2.926  21.105  0.00  0.00    +0.000 C 
ENDBRANCH   1  11
TORSDOF 1
ENDMDL
MODEL 9
REMARK VINA RESULT:      -5.1      3.709      4.636
REMARK  Name = 
REMARK  1 active torsions:
REMARK  status: ('A' for Active; 'I' for Inactive)
REMARK    1  A    between atoms: C_2  and  N_3
REMARK                            x       y       z     vdW  Elec       q    Type
REMARK                         _______ _______ _______ _____ _____    ______ ____
ROOT
ATOM      1  N   UNL     1       5.211   3.965  17.932  0.00  0.00    +0.000 N 
ATOM      2  C   UNL     1       4.582   4.531  16.704  0.00  0.00    +0.000 C 
ATOM      3  C   UNL     1       4.460   6.016  17.071  0.00  0.00    +0.000 C 
ATOM      4  C   UNL     1       5.682   6.316  17.941  0.00  0.00    +0.000 C 
ATOM      5  C   UNL     1       6.315   4.943  18.214  0.00  0.00    +0.000 C 
ATOM      6  C   UNL     1       7.445   4.673  17.221  0.00  0.00    +0.000 C 
ATOM      7  C   UNL     1       6.913   4.753  15.804  0.00  0.00    +0.000 C 
ATOM      8  O   UNL     1       7.614   5.151  14.879  0.00  0.00    +0.000 OA
ATOM      9  C   UNL     1       5.523   4.203  15.547  0.00  0.00    +0.000 C 
ENDROOT
BRANCH   1  11
ATOM     10  N   UNL     1       3.823   2.931  19.731  0.00  0.00    +0.000 NA
ATOM     11  C   UNL     1       4.469   3.390  18.888  0.00  0.00    +0.000 C 
ENDBRANCH   1  11
TORSDOF 1
ENDMDL
