MODEL 1
REMARK VINA RESULT:      -5.9      0.000      0.000
REMARK  Name = 
REMARK  6 active torsions:
REMARK  status: ('A' for Active; 'I' for Inactive)
REMARK    1  A    between atoms: C_1  and  C_2
REMARK    2  A    between atoms: C_2  and  N_3
REMARK    3  A    between atoms: C_8  and  C_9
REMARK    4  A    between atoms: C_9  and  O_10
REMARK    5  A    between atoms: O_10  and  C_11
REMARK    6  A    between atoms: C_13  and  C_15
REMARK                            x       y       z     vdW  Elec       q    Type
REMARK                         _______ _______ _______ _____ _____    ______ ____
ROOT
ATOM      1  N   UNL     1       2.080   3.812  18.898  0.00  0.00    +0.000 N 
ATOM      2  N   UNL     1       1.668   3.061  19.940  0.00  0.00    +0.000 NA
ATOM      3  C   UNL     1       1.418   3.943  20.907  0.00  0.00    +0.000 A 
ATOM      4  C   UNL     1       1.668   5.255  20.486  0.00  0.00    +0.000 A 
ATOM      5  C   UNL     1       2.191   5.141  19.224  0.00  0.00    +0.000 A 
ATOM      6  C   UNL     1       2.730   6.242  18.372  0.00  0.00    +0.000 C 
ATOM      7  N   UNL     1       2.171   7.539  18.829  0.00  0.00    +0.000 N 
ATOM      8  C   UNL     1       2.235   8.573  17.880  0.00  0.00    +0.000 C 
ATOM      9  O   UNL     1       2.704   8.374  16.761  0.00  0.00    +0.000 OA
ATOM     10  C   UNL     1       1.742   7.741  20.229  0.00  0.00    +0.000 C 
ATOM     11  C   UNL     1       1.460   6.542  21.154  0.00  0.00    +0.000 C 
ENDROOT
BRANCH   8  12
ATOM     12  C   UNL     1       1.659   9.904  18.186  0.00  0.00    +0.000 A 
ATOM     13  C   UNL     1       2.274  11.202  18.277  0.00  0.00    +0.000 A 
ATOM     14  C   UNL     1       1.418  12.182  18.729  0.00  0.00    +0.000 A 
ATOM     15  S   UNL     1      -0.178  11.608  18.880  0.00  0.00    +0.000 S 
ATOM     16  C   UNL     1       0.291  10.039  18.392  0.00  0.00    +0.000 A 
ENDBRANCH   8  12
BRANCH   1  18
ATOM     17  C   UNL     1       3.453   2.055  17.678  0.00  0.00    +0.000 C 
ATOM     18  C   UNL     1       2.429   3.176  17.645  0.00  0.00    +0.000 C 
ENDBRANCH   1  18
BRANCH   6  19
ATOM     19  C   UNL     1       4.285   6.260  18.360  0.00  0.00    +0.000 C 
BRANCH  19  20
ATOM     20  O   UNL     1       4.870   5.471  19.408  0.00  0.00    +0.000 OA
ATOM     21  C   UNL     1       5.924   4.628  18.938  0.00  0.00    +0.000 C 
ENDBRANCH  19  20
ENDBRANCH   6  19
TORSDOF 4
ENDMDL
MODEL 2
REMARK VINA RESULT:      -5.9      3.999      6.125
REMARK  Name = 
REMARK  6 active torsions:
REMARK  status: ('A' for Active; 'I' for Inactive)
REMARK    1  A    between atoms: C_1  and  C_2
REMARK    2  A    between atoms: C_2  and  N_3
REMARK    3  A    between atoms: C_8  and  C_9
REMARK    4  A    between atoms: C_9  and  O_10
REMARK    5  A    between atoms: O_10  and  C_11
REMARK    6  A    between atoms: C_13  and  C_15
REMARK                            x       y       z     vdW  Elec       q    Type
REMARK                         _______ _______ _______ _____ _____    ______ ____
ROOT
ATOM      1  N   UNL     1       2.670   5.317  19.317  0.00  0.00    +0.000 N 
ATOM      2  N   UNL     1       2.047   6.470  19.638  0.00  0.00    +0.000 NA
ATOM      3  C   UNL     1       2.595   7.378  18.832  0.00  0.00    +0.000 A 
ATOM      4  C   UNL     1       3.565   6.810  17.996  0.00  0.00    +0.000 A 
ATOM      5  C   UNL     1       3.669   5.503  18.395  0.00  0.00    +0.000 A 
ATOM      6  C   UNL     1       4.644   4.487  17.896  0.00  0.00    +0.000 C 
ATOM      7  N   UNL     1       5.149   4.899  16.563  0.00  0.00    +0.000 N 
ATOM      8  C   UNL     1       5.711   3.861  15.801  0.00  0.00    +0.000 C 
ATOM      9  O   UNL     1       5.746   2.710  16.232  0.00  0.00    +0.000 OA
ATOM     10  C   UNL     1       5.192   6.321  16.163  0.00  0.00    +0.000 C 
ATOM     11  C   UNL     1       4.357   7.381  16.905  0.00  0.00    +0.000 C 
ENDROOT
BRANCH   8  12
ATOM     12  C   UNL     1       6.200   4.123  14.427  0.00  0.00    +0.000 A 
ATOM     13  C   UNL     1       5.750   3.628  13.153  0.00  0.00    +0.000 A 
ATOM     14  C   UNL     1       6.562   4.000  12.104  0.00  0.00    +0.000 A 
ATOM     15  S   UNL     1       7.771   5.093  12.596  0.00  0.00    +0.000 S 
ATOM     16  C   UNL     1       7.237   5.024  14.218  0.00  0.00    +0.000 A 
ENDBRANCH   8  12
BRANCH   1  18
ATOM     17  C   UNL     1       0.896   3.970  20.542  0.00  0.00    +0.000 C 
ATOM     18  C   UNL     1       2.308   4.090  19.995  0.00  0.00    +0.000 C 
ENDBRANCH   1  18
BRANCH   6  19
ATOM     19  C   UNL     1       5.807   4.255  18.903  0.00  0.00    +0.000 C 
BRANCH  19  20
ATOM     20  O   UNL     1       6.259   5.463  19.537  0.00  0.00    +0.000 OA
ATOM     21  C   UNL     1       7.584   5.826  19.142  0.00  0.00    +0.000 C 
ENDBRANCH  19  20
ENDBRANCH   6  19
TORSDOF 4
ENDMDL
MODEL 3
REMARK VINA RESULT:      -5.7      1.850      2.204
REMARK  Name = 
REMARK  6 active torsions:
REMARK  status: ('A' for Active; 'I' for Inactive)
REMARK    1  A    between atoms: C_1  and  C_2
REMARK    2  A    between atoms: C_2  and  N_3
REMARK    3  A    between atoms: C_8  and  C_9
REMARK    4  A    between atoms: C_9  and  O_10
REMARK    5  A    between atoms: O_10  and  C_11
REMARK    6  A    between atoms: C_13  and  C_15
REMARK                            x       y       z     vdW  Elec       q    Type
REMARK                         _______ _______ _______ _____ _____    ______ ____
ROOT
ATOM      1  N   UNL     1       3.973   3.878  17.340  0.00  0.00    +0.000 N 
ATOM      2  N   UNL     1       3.878   2.671  17.932  0.00  0.00    +0.000 NA
ATOM      3  C   UNL     1       3.292   2.920  19.102  0.00  0.00    +0.000 A 
ATOM      4  C   UNL     1       3.011   4.284  19.259  0.00  0.00    +0.000 A 
ATOM      5  C   UNL     1       3.549   4.896  18.157  0.00  0.00    +0.000 A 
ATOM      6  C   UNL     1       3.621   6.364  17.890  0.00  0.00    +0.000 C 
ATOM      7  N   UNL     1       2.593   7.064  18.701  0.00  0.00    +0.000 N 
ATOM      8  C   UNL     1       2.255   8.347  18.239  0.00  0.00    +0.000 C 
ATOM      9  O   UNL     1       2.776   8.810  17.227  0.00  0.00    +0.000 OA
ATOM     10  C   UNL     1       2.105   6.500  19.977  0.00  0.00    +0.000 C 
ATOM     11  C   UNL     1       2.308   5.012  20.317  0.00  0.00    +0.000 C 
ENDROOT
BRANCH   8  12
ATOM     12  C   UNL     1       1.199   9.131  18.922  0.00  0.00    +0.000 A 
ATOM     13  C   UNL     1       0.951   9.366  20.320  0.00  0.00    +0.000 A 
ATOM     14  C   UNL     1      -0.225  10.040  20.561  0.00  0.00    +0.000 A 
ATOM     15  S   UNL     1      -0.962  10.563  19.118  0.00  0.00    +0.000 S 
ATOM     16  C   UNL     1       0.266   9.840  18.176  0.00  0.00    +0.000 A 
ENDBRANCH   8  12
BRANCH   1  18
ATOM     17  C   UNL     1       6.046   3.731  15.876  0.00  0.00    +0.000 C 
ATOM     18  C   UNL     1       4.556   3.989  16.019  0.00  0.00    +0.000 C 
ENDBRANCH   1  18
BRANCH   6  19
ATOM     19  C   UNL     1       5.044   6.933  18.152  0.00  0.00    +0.000 C 
BRANCH  19  20
ATOM     20  O   UNL     1       5.845   7.030  16.964  0.00  0.00    +0.000 OA
ATOM     21  C   UNL     1       7.246   6.960  17.239  0.00  0.00    +0.000 C 
ENDBRANCH  19  20
ENDBRANCH   6  19
TORSDOF 4
ENDMDL
MODEL 4
REMARK VINA RESULT:      -5.6      1.540      1.940
REMARK  Name = 
REMARK  6 active torsions:
REMARK  status: ('A' for Active; 'I' for Inactive)
REMARK    1  A    between atoms: C_1  and  C_2
REMARK    2  A    between atoms: C_2  and  N_3
REMARK    3  A    between atoms: C_8  and  C_9
REMARK    4  A    between atoms: C_9  and  O_10
REMARK    5  A    between atoms: O_10  and  C_11
REMARK    6  A    between atoms: C_13  and  C_15
REMARK                            x       y       z     vdW  Elec       q    Type
REMARK                         _______ _______ _______ _____ _____    ______ ____
ROOT
ATOM      1  N   UNL     1       3.649   3.385  17.689  0.00  0.00    +0.000 N 
ATOM      2  N   UNL     1       3.437   2.192  18.282  0.00  0.00    +0.000 NA
ATOM      3  C   UNL     1       2.871   2.498  19.449  0.00  0.00    +0.000 A 
ATOM      4  C   UNL     1       2.721   3.882  19.604  0.00  0.00    +0.000 A 
ATOM      5  C   UNL     1       3.320   4.439  18.504  0.00  0.00    +0.000 A 
ATOM      6  C   UNL     1       3.532   5.893  18.236  0.00  0.00    +0.000 C 
ATOM      7  N   UNL     1       2.571   6.689  19.041  0.00  0.00    +0.000 N 
ATOM      8  C   UNL     1       2.359   7.997  18.577  0.00  0.00    +0.000 C 
ATOM      9  O   UNL     1       2.927   8.408  17.567  0.00  0.00    +0.000 OA
ATOM     10  C   UNL     1       2.025   6.175  20.316  0.00  0.00    +0.000 C 
ATOM     11  C   UNL     1       2.084   4.675  20.658  0.00  0.00    +0.000 C 
ENDROOT
BRANCH   8  12
ATOM     12  C   UNL     1       1.379   8.880  19.254  0.00  0.00    +0.000 A 
ATOM     13  C   UNL     1       1.061   9.044  20.648  0.00  0.00    +0.000 A 
ATOM     14  C   UNL     1      -0.020   9.869  20.868  0.00  0.00    +0.000 A 
ATOM     15  S   UNL     1      -0.559  10.604  19.430  0.00  0.00    +0.000 S 
ATOM     16  C   UNL     1       0.620   9.776  18.512  0.00  0.00    +0.000 A 
ENDBRANCH   8  12
BRANCH   1  18
ATOM     17  C   UNL     1       5.740   3.698  16.278  0.00  0.00    +0.000 C 
ATOM     18  C   UNL     1       4.246   3.438  16.371  0.00  0.00    +0.000 C 
ENDBRANCH   1  18
BRANCH   6  19
ATOM     19  C   UNL     1       5.002   6.325  18.505  0.00  0.00    +0.000 C 
BRANCH  19  20
ATOM     20  O   UNL     1       5.665   5.506  19.482  0.00  0.00    +0.000 OA
ATOM     21  C   UNL     1       7.085   5.503  19.321  0.00  0.00    +0.000 C 
ENDBRANCH  19  20
ENDBRANCH   6  19
TORSDOF 4
ENDMDL
MODEL 5
REMARK VINA RESULT:      -5.6      1.131      1.409
REMARK  Name = 
REMARK  6 active torsions:
REMARK  status: ('A' for Active; 'I' for Inactive)
REMARK    1  A    between atoms: C_1  and  C_2
REMARK    2  A    between atoms: C_2  and  N_3
REMARK    3  A    between atoms: C_8  and  C_9
REMARK    4  A    between atoms: C_9  and  O_10
REMARK    5  A    between atoms: O_10  and  C_11
REMARK    6  A    between atoms: C_13  and  C_15
REMARK                            x       y       z     vdW  Elec       q    Type
REMARK                         _______ _______ _______ _____ _____    ______ ____
ROOT
ATOM      1  N   UNL     1       2.359   4.222  18.687  0.00  0.00    +0.000 N 
ATOM      2  N   UNL     1       2.129   3.332  19.674  0.00  0.00    +0.000 NA
ATOM      3  C   UNL     1       1.826   4.083  20.732  0.00  0.00    +0.000 A 
ATOM      4  C   UNL     1       1.861   5.449  20.425  0.00  0.00    +0.000 A 
ATOM      5  C   UNL     1       2.305   5.520  19.130  0.00  0.00    +0.000 A 
ATOM      6  C   UNL     1       2.624   6.756  18.356  0.00  0.00    +0.000 C 
ATOM      7  N   UNL     1       1.924   7.914  18.964  0.00  0.00    +0.000 N 
ATOM      8  C   UNL     1       1.776   9.024  18.115  0.00  0.00    +0.000 C 
ATOM      9  O   UNL     1       2.189   8.992  16.958  0.00  0.00    +0.000 OA
ATOM     10  C   UNL     1       1.569   7.931  20.400  0.00  0.00    +0.000 C 
ATOM     11  C   UNL     1       1.523   6.629  21.222  0.00  0.00    +0.000 C 
ENDROOT
BRANCH   8  12
ATOM     12  C   UNL     1       1.043  10.226  18.579  0.00  0.00    +0.000 A 
ATOM     13  C   UNL     1      -0.341  10.413  18.926  0.00  0.00    +0.000 A 
ATOM     14  C   UNL     1      -0.669  11.728  19.176  0.00  0.00    +0.000 A 
ATOM     15  S   UNL     1       0.706  12.733  19.179  0.00  0.00    +0.000 S 
ATOM     16  C   UNL     1       1.725  11.417  18.793  0.00  0.00    +0.000 A 
ENDBRANCH   8  12
BRANCH   1  18
ATOM     17  C   UNL     1       4.143   3.335  17.108  0.00  0.00    +0.000 C 
ATOM     18  C   UNL     1       2.705   3.752  17.361  0.00  0.00    +0.000 C 
ENDBRANCH   1  18
BRANCH   6  19
ATOM     19  C   UNL     1       4.157   7.000  18.257  0.00  0.00    +0.000 C 
BRANCH  19  20
ATOM     20  O   UNL     1       4.680   6.801  16.934  0.00  0.00    +0.000 OA
ATOM     21  C   UNL     1       6.093   6.582  16.930  0.00  0.00    +0.000 C 
ENDBRANCH  19  20
ENDBRANCH   6  19
TORSDOF 4
ENDMDL
MODEL 6
REMARK VINA RESULT:      -5.5      3.065      6.609
REMARK  Name = 
REMARK  6 active torsions:
REMARK  status: ('A' for Active; 'I' for Inactive)
REMARK    1  A    between atoms: C_1  and  C_2
REMARK    2  A    between atoms: C_2  and  N_3
REMARK    3  A    between atoms: C_8  and  C_9
REMARK    4  A    between atoms: C_9  and  O_10
REMARK    5  A    between atoms: O_10  and  C_11
REMARK    6  A    between atoms: C_13  and  C_15
REMARK                            x       y       z     vdW  Elec       q    Type
REMARK                         _______ _______ _______ _____ _____    ______ ____
ROOT
ATOM      1  N   UNL     1       0.844  11.725  20.424  0.00  0.00    +0.000 N 
ATOM      2  N   UNL     1       0.322  12.030  21.629  0.00  0.00    +0.000 NA
ATOM      3  C   UNL     1       0.127  10.849  22.215  0.00  0.00    +0.000 A 
ATOM      4  C   UNL     1       0.524   9.791  21.388  0.00  0.00    +0.000 A 
ATOM      5  C   UNL     1       0.887  10.372  20.201  0.00  0.00    +0.000 A 
ATOM      6  C   UNL     1       1.285   9.672  18.943  0.00  0.00    +0.000 C 
ATOM      7  N   UNL     1       1.738   8.296  19.264  0.00  0.00    +0.000 N 
ATOM      8  C   UNL     1       2.533   7.693  18.276  0.00  0.00    +0.000 C 
ATOM      9  O   UNL     1       2.826   8.298  17.247  0.00  0.00    +0.000 OA
ATOM     10  C   UNL     1       1.241   7.583  20.461  0.00  0.00    +0.000 C 
ATOM     11  C   UNL     1       0.583   8.347  21.625  0.00  0.00    +0.000 C 
ENDROOT
BRANCH   8  12
ATOM     12  C   UNL     1       3.101   6.342  18.496  0.00  0.00    +0.000 A 
ATOM     13  C   UNL     1       4.217   5.904  19.292  0.00  0.00    +0.000 A 
ATOM     14  C   UNL     1       4.519   4.570  19.123  0.00  0.00    +0.000 A 
ATOM     15  S   UNL     1       3.365   3.778  18.152  0.00  0.00    +0.000 S 
ATOM     16  C   UNL     1       2.497   5.231  17.918  0.00  0.00    +0.000 A 
ENDBRANCH   8  12
BRANCH   1  18
ATOM     17  C   UNL     1       0.089  13.443  18.709  0.00  0.00    +0.000 C 
ATOM     18  C   UNL     1       1.203  12.786  19.505  0.00  0.00    +0.000 C 
ENDBRANCH   1  18
BRANCH   6  19
ATOM     19  C   UNL     1       0.137   9.667  17.893  0.00  0.00    +0.000 C 
BRANCH  19  20
ATOM     20  O   UNL     1      -1.132  10.063  18.437  0.00  0.00    +0.000 OA
ATOM     21  C   UNL     1      -2.195   9.954  17.487  0.00  0.00    +0.000 C 
ENDBRANCH  19  20
ENDBRANCH   6  19
TORSDOF 4
ENDMDL
MODEL 7
REMARK VINA RESULT:      -5.5      4.906      6.924
REMARK  Name = 
REMARK  6 active torsions:
REMARK  status: ('A' for Active; 'I' for Inactive)
REMARK    1  A    between atoms: C_1  and  C_2
REMARK    2  A    between atoms: C_2  and  N_3
REMARK    3  A    between atoms: C_8  and  C_9
REMARK    4  A    between atoms: C_9  and  O_10
REMARK    5  A    between atoms: O_10  and  C_11
REMARK    6  A    between atoms: C_13  and  C_15
REMARK                            x       y       z     vdW  Elec       q    Type
REMARK                         _______ _______ _______ _____ _____    ______ ____
ROOT
ATOM      1  N   UNL     1       0.947   9.397  19.890  0.00  0.00    +0.000 N 
ATOM      2  N   UNL     1       1.495   8.325  20.499  0.00  0.00    +0.000 NA
ATOM      3  C   UNL     1       1.109   8.433  21.770  0.00  0.00    +0.000 A 
ATOM      4  C   UNL     1       0.315   9.568  21.975  0.00  0.00    +0.000 A 
ATOM      5  C   UNL     1       0.307  10.230  20.774  0.00  0.00    +0.000 A 
ATOM      6  C   UNL     1      -0.306  11.560  20.485  0.00  0.00    +0.000 C 
ATOM      7  N   UNL     1      -1.346  11.856  21.501  0.00  0.00    +0.000 N 
ATOM      8  C   UNL     1      -2.282  12.831  21.118  0.00  0.00    +0.000 C 
ATOM      9  O   UNL     1      -2.223  13.360  20.010  0.00  0.00    +0.000 OA
ATOM     10  C   UNL     1      -1.279  11.278  22.861  0.00  0.00    +0.000 C 
ATOM     11  C   UNL     1      -0.401  10.049  23.158  0.00  0.00    +0.000 C 
ENDROOT
BRANCH   8  12
ATOM     12  C   UNL     1      -3.408  13.179  22.016  0.00  0.00    +0.000 A 
ATOM     13  C   UNL     1      -3.461  14.019  23.183  0.00  0.00    +0.000 A 
ATOM     14  C   UNL     1      -4.675  13.976  23.834  0.00  0.00    +0.000 A 
ATOM     15  S   UNL     1      -5.827  13.076  22.962  0.00  0.00    +0.000 S 
ATOM     16  C   UNL     1      -4.685  12.703  21.748  0.00  0.00    +0.000 A 
ENDBRANCH   8  12
BRANCH   1  18
ATOM     17  C   UNL     1       2.077   8.644  17.741  0.00  0.00    +0.000 C 
ATOM     18  C   UNL     1       1.147   9.599  18.470  0.00  0.00    +0.000 C 
ENDBRANCH   1  18
BRANCH   6  19
ATOM     19  C   UNL     1       0.762  12.688  20.411  0.00  0.00    +0.000 C 
BRANCH  19  20
ATOM     20  O   UNL     1       1.169  13.171  21.702  0.00  0.00    +0.000 OA
ATOM     21  C   UNL     1       1.046  14.590  21.821  0.00  0.00    +0.000 C 
ENDBRANCH  19  20
ENDBRANCH   6  19
TORSDOF 4
ENDMDL
MODEL 8
REMARK VINA RESULT:      -5.5      2.382      2.913
REMARK  Name = 
REMARK  6 active torsions:
REMARK  status: ('A' for Active; 'I' for Inactive)
REMARK    1  A    between atoms: C_1  and  C_2
REMARK    2  A    between atoms: C_2  and  N_3
REMARK    3  A    between atoms: C_8  and  C_9
REMARK    4  A    between atoms: C_9  and  O_10
REMARK    5  A    between atoms: O_10  and  C_11
REMARK    6  A    between atoms: C_13  and  C_15
REMARK                            x       y       z     vdW  Elec       q    Type
REMARK                         _______ _______ _______ _____ _____    ______ ____
ROOT
ATOM      1  N   UNL     1       3.427   3.406  17.645  0.00  0.00    +0.000 N 
ATOM      2  N   UNL     1       3.387   2.086  17.920  0.00  0.00    +0.000 NA
ATOM      3  C   UNL     1       3.002   2.025  19.194  0.00  0.00    +0.000 A 
ATOM      4  C   UNL     1       2.795   3.301  19.734  0.00  0.00    +0.000 A 
ATOM      5  C   UNL     1       3.172   4.178  18.750  0.00  0.00    +0.000 A 
ATOM      6  C   UNL     1       3.249   5.666  18.855  0.00  0.00    +0.000 C 
ATOM      7  N   UNL     1       2.387   6.128  19.971  0.00  0.00    +0.000 N 
ATOM      8  C   UNL     1       2.023   7.483  19.909  0.00  0.00    +0.000 C 
ATOM      9  O   UNL     1       2.393   8.194  18.976  0.00  0.00    +0.000 OA
ATOM     10  C   UNL     1       2.088   5.253  21.125  0.00  0.00    +0.000 C 
ATOM     11  C   UNL     1       2.292   3.729  21.040  0.00  0.00    +0.000 C 
ENDROOT
BRANCH   8  12
ATOM     12  C   UNL     1       1.115   8.060  20.929  0.00  0.00    +0.000 A 
ATOM     13  C   UNL     1      -0.305   7.923  21.117  0.00  0.00    +0.000 A 
ATOM     14  C   UNL     1      -0.807   8.739  22.107  0.00  0.00    +0.000 A 
ATOM     15  S   UNL     1       0.433   9.545  22.951  0.00  0.00    +0.000 S 
ATOM     16  C   UNL     1       1.630   8.843  21.955  0.00  0.00    +0.000 A 
ENDBRANCH   8  12
BRANCH   1  18
ATOM     17  C   UNL     1       5.268   4.110  16.040  0.00  0.00    +0.000 C 
ATOM     18  C   UNL     1       3.797   3.853  16.318  0.00  0.00    +0.000 C 
ENDBRANCH   1  18
BRANCH   6  19
ATOM     19  C   UNL     1       4.715   6.161  19.019  0.00  0.00    +0.000 C 
BRANCH  19  20
ATOM     20  O   UNL     1       5.577   5.190  19.632  0.00  0.00    +0.000 OA
ATOM     21  C   UNL     1       6.960   5.438  19.365  0.00  0.00    +0.000 C 
ENDBRANCH  19  20
ENDBRANCH   6  19
TORSDOF 4
ENDMDL
MODEL 9
REMARK VINA RESULT:      -5.4      4.011      6.143
REMARK  Name = 
REMARK  6 active torsions:
REMARK  status: ('A' for Active; 'I' for Inactive)
REMARK    1  A    between atoms: C_1  and  C_2
REMARK    2  A    between atoms: C_2  and  N_3
REMARK    3  A    between atoms: C_8  and  C_9
REMARK    4  A    between atoms: C_9  and  O_10
REMARK    5  A    between atoms: O_10  and  C_11
REMARK    6  A    between atoms: C_13  and  C_15
REMARK                            x       y       z     vdW  Elec       q    Type
REMARK                         _______ _______ _______ _____ _____    ______ ____
ROOT
ATOM      1  N   UNL     1       2.337   5.355  19.115  0.00  0.00    +0.000 N 
ATOM      2  N   UNL     1       1.792   6.542  19.453  0.00  0.00    +0.000 NA
ATOM      3  C   UNL     1       2.479   7.436  18.744  0.00  0.00    +0.000 A 
ATOM      4  C   UNL     1       3.461   6.825  17.954  0.00  0.00    +0.000 A 
ATOM      5  C   UNL     1       3.420   5.495  18.284  0.00  0.00    +0.000 A 
ATOM      6  C   UNL     1       4.341   4.422  17.805  0.00  0.00    +0.000 C 
ATOM      7  N   UNL     1       4.985   4.852  16.539  0.00  0.00    +0.000 N 
ATOM      8  C   UNL     1       5.516   3.807  15.765  0.00  0.00    +0.000 C 
ATOM      9  O   UNL     1       5.416   2.638  16.132  0.00  0.00    +0.000 OA
ATOM     10  C   UNL     1       5.183   6.283  16.225  0.00  0.00    +0.000 C 
ATOM     11  C   UNL     1       4.385   7.376  16.960  0.00  0.00    +0.000 C 
ENDROOT
BRANCH   8  12
ATOM     12  C   UNL     1       6.135   4.092  14.449  0.00  0.00    +0.000 A 
ATOM     13  C   UNL     1       5.793   3.642  13.126  0.00  0.00    +0.000 A 
ATOM     14  C   UNL     1       6.706   4.019  12.167  0.00  0.00    +0.000 A 
ATOM     15  S   UNL     1       7.890   5.068  12.798  0.00  0.00    +0.000 S 
ATOM     16  C   UNL     1       7.207   4.971  14.361  0.00  0.00    +0.000 A 
ENDBRANCH   8  12
BRANCH   1  18
ATOM     17  C   UNL     1       1.828   4.002  21.207  0.00  0.00    +0.000 C 
ATOM     18  C   UNL     1       1.817   4.133  19.693  0.00  0.00    +0.000 C 
ENDBRANCH   1  18
BRANCH   6  19
ATOM     19  C   UNL     1       5.394   4.036  18.883  0.00  0.00    +0.000 C 
BRANCH  19  20
ATOM     20  O   UNL     1       4.931   3.027  19.794  0.00  0.00    +0.000 OA
ATOM     21  C   UNL     1       4.233   1.969  19.133  0.00  0.00    +0.000 C 
ENDBRANCH  19  20
ENDBRANCH   6  19
TORSDOF 4
ENDMDL
