MODEL 1
REMARK VINA RESULT:      -8.2      0.000      0.000
REMARK  Name = 
REMARK  7 active torsions:
REMARK  status: ('A' for Active; 'I' for Inactive)
REMARK    1  A    between atoms: C_1  and  C_2
REMARK    2  A    between atoms: C_6  and  C_7
REMARK    3  A    between atoms: C_9  and  C_10
REMARK    4  A    between atoms: C_10  and  C_12
REMARK    5  A    between atoms: C_12  and  S_13
REMARK    6  A    between atoms: S_13  and  C_14
REMARK    7  A    between atoms: C_24  and  C_25
REMARK                            x       y       z     vdW  Elec       q    Type
REMARK                         _______ _______ _______ _____ _____    ______ ____
ROOT
ATOM      1  C   UNL     1       2.616   5.236  18.582  0.00  0.00    +0.000 C 
ATOM      2  O   UNL     1       2.301   4.686  17.525  0.00  0.00    +0.000 OA
ENDROOT
BRANCH   1  11
ATOM      3  C   UNL     1      -1.012  12.211  22.180  0.00  0.00    +0.000 C 
ATOM      4  C   UNL     1      -0.191  11.093  21.687  0.00  0.00    +0.000 A 
ATOM      5  C   UNL     1       0.132  10.613  20.439  0.00  0.00    +0.000 A 
ATOM      6  C   UNL     1       0.940   9.490  20.705  0.00  0.00    +0.000 A 
ATOM      7  N   UNL     1       1.561   8.589  19.774  0.00  0.00    +0.000 N 
ATOM      8  C   UNL     1       2.005   8.902  18.488  0.00  0.00    +0.000 A 
ATOM      9  C   UNL     1       2.063  10.270  17.897  0.00  0.00    +0.000 C 
ATOM     10  C   UNL     1       2.453   7.738  17.891  0.00  0.00    +0.000 A 
ATOM     11  C   UNL     1       2.312   6.665  18.807  0.00  0.00    +0.000 A 
ATOM     12  C   UNL     1       1.803   7.225  19.978  0.00  0.00    +0.000 A 
ATOM     13  C   UNL     1       1.446   6.544  21.268  0.00  0.00    +0.000 C 
ATOM     14  N   UNL     1       1.090   9.290  22.018  0.00  0.00    +0.000 NA
ATOM     15  O   UNL     1       0.395  10.315  22.633  0.00  0.00    +0.000 OA
ENDBRANCH   1  11
BRANCH   1  16
ATOM     16  C   UNL     1       3.255   4.440  19.713  0.00  0.00    +0.000 C 
BRANCH  16  17
ATOM     17  S   UNL     1       4.473   3.226  19.090  0.00  0.00    +0.000 S 
BRANCH  17  18
ATOM     18  C   UNL     1       5.715   4.344  18.430  0.00  0.00    +0.000 A 
ATOM     19  N   UNL     1       6.405   5.029  19.366  0.00  0.00    +0.000 NA
ATOM     20  C   UNL     1       7.371   5.828  18.909  0.00  0.00    +0.000 A 
ATOM     21  N   UNL     1       7.715   5.997  17.630  0.00  0.00    +0.000 NA
ATOM     22  C   UNL     1       7.021   5.310  16.717  0.00  0.00    +0.000 A 
ATOM     23  C   UNL     1       7.362   5.467  15.380  0.00  0.00    +0.000 A 
ATOM     24  C   UNL     1       6.691   4.792  14.358  0.00  0.00    +0.000 A 
ATOM     25  C   UNL     1       5.646   3.935  14.672  0.00  0.00    +0.000 A 
ATOM     26  C   UNL     1       5.286   3.757  16.007  0.00  0.00    +0.000 A 
ATOM     27  C   UNL     1       5.972   4.439  17.050  0.00  0.00    +0.000 A 
ENDBRANCH  17  18
ENDBRANCH  16  17
ENDBRANCH   1  16
TORSDOF 4
ENDMDL
MODEL 2
REMARK VINA RESULT:      -8.2      1.618      2.328
REMARK  Name = 
REMARK  7 active torsions:
REMARK  status: ('A' for Active; 'I' for Inactive)
REMARK    1  A    between atoms: C_1  and  C_2
REMARK    2  A    between atoms: C_6  and  C_7
REMARK    3  A    between atoms: C_9  and  C_10
REMARK    4  A    between atoms: C_10  and  C_12
REMARK    5  A    between atoms: C_12  and  S_13
REMARK    6  A    between atoms: S_13  and  C_14
REMARK    7  A    between atoms: C_24  and  C_25
REMARK                            x       y       z     vdW  Elec       q    Type
REMARK                         _______ _______ _______ _____ _____    ______ ____
ROOT
ATOM      1  C   UNL     1       2.433   6.420  19.237  0.00  0.00    +0.000 C 
ATOM      2  O   UNL     1       2.249   6.138  18.052  0.00  0.00    +0.000 OA
ENDROOT
BRANCH   1  11
ATOM      3  C   UNL     1       0.391  14.743  20.386  0.00  0.00    +0.000 C 
ATOM      4  C   UNL     1       0.512  13.304  20.097  0.00  0.00    +0.000 A 
ATOM      5  C   UNL     1       0.821  12.194  20.847  0.00  0.00    +0.000 A 
ATOM      6  C   UNL     1       0.785  11.134  19.919  0.00  0.00    +0.000 A 
ATOM      7  N   UNL     1       1.035   9.738  20.140  0.00  0.00    +0.000 N 
ATOM      8  C   UNL     1       0.795   9.029  21.318  0.00  0.00    +0.000 A 
ATOM      9  C   UNL     1       0.086   9.554  22.520  0.00  0.00    +0.000 C 
ATOM     10  C   UNL     1       1.258   7.737  21.146  0.00  0.00    +0.000 A 
ATOM     11  C   UNL     1       1.787   7.606  19.838  0.00  0.00    +0.000 A 
ATOM     12  C   UNL     1       1.594   8.842  19.221  0.00  0.00    +0.000 A 
ATOM     13  C   UNL     1       1.979   9.270  17.834  0.00  0.00    +0.000 C 
ATOM     14  N   UNL     1       0.488  11.567  18.689  0.00  0.00    +0.000 NA
ATOM     15  O   UNL     1       0.295  12.930  18.809  0.00  0.00    +0.000 OA
ENDBRANCH   1  11
BRANCH   1  16
ATOM     16  C   UNL     1       3.266   5.512  20.133  0.00  0.00    +0.000 C 
BRANCH  16  17
ATOM     17  S   UNL     1       3.861   4.031  19.239  0.00  0.00    +0.000 S 
BRANCH  17  18
ATOM     18  C   UNL     1       5.413   4.662  18.591  0.00  0.00    +0.000 A 
ATOM     19  N   UNL     1       6.261   5.132  19.530  0.00  0.00    +0.000 NA
ATOM     20  C   UNL     1       7.444   5.559  19.085  0.00  0.00    +0.000 A 
ATOM     21  N   UNL     1       7.859   5.551  17.815  0.00  0.00    +0.000 NA
ATOM     22  C   UNL     1       7.005   5.080  16.900  0.00  0.00    +0.000 A 
ATOM     23  C   UNL     1       7.416   5.058  15.573  0.00  0.00    +0.000 A 
ATOM     24  C   UNL     1       6.592   4.587  14.549  0.00  0.00    +0.000 A 
ATOM     25  C   UNL     1       5.319   4.124  14.850  0.00  0.00    +0.000 A 
ATOM     26  C   UNL     1       4.884   4.132  16.175  0.00  0.00    +0.000 A 
ATOM     27  C   UNL     1       5.725   4.607  17.220  0.00  0.00    +0.000 A 
ENDBRANCH  17  18
ENDBRANCH  16  17
ENDBRANCH   1  16
TORSDOF 4
ENDMDL
MODEL 3
REMARK VINA RESULT:      -8.1      0.904      1.047
REMARK  Name = 
REMARK  7 active torsions:
REMARK  status: ('A' for Active; 'I' for Inactive)
REMARK    1  A    between atoms: C_1  and  C_2
REMARK    2  A    between atoms: C_6  and  C_7
REMARK    3  A    between atoms: C_9  and  C_10
REMARK    4  A    between atoms: C_10  and  C_12
REMARK    5  A    between atoms: C_12  and  S_13
REMARK    6  A    between atoms: S_13  and  C_14
REMARK    7  A    between atoms: C_24  and  C_25
REMARK                            x       y       z     vdW  Elec       q    Type
REMARK                         _______ _______ _______ _____ _____    ______ ____
ROOT
ATOM      1  C   UNL     1       2.493   6.544  18.797  0.00  0.00    +0.000 C 
ATOM      2  O   UNL     1       2.310   6.054  17.681  0.00  0.00    +0.000 OA
ENDROOT
BRANCH   1  11
ATOM      3  C   UNL     1      -1.969  12.831  22.711  0.00  0.00    +0.000 C 
ATOM      4  C   UNL     1      -1.018  11.843  22.175  0.00  0.00    +0.000 A 
ATOM      5  C   UNL     1      -0.610  11.487  20.911  0.00  0.00    +0.000 A 
ATOM      6  C   UNL     1       0.308  10.440  21.132  0.00  0.00    +0.000 A 
ATOM      7  N   UNL     1       1.048   9.677  20.166  0.00  0.00    +0.000 N 
ATOM      8  C   UNL     1       1.492  10.122  18.921  0.00  0.00    +0.000 A 
ATOM      9  C   UNL     1       1.418  11.526  18.422  0.00  0.00    +0.000 C 
ATOM     10  C   UNL     1       2.080   9.056  18.266  0.00  0.00    +0.000 A 
ATOM     11  C   UNL     1       2.030   7.913  19.104  0.00  0.00    +0.000 A 
ATOM     12  C   UNL     1       1.431   8.335  20.291  0.00  0.00    +0.000 A 
ATOM     13  C   UNL     1       1.113   7.533  21.519  0.00  0.00    +0.000 C 
ATOM     14  N   UNL     1       0.441  10.168  22.434  0.00  0.00    +0.000 NA
ATOM     15  O   UNL     1      -0.378  11.068  23.089  0.00  0.00    +0.000 OA
ENDBRANCH   1  11
BRANCH   1  16
ATOM     16  C   UNL     1       3.131   5.724  19.912  0.00  0.00    +0.000 C 
BRANCH  16  17
ATOM     17  S   UNL     1       3.828   4.151  19.289  0.00  0.00    +0.000 S 
BRANCH  17  18
ATOM     18  C   UNL     1       5.389   4.745  18.627  0.00  0.00    +0.000 A 
ATOM     19  N   UNL     1       6.235   5.244  19.553  0.00  0.00    +0.000 NA
ATOM     20  C   UNL     1       7.424   5.645  19.100  0.00  0.00    +0.000 A 
ATOM     21  N   UNL     1       7.847   5.585  17.834  0.00  0.00    +0.000 NA
ATOM     22  C   UNL     1       6.995   5.087  16.932  0.00  0.00    +0.000 A 
ATOM     23  C   UNL     1       7.413   5.012  15.609  0.00  0.00    +0.000 A 
ATOM     24  C   UNL     1       6.591   4.508  14.598  0.00  0.00    +0.000 A 
ATOM     25  C   UNL     1       5.313   4.068  14.909  0.00  0.00    +0.000 A 
ATOM     26  C   UNL     1       4.871   4.129  16.229  0.00  0.00    +0.000 A 
ATOM     27  C   UNL     1       5.708   4.636  17.261  0.00  0.00    +0.000 A 
ENDBRANCH  17  18
ENDBRANCH  16  17
ENDBRANCH   1  16
TORSDOF 4
ENDMDL
MODEL 4
REMARK VINA RESULT:      -8.0      1.096      1.513
REMARK  Name = 
REMARK  7 active torsions:
REMARK  status: ('A' for Active; 'I' for Inactive)
REMARK    1  A    between atoms: C_1  and  C_2
REMARK    2  A    between atoms: C_6  and  C_7
REMARK    3  A    between atoms: C_9  and  C_10
REMARK    4  A    between atoms: C_10  and  C_12
REMARK    5  A    between atoms: C_12  and  S_13
REMARK    6  A    between atoms: S_13  and  C_14
REMARK    7  A    between atoms: C_24  and  C_25
REMARK                            x       y       z     vdW  Elec       q    Type
REMARK                         _______ _______ _______ _____ _____    ______ ____
ROOT
ATOM      1  C   UNL     1       2.363   5.461  18.083  0.00  0.00    +0.000 C 
ATOM      2  O   UNL     1       1.454   4.762  17.634  0.00  0.00    +0.000 OA
ENDROOT
BRANCH   1  11
ATOM      3  C   UNL     1      -0.911  11.898  22.837  0.00  0.00    +0.000 C 
ATOM      4  C   UNL     1      -0.142  10.853  22.142  0.00  0.00    +0.000 A 
ATOM      5  C   UNL     1       0.096  10.549  20.822  0.00  0.00    +0.000 A 
ATOM      6  C   UNL     1       0.898   9.391  20.878  0.00  0.00    +0.000 A 
ATOM      7  N   UNL     1       1.444   8.624  19.794  0.00  0.00    +0.000 N 
ATOM      8  C   UNL     1       1.816   9.110  18.540  0.00  0.00    +0.000 A 
ATOM      9  C   UNL     1       1.865  10.547  18.143  0.00  0.00    +0.000 C 
ATOM     10  C   UNL     1       2.206   8.037  17.760  0.00  0.00    +0.000 A 
ATOM     11  C   UNL     1       2.100   6.847  18.524  0.00  0.00    +0.000 A 
ATOM     12  C   UNL     1       1.673   7.243  19.791  0.00  0.00    +0.000 A 
ATOM     13  C   UNL     1       1.381   6.391  20.993  0.00  0.00    +0.000 C 
ATOM     14  N   UNL     1       1.122   9.008  22.139  0.00  0.00    +0.000 NA
ATOM     15  O   UNL     1       0.485   9.943  22.933  0.00  0.00    +0.000 OA
ENDBRANCH   1  11
BRANCH   1  16
ATOM     16  C   UNL     1       3.763   4.891  18.270  0.00  0.00    +0.000 C 
BRANCH  16  17
ATOM     17  S   UNL     1       4.187   3.678  16.967  0.00  0.00    +0.000 S 
BRANCH  17  18
ATOM     18  C   UNL     1       5.586   4.514  16.210  0.00  0.00    +0.000 A 
ATOM     19  N   UNL     1       6.298   5.289  17.054  0.00  0.00    +0.000 NA
ATOM     20  C   UNL     1       7.374   5.881  16.534  0.00  0.00    +0.000 A 
ATOM     21  N   UNL     1       7.807   5.766  15.276  0.00  0.00    +0.000 NA
ATOM     22  C   UNL     1       7.089   4.992  14.454  0.00  0.00    +0.000 A 
ATOM     23  C   UNL     1       7.521   4.854  13.141  0.00  0.00    +0.000 A 
ATOM     24  C   UNL     1       6.834   4.069  12.212  0.00  0.00    +0.000 A 
ATOM     25  C   UNL     1       5.680   3.403  12.598  0.00  0.00    +0.000 A 
ATOM     26  C   UNL     1       5.227   3.522  13.911  0.00  0.00    +0.000 A 
ATOM     27  C   UNL     1       5.929   4.316  14.860  0.00  0.00    +0.000 A 
ENDBRANCH  17  18
ENDBRANCH  16  17
ENDBRANCH   1  16
TORSDOF 4
ENDMDL
MODEL 5
REMARK VINA RESULT:      -7.9      2.267      3.895
REMARK  Name = 
REMARK  7 active torsions:
REMARK  status: ('A' for Active; 'I' for Inactive)
REMARK    1  A    between atoms: C_1  and  C_2
REMARK    2  A    between atoms: C_6  and  C_7
REMARK    3  A    between atoms: C_9  and  C_10
REMARK    4  A    between atoms: C_10  and  C_12
REMARK    5  A    between atoms: C_12  and  S_13
REMARK    6  A    between atoms: S_13  and  C_14
REMARK    7  A    between atoms: C_24  and  C_25
REMARK                            x       y       z     vdW  Elec       q    Type
REMARK                         _______ _______ _______ _____ _____    ______ ____
ROOT
ATOM      1  C   UNL     1       2.584   7.074  17.920  0.00  0.00    +0.000 C 
ATOM      2  O   UNL     1       1.836   6.109  17.761  0.00  0.00    +0.000 OA
ENDROOT
BRANCH   1  11
ATOM      3  C   UNL     1      -1.818  12.261  23.257  0.00  0.00    +0.000 C 
ATOM      4  C   UNL     1      -0.869  11.452  22.474  0.00  0.00    +0.000 A 
ATOM      5  C   UNL     1      -0.573  11.343  21.135  0.00  0.00    +0.000 A 
ATOM      6  C   UNL     1       0.422  10.347  21.086  0.00  0.00    +0.000 A 
ATOM      7  N   UNL     1       1.103   9.815  19.939  0.00  0.00    +0.000 N 
ATOM      8  C   UNL     1       1.390  10.494  18.755  0.00  0.00    +0.000 A 
ATOM      9  C   UNL     1       1.182  11.952  18.516  0.00  0.00    +0.000 C 
ATOM     10  C   UNL     1       1.970   9.601  17.873  0.00  0.00    +0.000 A 
ATOM     11  C   UNL     1       2.074   8.334  18.501  0.00  0.00    +0.000 A 
ATOM     12  C   UNL     1       1.576   8.504  19.793  0.00  0.00    +0.000 A 
ATOM     13  C   UNL     1       1.435   7.487  20.887  0.00  0.00    +0.000 C 
ATOM     14  N   UNL     1       0.705   9.872  22.303  0.00  0.00    +0.000 NA
ATOM     15  O   UNL     1      -0.094  10.586  23.177  0.00  0.00    +0.000 OA
ENDBRANCH   1  11
BRANCH   1  16
ATOM     16  C   UNL     1       4.069   6.969  17.597  0.00  0.00    +0.000 C 
BRANCH  16  17
ATOM     17  S   UNL     1       4.955   5.908  18.795  0.00  0.00    +0.000 S 
BRANCH  17  18
ATOM     18  C   UNL     1       4.091   4.355  18.531  0.00  0.00    +0.000 A 
ATOM     19  N   UNL     1       4.396   3.736  17.371  0.00  0.00    +0.000 NA
ATOM     20  C   UNL     1       3.810   2.555  17.171  0.00  0.00    +0.000 A 
ATOM     21  N   UNL     1       2.972   1.937  18.008  0.00  0.00    +0.000 NA
ATOM     22  C   UNL     1       2.684   2.565  19.152  0.00  0.00    +0.000 A 
ATOM     23  C   UNL     1       1.817   1.941  20.041  0.00  0.00    +0.000 A 
ATOM     24  C   UNL     1       1.456   2.523  21.259  0.00  0.00    +0.000 A 
ATOM     25  C   UNL     1       1.969   3.764  21.604  0.00  0.00    +0.000 A 
ATOM     26  C   UNL     1       2.844   4.410  20.731  0.00  0.00    +0.000 A 
ATOM     27  C   UNL     1       3.217   3.817  19.494  0.00  0.00    +0.000 A 
ENDBRANCH  17  18
ENDBRANCH  16  17
ENDBRANCH   1  16
TORSDOF 4
ENDMDL
MODEL 6
REMARK VINA RESULT:      -7.7      2.626      4.375
REMARK  Name = 
REMARK  7 active torsions:
REMARK  status: ('A' for Active; 'I' for Inactive)
REMARK    1  A    between atoms: C_1  and  C_2
REMARK    2  A    between atoms: C_6  and  C_7
REMARK    3  A    between atoms: C_9  and  C_10
REMARK    4  A    between atoms: C_10  and  C_12
REMARK    5  A    between atoms: C_12  and  S_13
REMARK    6  A    between atoms: S_13  and  C_14
REMARK    7  A    between atoms: C_24  and  C_25
REMARK                            x       y       z     vdW  Elec       q    Type
REMARK                         _______ _______ _______ _____ _____    ______ ____
ROOT
ATOM      1  C   UNL     1       1.252   9.436  17.951  0.00  0.00    +0.000 C 
ATOM      2  O   UNL     1       0.268   9.125  17.278  0.00  0.00    +0.000 OA
ENDROOT
BRANCH   1  11
ATOM      3  C   UNL     1      -1.701  14.974  23.898  0.00  0.00    +0.000 C 
ATOM      4  C   UNL     1      -1.037  13.963  23.058  0.00  0.00    +0.000 A 
ATOM      5  C   UNL     1      -0.427  13.985  21.826  0.00  0.00    +0.000 A 
ATOM      6  C   UNL     1      -0.034  12.648  21.616  0.00  0.00    +0.000 A 
ATOM      7  N   UNL     1       0.644  12.078  20.486  0.00  0.00    +0.000 N 
ATOM      8  C   UNL     1       1.557  12.726  19.654  0.00  0.00    +0.000 A 
ATOM      9  C   UNL     1       2.122  14.089  19.876  0.00  0.00    +0.000 C 
ATOM     10  C   UNL     1       1.905  11.858  18.635  0.00  0.00    +0.000 A 
ATOM     11  C   UNL     1       1.222  10.630  18.821  0.00  0.00    +0.000 A 
ATOM     12  C   UNL     1       0.487  10.775  19.997  0.00  0.00    +0.000 A 
ATOM     13  C   UNL     1      -0.432   9.789  20.659  0.00  0.00    +0.000 C 
ATOM     14  N   UNL     1      -0.389  11.864  22.639  0.00  0.00    +0.000 NA
ATOM     15  O   UNL     1      -1.000  12.699  23.555  0.00  0.00    +0.000 OA
ENDBRANCH   1  11
BRANCH   1  16
ATOM     16  C   UNL     1       2.495   8.555  17.965  0.00  0.00    +0.000 C 
BRANCH  16  17
ATOM     17  S   UNL     1       2.415   7.280  19.273  0.00  0.00    +0.000 S 
BRANCH  17  18
ATOM     18  C   UNL     1       2.983   5.849  18.347  0.00  0.00    +0.000 A 
ATOM     19  N   UNL     1       4.010   6.098  17.508  0.00  0.00    +0.000 NA
ATOM     20  C   UNL     1       4.489   5.044  16.845  0.00  0.00    +0.000 A 
ATOM     21  N   UNL     1       4.055   3.785  16.946  0.00  0.00    +0.000 NA
ATOM     22  C   UNL     1       3.037   3.558  17.782  0.00  0.00    +0.000 A 
ATOM     23  C   UNL     1       2.570   2.256  17.907  0.00  0.00    +0.000 A 
ATOM     24  C   UNL     1       1.511   1.924  18.754  0.00  0.00    +0.000 A 
ATOM     25  C   UNL     1       0.892   2.917  19.499  0.00  0.00    +0.000 A 
ATOM     26  C   UNL     1       1.344   4.232  19.395  0.00  0.00    +0.000 A 
ATOM     27  C   UNL     1       2.427   4.570  18.538  0.00  0.00    +0.000 A 
ENDBRANCH  17  18
ENDBRANCH  16  17
ENDBRANCH   1  16
TORSDOF 4
ENDMDL
MODEL 7
REMARK VINA RESULT:      -7.7      2.630      4.139
REMARK  Name = 
REMARK  7 active torsions:
REMARK  status: ('A' for Active; 'I' for Inactive)
REMARK    1  A    between atoms: C_1  and  C_2
REMARK    2  A    between atoms: C_6  and  C_7
REMARK    3  A    between atoms: C_9  and  C_10
REMARK    4  A    between atoms: C_10  and  C_12
REMARK    5  A    between atoms: C_12  and  S_13
REMARK    6  A    between atoms: S_13  and  C_14
REMARK    7  A    between atoms: C_24  and  C_25
REMARK                            x       y       z     vdW  Elec       q    Type
REMARK                         _______ _______ _______ _____ _____    ______ ____
ROOT
ATOM      1  C   UNL     1       1.725   9.038  18.580  0.00  0.00    +0.000 C 
ATOM      2  O   UNL     1       1.964   9.804  17.644  0.00  0.00    +0.000 OA
ENDROOT
BRANCH   1  11
ATOM      3  C   UNL     1      -2.871  14.391  23.577  0.00  0.00    +0.000 C 
ATOM      4  C   UNL     1      -2.302  13.362  22.691  0.00  0.00    +0.000 A 
ATOM      5  C   UNL     1      -1.276  12.454  22.806  0.00  0.00    +0.000 A 
ATOM      6  C   UNL     1      -1.261  11.798  21.558  0.00  0.00    +0.000 A 
ATOM      7  N   UNL     1      -0.389  10.752  21.105  0.00  0.00    +0.000 N 
ATOM      8  C   UNL     1       0.212   9.771  21.895  0.00  0.00    +0.000 A 
ATOM      9  C   UNL     1      -0.066   9.529  23.341  0.00  0.00    +0.000 C 
ATOM     10  C   UNL     1       1.045   9.017  21.090  0.00  0.00    +0.000 A 
ATOM     11  C   UNL     1       0.970   9.506  19.761  0.00  0.00    +0.000 A 
ATOM     12  C   UNL     1       0.042  10.546  19.788  0.00  0.00    +0.000 A 
ATOM     13  C   UNL     1      -0.414  11.428  18.661  0.00  0.00    +0.000 C 
ATOM     14  N   UNL     1      -2.201  12.278  20.738  0.00  0.00    +0.000 NA
ATOM     15  O   UNL     1      -2.869  13.247  21.462  0.00  0.00    +0.000 OA
ENDBRANCH   1  11
BRANCH   1  16
ATOM     16  C   UNL     1       2.131   7.571  18.509  0.00  0.00    +0.000 C 
BRANCH  16  17
ATOM     17  S   UNL     1       3.518   7.302  17.347  0.00  0.00    +0.000 S 
BRANCH  17  18
ATOM     18  C   UNL     1       4.245   5.826  18.069  0.00  0.00    +0.000 A 
ATOM     19  N   UNL     1       5.517   5.978  18.492  0.00  0.00    +0.000 NA
ATOM     20  C   UNL     1       6.066   4.915  19.080  0.00  0.00    +0.000 A 
ATOM     21  N   UNL     1       5.473   3.737  19.294  0.00  0.00    +0.000 NA
ATOM     22  C   UNL     1       4.212   3.606  18.868  0.00  0.00    +0.000 A 
ATOM     23  C   UNL     1       3.573   2.391  19.081  0.00  0.00    +0.000 A 
ATOM     24  C   UNL     1       2.258   2.161  18.670  0.00  0.00    +0.000 A 
ATOM     25  C   UNL     1       1.557   3.168  18.023  0.00  0.00    +0.000 A 
ATOM     26  C   UNL     1       2.174   4.398  17.800  0.00  0.00    +0.000 A 
ATOM     27  C   UNL     1       3.511   4.635  18.224  0.00  0.00    +0.000 A 
ENDBRANCH  17  18
ENDBRANCH  16  17
ENDBRANCH   1  16
TORSDOF 4
ENDMDL
MODEL 8
REMARK VINA RESULT:      -7.6      1.382      2.274
REMARK  Name = 
REMARK  7 active torsions:
REMARK  status: ('A' for Active; 'I' for Inactive)
REMARK    1  A    between atoms: C_1  and  C_2
REMARK    2  A    between atoms: C_6  and  C_7
REMARK    3  A    between atoms: C_9  and  C_10
REMARK    4  A    between atoms: C_10  and  C_12
REMARK    5  A    between atoms: C_12  and  S_13
REMARK    6  A    between atoms: S_13  and  C_14
REMARK    7  A    between atoms: C_24  and  C_25
REMARK                            x       y       z     vdW  Elec       q    Type
REMARK                         _______ _______ _______ _____ _____    ______ ____
ROOT
ATOM      1  C   UNL     1       2.509   5.492  19.173  0.00  0.00    +0.000 C 
ATOM      2  O   UNL     1       2.970   4.966  20.187  0.00  0.00    +0.000 OA
ENDROOT
BRANCH   1  11
ATOM      3  C   UNL     1      -1.155  13.033  21.285  0.00  0.00    +0.000 C 
ATOM      4  C   UNL     1      -0.335  11.834  21.047  0.00  0.00    +0.000 A 
ATOM      5  C   UNL     1       0.064  11.148  19.924  0.00  0.00    +0.000 A 
ATOM      6  C   UNL     1       0.815  10.069  20.433  0.00  0.00    +0.000 A 
ATOM      7  N   UNL     1       1.474   9.016  19.713  0.00  0.00    +0.000 N 
ATOM      8  C   UNL     1       2.022   9.102  18.433  0.00  0.00    +0.000 A 
ATOM      9  C   UNL     1       2.167  10.352  17.632  0.00  0.00    +0.000 C 
ATOM     10  C   UNL     1       2.477   7.848  18.072  0.00  0.00    +0.000 A 
ATOM     11  C   UNL     1       2.234   6.944  19.137  0.00  0.00    +0.000 A 
ATOM     12  C   UNL     1       1.658   7.700  20.157  0.00  0.00    +0.000 A 
ATOM     13  C   UNL     1       1.185   7.249  21.508  0.00  0.00    +0.000 C 
ATOM     14  N   UNL     1       0.860  10.087  21.769  0.00  0.00    +0.000 NA
ATOM     15  O   UNL     1       0.154  11.212  22.151  0.00  0.00    +0.000 OA
ENDBRANCH   1  11
BRANCH   1  16
ATOM     16  C   UNL     1       2.286   4.677  17.905  0.00  0.00    +0.000 C 
BRANCH  16  17
ATOM     17  S   UNL     1       3.584   3.409  17.672  0.00  0.00    +0.000 S 
BRANCH  17  18
ATOM     18  C   UNL     1       4.842   4.399  16.857  0.00  0.00    +0.000 A 
ATOM     19  N   UNL     1       4.694   4.500  15.519  0.00  0.00    +0.000 NA
ATOM     20  C   UNL     1       5.583   5.272  14.892  0.00  0.00    +0.000 A 
ATOM     21  N   UNL     1       6.581   5.952  15.463  0.00  0.00    +0.000 NA
ATOM     22  C   UNL     1       6.710   5.840  16.790  0.00  0.00    +0.000 A 
ATOM     23  C   UNL     1       7.738   6.540  17.408  0.00  0.00    +0.000 A 
ATOM     24  C   UNL     1       7.952   6.482  18.787  0.00  0.00    +0.000 A 
ATOM     25  C   UNL     1       7.120   5.703  19.578  0.00  0.00    +0.000 A 
ATOM     26  C   UNL     1       6.078   4.993  18.982  0.00  0.00    +0.000 A 
ATOM     27  C   UNL     1       5.856   5.056  17.579  0.00  0.00    +0.000 A 
ENDBRANCH  17  18
ENDBRANCH  16  17
ENDBRANCH   1  16
TORSDOF 4
ENDMDL
MODEL 9
REMARK VINA RESULT:      -7.5      3.171      5.032
REMARK  Name = 
REMARK  7 active torsions:
REMARK  status: ('A' for Active; 'I' for Inactive)
REMARK    1  A    between atoms: C_1  and  C_2
REMARK    2  A    between atoms: C_6  and  C_7
REMARK    3  A    between atoms: C_9  and  C_10
REMARK    4  A    between atoms: C_10  and  C_12
REMARK    5  A    between atoms: C_12  and  S_13
REMARK    6  A    between atoms: S_13  and  C_14
REMARK    7  A    between atoms: C_24  and  C_25
REMARK                            x       y       z     vdW  Elec       q    Type
REMARK                         _______ _______ _______ _____ _____    ______ ____
ROOT
ATOM      1  C   UNL     1       1.581   9.864  18.253  0.00  0.00    +0.000 C 
ATOM      2  O   UNL     1       2.374  10.600  17.663  0.00  0.00    +0.000 OA
ENDROOT
BRANCH   1  11
ATOM      3  C   UNL     1      -5.265  14.425  20.914  0.00  0.00    +0.000 C 
ATOM      4  C   UNL     1      -4.243  13.451  20.496  0.00  0.00    +0.000 A 
ATOM      5  C   UNL     1      -2.956  13.175  20.895  0.00  0.00    +0.000 A 
ATOM      6  C   UNL     1      -2.551  12.131  20.039  0.00  0.00    +0.000 A 
ATOM      7  N   UNL     1      -1.291  11.445  19.994  0.00  0.00    +0.000 N 
ATOM      8  C   UNL     1      -0.432  11.217  21.070  0.00  0.00    +0.000 A 
ATOM      9  C   UNL     1      -0.736  11.504  22.502  0.00  0.00    +0.000 C 
ATOM     10  C   UNL     1       0.712  10.608  20.588  0.00  0.00    +0.000 A 
ATOM     11  C   UNL     1       0.584  10.427  19.188  0.00  0.00    +0.000 A 
ATOM     12  C   UNL     1      -0.681  10.908  18.853  0.00  0.00    +0.000 A 
ATOM     13  C   UNL     1      -1.334  10.977  17.503  0.00  0.00    +0.000 C 
ATOM     14  N   UNL     1      -3.515  11.801  19.173  0.00  0.00    +0.000 NA
ATOM     15  O   UNL     1      -4.587  12.619  19.478  0.00  0.00    +0.000 OA
ENDBRANCH   1  11
BRANCH   1  16
ATOM     16  C   UNL     1       1.554   8.366  17.974  0.00  0.00    +0.000 C 
BRANCH  16  17
ATOM     17  S   UNL     1       2.330   7.406  19.324  0.00  0.00    +0.000 S 
BRANCH  17  18
ATOM     18  C   UNL     1       2.905   5.978  18.397  0.00  0.00    +0.000 A 
ATOM     19  N   UNL     1       3.908   6.239  17.533  0.00  0.00    +0.000 NA
ATOM     20  C   UNL     1       4.392   5.189  16.869  0.00  0.00    +0.000 A 
ATOM     21  N   UNL     1       3.986   3.922  16.991  0.00  0.00    +0.000 NA
ATOM     22  C   UNL     1       2.992   3.684  17.853  0.00  0.00    +0.000 A 
ATOM     23  C   UNL     1       2.554   2.373  18.000  0.00  0.00    +0.000 A 
ATOM     24  C   UNL     1       1.520   2.029  18.873  0.00  0.00    +0.000 A 
ATOM     25  C   UNL     1       0.900   3.017  19.624  0.00  0.00    +0.000 A 
ATOM     26  C   UNL     1       1.322   4.340  19.498  0.00  0.00    +0.000 A 
ATOM     27  C   UNL     1       2.379   4.691  18.613  0.00  0.00    +0.000 A 
ENDBRANCH  17  18
ENDBRANCH  16  17
ENDBRANCH   1  16
TORSDOF 4
ENDMDL
