MODEL 1
REMARK VINA RESULT:      -8.1      0.000      0.000
REMARK  Name = 
REMARK  5 active torsions:
REMARK  status: ('A' for Active; 'I' for Inactive)
REMARK    1  A    between atoms: C_2  and  C_3
REMARK    2  A    between atoms: C_5  and  C_6
REMARK    3  A    between atoms: N_11  and  C_12
REMARK    4  A    between atoms: N_11  and  C_19
REMARK    5  A    between atoms: C_12  and  C_13
REMARK                            x       y       z     vdW  Elec       q    Type
REMARK                         _______ _______ _______ _____ _____    ______ ____
ROOT
ATOM      1  O   UNL     1       2.978   7.992  17.045  0.00  0.00    +0.000 OA
ATOM      2  C   UNL     1       3.150   7.175  17.954  0.00  0.00    +0.000 C 
ATOM      3  N   UNL     1       4.091   6.120  17.791  0.00  0.00    +0.000 N 
ENDROOT
BRANCH   3   4
ATOM      4  C   UNL     1       5.262   6.540  16.959  0.00  0.00    +0.000 C 
ATOM      5  C   UNL     1       6.618   6.313  17.650  0.00  0.00    +0.000 C 
ATOM      6  C   UNL     1       7.207   4.925  17.434  0.00  0.00    +0.000 C 
ATOM      7  C   UNL     1       7.234   4.531  15.961  0.00  0.00    +0.000 C 
ATOM      8  C   UNL     1       5.885   4.695  15.261  0.00  0.00    +0.000 C 
ATOM      9  C   UNL     1       5.256   6.060  15.498  0.00  0.00    +0.000 C 
ENDBRANCH   3   4
BRANCH   2  10
ATOM     10  C   UNL     1       2.360   7.357  19.173  0.00  0.00    +0.000 A 
ATOM     11  C   UNL     1       1.824   8.607  19.565  0.00  0.00    +0.000 A 
ATOM     12  C   UNL     1       1.214   8.384  20.766  0.00  0.00    +0.000 A 
ATOM     13  O   UNL     1       1.380   7.075  21.105  0.00  0.00    +0.000 OA
ATOM     14  N   UNL     1       2.152   6.437  20.132  0.00  0.00    +0.000 NA
BRANCH  12  15
ATOM     15  C   UNL     1       0.505   9.464  21.552  0.00  0.00    +0.000 C 
ATOM     16  C   UNL     1      -0.681   9.100  22.417  0.00  0.00    +0.000 C 
ATOM     17  C   UNL     1       0.623   9.451  23.056  0.00  0.00    +0.000 C 
ENDBRANCH  12  15
ENDBRANCH   2  10
BRANCH   3  18
ATOM     18  C   UNL     1       4.234   4.955  18.686  0.00  0.00    +0.000 C 
BRANCH  18  19
ATOM     19  C   UNL     1       3.888   3.509  18.229  0.00  0.00    +0.000 C 
ATOM     20  C   UNL     1       3.594   2.471  19.321  0.00  0.00    +0.000 C 
ATOM     21  C   UNL     1       2.176   2.440  19.889  0.00  0.00    +0.000 C 
ATOM     22  C   UNL     1       1.045   2.729  18.903  0.00  0.00    +0.000 C 
ATOM     23  C   UNL     1       1.374   3.798  17.875  0.00  0.00    +0.000 C 
ATOM     24  C   UNL     1       2.726   3.554  17.216  0.00  0.00    +0.000 C 
ENDBRANCH  18  19
ENDBRANCH   3  18
TORSDOF 5
ENDMDL
MODEL 2
REMARK VINA RESULT:      -7.8      1.696      4.212
REMARK  Name = 
REMARK  5 active torsions:
REMARK  status: ('A' for Active; 'I' for Inactive)
REMARK    1  A    between atoms: C_2  and  C_3
REMARK    2  A    between atoms: C_5  and  C_6
REMARK    3  A    between atoms: N_11  and  C_12
REMARK    4  A    between atoms: N_11  and  C_19
REMARK    5  A    between atoms: C_12  and  C_13
REMARK                            x       y       z     vdW  Elec       q    Type
REMARK                         _______ _______ _______ _____ _____    ______ ____
ROOT
ATOM      1  O   UNL     1       1.806   6.597  20.782  0.00  0.00    +0.000 OA
ATOM      2  C   UNL     1       2.198   6.737  19.619  0.00  0.00    +0.000 C 
ATOM      3  N   UNL     1       2.832   5.652  18.951  0.00  0.00    +0.000 N 
ENDROOT
BRANCH   3   4
ATOM      4  C   UNL     1       2.276   4.331  19.377  0.00  0.00    +0.000 C 
ATOM      5  C   UNL     1       1.600   3.552  18.235  0.00  0.00    +0.000 C 
ATOM      6  C   UNL     1       2.548   2.676  17.427  0.00  0.00    +0.000 C 
ATOM      7  C   UNL     1       3.402   1.777  18.314  0.00  0.00    +0.000 C 
ATOM      8  C   UNL     1       4.130   2.532  19.426  0.00  0.00    +0.000 C 
ATOM      9  C   UNL     1       3.210   3.448  20.220  0.00  0.00    +0.000 C 
ENDBRANCH   3   4
BRANCH   2  10
ATOM     10  C   UNL     1       1.970   8.038  18.990  0.00  0.00    +0.000 A 
ATOM     11  C   UNL     1       1.261   9.088  19.624  0.00  0.00    +0.000 A 
ATOM     12  C   UNL     1       1.209  10.099  18.709  0.00  0.00    +0.000 A 
ATOM     13  O   UNL     1       1.832   9.691  17.568  0.00  0.00    +0.000 OA
ATOM     14  N   UNL     1       2.263   8.372  17.721  0.00  0.00    +0.000 NA
BRANCH  12  15
ATOM     15  C   UNL     1       0.532  11.426  18.972  0.00  0.00    +0.000 C 
ATOM     16  C   UNL     1      -0.859  11.673  18.434  0.00  0.00    +0.000 C 
ATOM     17  C   UNL     1      -0.659  11.453  19.897  0.00  0.00    +0.000 C 
ENDBRANCH  12  15
ENDBRANCH   2  10
BRANCH   3  18
ATOM     18  C   UNL     1       3.546   5.743  17.662  0.00  0.00    +0.000 C 
BRANCH  18  19
ATOM     19  C   UNL     1       4.978   6.341  17.546  0.00  0.00    +0.000 C 
ATOM     20  C   UNL     1       6.120   5.586  18.240  0.00  0.00    +0.000 C 
ATOM     21  C   UNL     1       6.741   4.413  17.484  0.00  0.00    +0.000 C 
ATOM     22  C   UNL     1       6.850   4.566  15.967  0.00  0.00    +0.000 C 
ATOM     23  C   UNL     1       5.670   5.279  15.327  0.00  0.00    +0.000 C 
ATOM     24  C   UNL     1       5.322   6.568  16.059  0.00  0.00    +0.000 C 
ENDBRANCH  18  19
ENDBRANCH   3  18
TORSDOF 5
ENDMDL
MODEL 3
REMARK VINA RESULT:      -7.6      0.932      1.133
REMARK  Name = 
REMARK  5 active torsions:
REMARK  status: ('A' for Active; 'I' for Inactive)
REMARK    1  A    between atoms: C_2  and  C_3
REMARK    2  A    between atoms: C_5  and  C_6
REMARK    3  A    between atoms: N_11  and  C_12
REMARK    4  A    between atoms: N_11  and  C_19
REMARK    5  A    between atoms: C_12  and  C_13
REMARK                            x       y       z     vdW  Elec       q    Type
REMARK                         _______ _______ _______ _____ _____    ______ ____
ROOT
ATOM      1  O   UNL     1       3.061   8.085  16.745  0.00  0.00    +0.000 OA
ATOM      2  C   UNL     1       3.156   7.436  17.791  0.00  0.00    +0.000 C 
ATOM      3  N   UNL     1       4.086   6.363  17.879  0.00  0.00    +0.000 N 
ENDROOT
BRANCH   3   4
ATOM      4  C   UNL     1       5.318   6.625  17.072  0.00  0.00    +0.000 C 
ATOM      5  C   UNL     1       6.618   6.531  17.890  0.00  0.00    +0.000 C 
ATOM      6  C   UNL     1       7.204   5.127  17.976  0.00  0.00    +0.000 C 
ATOM      7  C   UNL     1       7.334   4.470  16.606  0.00  0.00    +0.000 C 
ATOM      8  C   UNL     1       6.040   4.500  15.791  0.00  0.00    +0.000 C 
ATOM      9  C   UNL     1       5.412   5.885  15.728  0.00  0.00    +0.000 C 
ENDBRANCH   3   4
BRANCH   2  10
ATOM     10  C   UNL     1       2.287   7.832  18.901  0.00  0.00    +0.000 A 
ATOM     11  C   UNL     1       1.488   9.001  18.877  0.00  0.00    +0.000 A 
ATOM     12  C   UNL     1       0.880   9.054  20.097  0.00  0.00    +0.000 A 
ATOM     13  O   UNL     1       1.294   7.990  20.840  0.00  0.00    +0.000 OA
ATOM     14  N   UNL     1       2.226   7.249  20.111  0.00  0.00    +0.000 NA
BRANCH  12  15
ATOM     15  C   UNL     1      -0.072  10.156  20.505  0.00  0.00    +0.000 C 
ATOM     16  C   UNL     1       0.422  11.278  21.390  0.00  0.00    +0.000 C 
ATOM     17  C   UNL     1       0.149  11.539  19.945  0.00  0.00    +0.000 C 
ENDBRANCH  12  15
ENDBRANCH   2  10
BRANCH   3  18
ATOM     18  C   UNL     1       4.145   5.370  18.970  0.00  0.00    +0.000 C 
BRANCH  18  19
ATOM     19  C   UNL     1       3.869   3.857  18.732  0.00  0.00    +0.000 C 
ATOM     20  C   UNL     1       3.428   3.019  19.939  0.00  0.00    +0.000 C 
ATOM     21  C   UNL     1       1.944   3.050  20.305  0.00  0.00    +0.000 C 
ATOM     22  C   UNL     1       0.961   3.133  19.138  0.00  0.00    +0.000 C 
ATOM     23  C   UNL     1       1.428   4.014  17.992  0.00  0.00    +0.000 C 
ATOM     24  C   UNL     1       2.859   3.695  17.578  0.00  0.00    +0.000 C 
ENDBRANCH  18  19
ENDBRANCH   3  18
TORSDOF 5
ENDMDL
MODEL 4
REMARK VINA RESULT:      -7.6      2.504      5.811
REMARK  Name = 
REMARK  5 active torsions:
REMARK  status: ('A' for Active; 'I' for Inactive)
REMARK    1  A    between atoms: C_2  and  C_3
REMARK    2  A    between atoms: C_5  and  C_6
REMARK    3  A    between atoms: N_11  and  C_12
REMARK    4  A    between atoms: N_11  and  C_19
REMARK    5  A    between atoms: C_12  and  C_13
REMARK                            x       y       z     vdW  Elec       q    Type
REMARK                         _______ _______ _______ _____ _____    ______ ____
ROOT
ATOM      1  O   UNL     1       5.957   3.768  16.837  0.00  0.00    +0.000 OA
ATOM      2  C   UNL     1       5.636   4.529  17.755  0.00  0.00    +0.000 C 
ATOM      3  N   UNL     1       4.367   4.388  18.381  0.00  0.00    +0.000 N 
ENDROOT
BRANCH   3   4
ATOM      4  C   UNL     1       3.925   2.960  18.433  0.00  0.00    +0.000 C 
ATOM      5  C   UNL     1       3.916   2.372  19.855  0.00  0.00    +0.000 C 
ATOM      6  C   UNL     1       2.620   2.601  20.620  0.00  0.00    +0.000 C 
ATOM      7  C   UNL     1       1.392   2.186  19.815  0.00  0.00    +0.000 C 
ATOM      8  C   UNL     1       1.346   2.800  18.416  0.00  0.00    +0.000 C 
ATOM      9  C   UNL     1       2.647   2.622  17.647  0.00  0.00    +0.000 C 
ENDBRANCH   3   4
BRANCH   2  10
ATOM     10  C   UNL     1       6.613   5.545  18.151  0.00  0.00    +0.000 A 
ATOM     11  C   UNL     1       6.828   6.737  17.416  0.00  0.00    +0.000 A 
ATOM     12  C   UNL     1       7.842   7.386  18.060  0.00  0.00    +0.000 A 
ATOM     13  O   UNL     1       8.243   6.630  19.120  0.00  0.00    +0.000 OA
ATOM     14  N   UNL     1       7.510   5.442  19.147  0.00  0.00    +0.000 NA
BRANCH  12  15
ATOM     15  C   UNL     1       8.400   8.716  17.604  0.00  0.00    +0.000 C 
ATOM     16  C   UNL     1       7.658   9.989  17.938  0.00  0.00    +0.000 C 
ATOM     17  C   UNL     1       8.932   9.666  18.647  0.00  0.00    +0.000 C 
ENDBRANCH  12  15
ENDBRANCH   2  10
BRANCH   3  18
ATOM     18  C   UNL     1       3.764   5.356  19.320  0.00  0.00    +0.000 C 
BRANCH  18  19
ATOM     19  C   UNL     1       2.256   5.736  19.268  0.00  0.00    +0.000 C 
ATOM     20  C   UNL     1       1.672   6.488  20.471  0.00  0.00    +0.000 C 
ATOM     21  C   UNL     1       1.869   8.003  20.507  0.00  0.00    +0.000 C 
ATOM     22  C   UNL     1       1.817   8.725  19.161  0.00  0.00    +0.000 C 
ATOM     23  C   UNL     1       2.452   7.955  18.016  0.00  0.00    +0.000 C 
ATOM     24  C   UNL     1       1.967   6.512  17.967  0.00  0.00    +0.000 C 
ENDBRANCH  18  19
ENDBRANCH   3  18
TORSDOF 5
ENDMDL
MODEL 5
REMARK VINA RESULT:      -7.6      2.489      6.155
REMARK  Name = 
REMARK  5 active torsions:
REMARK  status: ('A' for Active; 'I' for Inactive)
REMARK    1  A    between atoms: C_2  and  C_3
REMARK    2  A    between atoms: C_5  and  C_6
REMARK    3  A    between atoms: N_11  and  C_12
REMARK    4  A    between atoms: N_11  and  C_19
REMARK    5  A    between atoms: C_12  and  C_13
REMARK                            x       y       z     vdW  Elec       q    Type
REMARK                         _______ _______ _______ _____ _____    ______ ____
ROOT
ATOM      1  O   UNL     1       4.091   2.204  16.664  0.00  0.00    +0.000 OA
ATOM      2  C   UNL     1       3.882   3.381  16.976  0.00  0.00    +0.000 C 
ATOM      3  N   UNL     1       2.708   3.723  17.705  0.00  0.00    +0.000 N 
ENDROOT
BRANCH   3   4
ATOM      4  C   UNL     1       2.300   2.636  18.648  0.00  0.00    +0.000 C 
ATOM      5  C   UNL     1       3.344   2.348  19.741  0.00  0.00    +0.000 C 
ATOM      6  C   UNL     1       3.207   3.217  20.984  0.00  0.00    +0.000 C 
ATOM      7  C   UNL     1       1.783   3.222  21.532  0.00  0.00    +0.000 C 
ATOM      8  C   UNL     1       0.727   3.559  20.479  0.00  0.00    +0.000 C 
ATOM      9  C   UNL     1       0.872   2.733  19.209  0.00  0.00    +0.000 C 
ENDBRANCH   3   4
BRANCH   2  10
ATOM     10  C   UNL     1       4.886   4.366  16.573  0.00  0.00    +0.000 A 
ATOM     11  C   UNL     1       5.936   4.791  17.422  0.00  0.00    +0.000 A 
ATOM     12  C   UNL     1       6.614   5.744  16.719  0.00  0.00    +0.000 A 
ATOM     13  O   UNL     1       6.006   5.913  15.512  0.00  0.00    +0.000 OA
ATOM     14  N   UNL     1       4.882   5.088  15.438  0.00  0.00    +0.000 NA
BRANCH  12  15
ATOM     15  C   UNL     1       7.823   6.474  17.260  0.00  0.00    +0.000 C 
ATOM     16  C   UNL     1       7.680   7.901  17.738  0.00  0.00    +0.000 C 
ATOM     17  C   UNL     1       7.864   6.802  18.732  0.00  0.00    +0.000 C 
ENDBRANCH  12  15
ENDBRANCH   2  10
BRANCH   3  18
ATOM     18  C   UNL     1       2.220   5.096  17.943  0.00  0.00    +0.000 C 
BRANCH  18  19
ATOM     19  C   UNL     1       3.156   6.234  18.443  0.00  0.00    +0.000 C 
ATOM     20  C   UNL     1       3.151   7.553  17.658  0.00  0.00    +0.000 C 
ATOM     21  C   UNL     1       2.047   8.557  17.989  0.00  0.00    +0.000 C 
ATOM     22  C   UNL     1       1.621   8.635  19.454  0.00  0.00    +0.000 C 
ATOM     23  C   UNL     1       1.599   7.295  20.169  0.00  0.00    +0.000 C 
ATOM     24  C   UNL     1       2.881   6.507  19.936  0.00  0.00    +0.000 C 
ENDBRANCH  18  19
ENDBRANCH   3  18
TORSDOF 5
ENDMDL
MODEL 6
REMARK VINA RESULT:      -7.5      1.237      1.844
REMARK  Name = 
REMARK  5 active torsions:
REMARK  status: ('A' for Active; 'I' for Inactive)
REMARK    1  A    between atoms: C_2  and  C_3
REMARK    2  A    between atoms: C_5  and  C_6
REMARK    3  A    between atoms: N_11  and  C_12
REMARK    4  A    between atoms: N_11  and  C_19
REMARK    5  A    between atoms: C_12  and  C_13
REMARK                            x       y       z     vdW  Elec       q    Type
REMARK                         _______ _______ _______ _____ _____    ______ ____
ROOT
ATOM      1  O   UNL     1       2.920   8.521  17.116  0.00  0.00    +0.000 OA
ATOM      2  C   UNL     1       2.834   7.800  18.115  0.00  0.00    +0.000 C 
ATOM      3  N   UNL     1       3.598   6.602  18.192  0.00  0.00    +0.000 N 
ENDROOT
BRANCH   3   4
ATOM      4  C   UNL     1       4.919   6.737  17.505  0.00  0.00    +0.000 C 
ATOM      5  C   UNL     1       6.076   6.061  18.262  0.00  0.00    +0.000 C 
ATOM      6  C   UNL     1       6.268   4.588  17.926  0.00  0.00    +0.000 C 
ATOM      7  C   UNL     1       6.339   4.341  16.423  0.00  0.00    +0.000 C 
ATOM      8  C   UNL     1       5.172   4.956  15.650  0.00  0.00    +0.000 C 
ATOM      9  C   UNL     1       4.932   6.417  16.001  0.00  0.00    +0.000 C 
ENDBRANCH   3   4
BRANCH   2  10
ATOM     10  C   UNL     1       1.934   8.242  19.181  0.00  0.00    +0.000 A 
ATOM     11  C   UNL     1       1.120   9.396  19.075  0.00  0.00    +0.000 A 
ATOM     12  C   UNL     1       0.482   9.507  20.276  0.00  0.00    +0.000 A 
ATOM     13  O   UNL     1       0.893   8.491  21.086  0.00  0.00    +0.000 OA
ATOM     14  N   UNL     1       1.852   7.726  20.420  0.00  0.00    +0.000 NA
BRANCH  12  15
ATOM     15  C   UNL     1      -0.493  10.616  20.601  0.00  0.00    +0.000 C 
ATOM     16  C   UNL     1      -0.387  11.339  21.924  0.00  0.00    +0.000 C 
ATOM     17  C   UNL     1       0.024  12.031  20.666  0.00  0.00    +0.000 C 
ENDBRANCH  12  15
ENDBRANCH   2  10
BRANCH   3  18
ATOM     18  C   UNL     1       3.426   5.542  19.206  0.00  0.00    +0.000 C 
BRANCH  18  19
ATOM     19  C   UNL     1       2.300   4.473  19.106  0.00  0.00    +0.000 C 
ATOM     20  C   UNL     1       2.005   3.879  17.722  0.00  0.00    +0.000 C 
ATOM     21  C   UNL     1       2.895   2.729  17.253  0.00  0.00    +0.000 C 
ATOM     22  C   UNL     1       3.356   1.748  18.331  0.00  0.00    +0.000 C 
ATOM     23  C   UNL     1       3.679   2.396  19.666  0.00  0.00    +0.000 C 
ATOM     24  C   UNL     1       2.575   3.342  20.119  0.00  0.00    +0.000 C 
ENDBRANCH  18  19
ENDBRANCH   3  18
TORSDOF 5
ENDMDL
MODEL 7
REMARK VINA RESULT:      -7.4      1.432      3.896
REMARK  Name = 
REMARK  5 active torsions:
REMARK  status: ('A' for Active; 'I' for Inactive)
REMARK    1  A    between atoms: C_2  and  C_3
REMARK    2  A    between atoms: C_5  and  C_6
REMARK    3  A    between atoms: N_11  and  C_12
REMARK    4  A    between atoms: N_11  and  C_19
REMARK    5  A    between atoms: C_12  and  C_13
REMARK                            x       y       z     vdW  Elec       q    Type
REMARK                         _______ _______ _______ _____ _____    ______ ____
ROOT
ATOM      1  O   UNL     1       1.816   5.710  21.303  0.00  0.00    +0.000 OA
ATOM      2  C   UNL     1       2.074   6.192  20.196  0.00  0.00    +0.000 C 
ATOM      3  N   UNL     1       2.612   5.364  19.171  0.00  0.00    +0.000 N 
ENDROOT
BRANCH   3   4
ATOM      4  C   UNL     1       2.089   3.965  19.251  0.00  0.00    +0.000 C 
ATOM      5  C   UNL     1       1.759   3.353  17.878  0.00  0.00    +0.000 C 
ATOM      6  C   UNL     1       2.937   2.670  17.196  0.00  0.00    +0.000 C 
ATOM      7  C   UNL     1       3.642   1.679  18.117  0.00  0.00    +0.000 C 
ATOM      8  C   UNL     1       4.031   2.275  19.470  0.00  0.00    +0.000 C 
ATOM      9  C   UNL     1       2.880   3.001  20.150  0.00  0.00    +0.000 C 
ENDBRANCH   3   4
BRANCH   2  10
ATOM     10  C   UNL     1       1.794   7.616  20.006  0.00  0.00    +0.000 A 
ATOM     11  C   UNL     1       1.269   8.442  21.029  0.00  0.00    +0.000 A 
ATOM     12  C   UNL     1       1.094   9.668  20.457  0.00  0.00    +0.000 A 
ATOM     13  O   UNL     1       1.470   9.599  19.149  0.00  0.00    +0.000 OA
ATOM     14  N   UNL     1       1.858   8.293  18.846  0.00  0.00    +0.000 NA
BRANCH  12  15
ATOM     15  C   UNL     1       0.543  10.864  21.202  0.00  0.00    +0.000 C 
ATOM     16  C   UNL     1      -0.882  11.303  20.958  0.00  0.00    +0.000 C 
ATOM     17  C   UNL     1      -0.523  10.632  22.243  0.00  0.00    +0.000 C 
ENDBRANCH  12  15
ENDBRANCH   2  10
BRANCH   3  18
ATOM     18  C   UNL     1       3.175   5.843  17.892  0.00  0.00    +0.000 C 
BRANCH  18  19
ATOM     19  C   UNL     1       4.633   6.373  17.774  0.00  0.00    +0.000 C 
ATOM     20  C   UNL     1       5.727   5.616  18.537  0.00  0.00    +0.000 C 
ATOM     21  C   UNL     1       6.313   4.374  17.866  0.00  0.00    +0.000 C 
ATOM     22  C   UNL     1       6.459   4.432  16.346  0.00  0.00    +0.000 C 
ATOM     23  C   UNL     1       5.324   5.152  15.639  0.00  0.00    +0.000 C 
ATOM     24  C   UNL     1       5.015   6.496  16.285  0.00  0.00    +0.000 C 
ENDBRANCH  18  19
ENDBRANCH   3  18
TORSDOF 5
ENDMDL
MODEL 8
REMARK VINA RESULT:      -7.4      1.384      1.914
REMARK  Name = 
REMARK  5 active torsions:
REMARK  status: ('A' for Active; 'I' for Inactive)
REMARK    1  A    between atoms: C_2  and  C_3
REMARK    2  A    between atoms: C_5  and  C_6
REMARK    3  A    between atoms: N_11  and  C_12
REMARK    4  A    between atoms: N_11  and  C_19
REMARK    5  A    between atoms: C_12  and  C_13
REMARK                            x       y       z     vdW  Elec       q    Type
REMARK                         _______ _______ _______ _____ _____    ______ ____
ROOT
ATOM      1  O   UNL     1       3.056   8.568  16.895  0.00  0.00    +0.000 OA
ATOM      2  C   UNL     1       2.820   7.951  17.938  0.00  0.00    +0.000 C 
ATOM      3  N   UNL     1       3.479   6.716  18.195  0.00  0.00    +0.000 N 
ENDROOT
BRANCH   3   4
ATOM      4  C   UNL     1       4.866   6.695  17.635  0.00  0.00    +0.000 C 
ATOM      5  C   UNL     1       5.851   5.856  18.468  0.00  0.00    +0.000 C 
ATOM      6  C   UNL     1       5.885   4.379  18.096  0.00  0.00    +0.000 C 
ATOM      7  C   UNL     1       6.065   4.164  16.597  0.00  0.00    +0.000 C 
ATOM      8  C   UNL     1       5.064   4.944  15.746  0.00  0.00    +0.000 C 
ATOM      9  C   UNL     1       4.980   6.415  16.128  0.00  0.00    +0.000 C 
ENDBRANCH   3   4
BRANCH   2  10
ATOM     10  C   UNL     1       1.861   8.552  18.866  0.00  0.00    +0.000 A 
ATOM     11  C   UNL     1       1.649   8.065  20.179  0.00  0.00    +0.000 A 
ATOM     12  C   UNL     1       0.652   8.838  20.700  0.00  0.00    +0.000 A 
ATOM     13  O   UNL     1       0.257   9.738  19.756  0.00  0.00    +0.000 OA
ATOM     14  N   UNL     1       0.977   9.523  18.579  0.00  0.00    +0.000 NA
BRANCH  12  15
ATOM     15  C   UNL     1       0.103   8.657  22.097  0.00  0.00    +0.000 C 
ATOM     16  C   UNL     1       0.647   9.502  23.227  0.00  0.00    +0.000 C 
ATOM     17  C   UNL     1      -0.722   9.770  22.694  0.00  0.00    +0.000 C 
ENDBRANCH  12  15
ENDBRANCH   2  10
BRANCH   3  18
ATOM     18  C   UNL     1       3.130   5.770  19.273  0.00  0.00    +0.000 C 
BRANCH  18  19
ATOM     19  C   UNL     1       1.961   4.752  19.140  0.00  0.00    +0.000 C 
ATOM     20  C   UNL     1       1.753   4.084  17.774  0.00  0.00    +0.000 C 
ATOM     21  C   UNL     1       2.616   2.863  17.458  0.00  0.00    +0.000 C 
ATOM     22  C   UNL     1       2.929   1.934  18.630  0.00  0.00    +0.000 C 
ATOM     23  C   UNL     1       3.171   2.652  19.947  0.00  0.00    +0.000 C 
ATOM     24  C   UNL     1       2.086   3.679  20.241  0.00  0.00    +0.000 C 
ENDBRANCH  18  19
ENDBRANCH   3  18
TORSDOF 5
ENDMDL
MODEL 9
REMARK VINA RESULT:      -7.1      2.543      5.873
REMARK  Name = 
REMARK  5 active torsions:
REMARK  status: ('A' for Active; 'I' for Inactive)
REMARK    1  A    between atoms: C_2  and  C_3
REMARK    2  A    between atoms: C_5  and  C_6
REMARK    3  A    between atoms: N_11  and  C_12
REMARK    4  A    between atoms: N_11  and  C_19
REMARK    5  A    between atoms: C_12  and  C_13
REMARK                            x       y       z     vdW  Elec       q    Type
REMARK                         _______ _______ _______ _____ _____    ______ ____
ROOT
ATOM      1  O   UNL     1       5.647   3.324  16.276  0.00  0.00    +0.000 OA
ATOM      2  C   UNL     1       5.430   4.269  17.041  0.00  0.00    +0.000 C 
ATOM      3  N   UNL     1       4.329   4.215  17.940  0.00  0.00    +0.000 N 
ENDROOT
BRANCH   3   4
ATOM      4  C   UNL     1       4.063   2.821  18.414  0.00  0.00    +0.000 C 
ATOM      5  C   UNL     1       4.190   2.656  19.939  0.00  0.00    +0.000 C 
ATOM      6  C   UNL     1       2.911   2.957  20.710  0.00  0.00    +0.000 C 
ATOM      7  C   UNL     1       1.706   2.212  20.145  0.00  0.00    +0.000 C 
ATOM      8  C   UNL     1       1.523   2.401  18.639  0.00  0.00    +0.000 C 
ATOM      9  C   UNL     1       2.801   2.148  17.851  0.00  0.00    +0.000 C 
ENDBRANCH   3   4
BRANCH   2  10
ATOM     10  C   UNL     1       6.348   5.407  16.972  0.00  0.00    +0.000 A 
ATOM     11  C   UNL     1       6.239   6.539  17.815  0.00  0.00    +0.000 A 
ATOM     12  C   UNL     1       7.223   7.394  17.411  0.00  0.00    +0.000 A 
ATOM     13  O   UNL     1       7.891   6.830  16.366  0.00  0.00    +0.000 OA
ATOM     14  N   UNL     1       7.305   5.603  16.048  0.00  0.00    +0.000 NA
BRANCH  12  15
ATOM     15  C   UNL     1       7.466   8.744  18.048  0.00  0.00    +0.000 C 
ATOM     16  C   UNL     1       8.745   8.987  18.816  0.00  0.00    +0.000 C 
ATOM     17  C   UNL     1       8.551   9.622  17.477  0.00  0.00    +0.000 C 
ENDBRANCH  12  15
ENDBRANCH   2  10
BRANCH   3  18
ATOM     18  C   UNL     1       3.820   5.348  18.738  0.00  0.00    +0.000 C 
BRANCH  18  19
ATOM     19  C   UNL     1       2.320   5.762  18.730  0.00  0.00    +0.000 C 
ATOM     20  C   UNL     1       1.712   6.253  20.050  0.00  0.00    +0.000 C 
ATOM     21  C   UNL     1       1.931   7.720  20.416  0.00  0.00    +0.000 C 
ATOM     22  C   UNL     1       1.930   8.714  19.256  0.00  0.00    +0.000 C 
ATOM     23  C   UNL     1       2.586   8.193  17.989  0.00  0.00    +0.000 C 
ATOM     24  C   UNL     1       2.081   6.805  17.618  0.00  0.00    +0.000 C 
ENDBRANCH  18  19
ENDBRANCH   3  18
TORSDOF 5
ENDMDL
