MODEL 1
REMARK VINA RESULT:      -7.8      0.000      0.000
REMARK  Name = 
REMARK  6 active torsions:
REMARK  status: ('A' for Active; 'I' for Inactive)
REMARK    1  A    between atoms: C_1  and  O_2
REMARK    2  A    between atoms: O_2  and  C_3
REMARK    3  A    between atoms: C_3  and  C_5
REMARK    4  A    between atoms: C_6  and  C_7
REMARK    5  A    between atoms: C_7  and  O_9
REMARK    6  A    between atoms: O_9  and  C_10
REMARK                            x       y       z     vdW  Elec       q    Type
REMARK                         _______ _______ _______ _____ _____    ______ ____
ROOT
ATOM      1  C   UNL     1       5.307   5.636  18.504  0.00  0.00    +0.000 C 
ATOM      2  C   UNL     1       5.542   6.408  17.246  0.00  0.00    +0.000 C 
ATOM      3  C   UNL     1       4.248   5.529  17.488  0.00  0.00    +0.000 C 
ATOM      4  C   UNL     1       4.078   4.196  16.866  0.00  0.00    +0.000 C 
ATOM      5  C   UNL     1       3.301   3.206  17.343  0.00  0.00    +0.000 C 
ATOM      6  C   UNL     1       2.531   3.331  18.591  0.00  0.00    +0.000 A 
ATOM      7  C   UNL     1       2.463   2.180  19.393  0.00  0.00    +0.000 A 
ATOM      8  C   UNL     1       1.784   2.196  20.611  0.00  0.00    +0.000 A 
ATOM      9  C   UNL     1       1.135   3.353  21.024  0.00  0.00    +0.000 A 
ATOM     10  C   UNL     1       1.174   4.499  20.231  0.00  0.00    +0.000 A 
ATOM     11  C   UNL     1       1.885   4.515  19.023  0.00  0.00    +0.000 A 
ATOM     12  C   UNL     1       1.906   5.800  18.297  0.00  0.00    +0.000 C 
ATOM     13  C   UNL     1       2.980   6.251  17.635  0.00  0.00    +0.000 C 
ENDROOT
BRANCH   1  14
ATOM     14  C   UNL     1       5.990   4.454  19.059  0.00  0.00    +0.000 C 
ATOM     15  O   UNL     1       5.462   3.615  19.767  0.00  0.00    +0.000 OA
BRANCH  14  17
ATOM     16  C   UNL     1       8.164   5.492  19.193  0.00  0.00    +0.000 C 
ATOM     17  O   UNL     1       7.296   4.490  18.663  0.00  0.00    +0.000 OA
ENDBRANCH  14  17
ENDBRANCH   1  14
BRANCH   2  18
ATOM     18  C   UNL     1       5.660   6.469  15.772  0.00  0.00    +0.000 C 
ATOM     19  O   UNL     1       4.952   7.093  15.005  0.00  0.00    +0.000 OA
BRANCH  18  20
ATOM     20  O   UNL     1       6.804   5.794  15.440  0.00  0.00    +0.000 OA
ATOM     21  C   UNL     1       6.725   4.788  14.429  0.00  0.00    +0.000 C 
ENDBRANCH  18  20
ENDBRANCH   2  18
TORSDOF 4
ENDMDL
MODEL 2
REMARK VINA RESULT:      -7.4      2.184      5.409
REMARK  Name = 
REMARK  6 active torsions:
REMARK  status: ('A' for Active; 'I' for Inactive)
REMARK    1  A    between atoms: C_1  and  O_2
REMARK    2  A    between atoms: O_2  and  C_3
REMARK    3  A    between atoms: C_3  and  C_5
REMARK    4  A    between atoms: C_6  and  C_7
REMARK    5  A    between atoms: C_7  and  O_9
REMARK    6  A    between atoms: O_9  and  C_10
REMARK                            x       y       z     vdW  Elec       q    Type
REMARK                         _______ _______ _______ _____ _____    ______ ____
ROOT
ATOM      1  C   UNL     1       2.704   3.932  18.282  0.00  0.00    +0.000 C 
ATOM      2  C   UNL     1       1.923   4.587  19.376  0.00  0.00    +0.000 C 
ATOM      3  C   UNL     1       3.246   5.210  18.770  0.00  0.00    +0.000 C 
ATOM      4  C   UNL     1       4.545   5.135  19.479  0.00  0.00    +0.000 C 
ATOM      5  C   UNL     1       5.757   5.191  18.895  0.00  0.00    +0.000 C 
ATOM      6  C   UNL     1       5.933   5.307  17.439  0.00  0.00    +0.000 A 
ATOM      7  C   UNL     1       6.999   4.580  16.884  0.00  0.00    +0.000 A 
ATOM      8  C   UNL     1       7.238   4.596  15.511  0.00  0.00    +0.000 A 
ATOM      9  C   UNL     1       6.436   5.368  14.679  0.00  0.00    +0.000 A 
ATOM     10  C   UNL     1       5.386   6.112  15.214  0.00  0.00    +0.000 A 
ATOM     11  C   UNL     1       5.103   6.078  16.587  0.00  0.00    +0.000 A 
ATOM     12  C   UNL     1       3.932   6.858  17.031  0.00  0.00    +0.000 C 
ATOM     13  C   UNL     1       3.097   6.444  17.992  0.00  0.00    +0.000 C 
ENDROOT
BRANCH   1  14
ATOM     14  C   UNL     1       3.499   2.692  18.265  0.00  0.00    +0.000 C 
ATOM     15  O   UNL     1       4.139   2.290  17.311  0.00  0.00    +0.000 OA
BRANCH  14  17
ATOM     16  C   UNL     1       4.529   1.828  20.269  0.00  0.00    +0.000 C 
ATOM     17  O   UNL     1       3.366   2.083  19.480  0.00  0.00    +0.000 OA
ENDBRANCH  14  17
ENDBRANCH   1  14
BRANCH   2  18
ATOM     18  C   UNL     1       1.845   5.171  20.734  0.00  0.00    +0.000 C 
ATOM     19  O   UNL     1       1.474   6.291  21.030  0.00  0.00    +0.000 OA
BRANCH  18  20
ATOM     20  O   UNL     1       2.143   4.166  21.613  0.00  0.00    +0.000 OA
ATOM     21  C   UNL     1       1.301   3.013  21.632  0.00  0.00    +0.000 C 
ENDBRANCH  18  20
ENDBRANCH   2  18
TORSDOF 4
ENDMDL
MODEL 3
REMARK VINA RESULT:      -7.3      1.779      3.244
REMARK  Name = 
REMARK  6 active torsions:
REMARK  status: ('A' for Active; 'I' for Inactive)
REMARK    1  A    between atoms: C_1  and  O_2
REMARK    2  A    between atoms: O_2  and  C_3
REMARK    3  A    between atoms: C_3  and  C_5
REMARK    4  A    between atoms: C_6  and  C_7
REMARK    5  A    between atoms: C_7  and  O_9
REMARK    6  A    between atoms: O_9  and  C_10
REMARK                            x       y       z     vdW  Elec       q    Type
REMARK                         _______ _______ _______ _____ _____    ______ ____
ROOT
ATOM      1  C   UNL     1       4.287   5.945  16.735  0.00  0.00    +0.000 C 
ATOM      2  C   UNL     1       5.626   5.695  16.118  0.00  0.00    +0.000 C 
ATOM      3  C   UNL     1       5.030   4.796  17.276  0.00  0.00    +0.000 C 
ATOM      4  C   UNL     1       5.486   4.920  18.680  0.00  0.00    +0.000 C 
ATOM      5  C   UNL     1       4.768   4.581  19.767  0.00  0.00    +0.000 C 
ATOM      6  C   UNL     1       3.395   4.058  19.681  0.00  0.00    +0.000 A 
ATOM      7  C   UNL     1       2.505   4.492  20.677  0.00  0.00    +0.000 A 
ATOM      8  C   UNL     1       1.173   4.082  20.674  0.00  0.00    +0.000 A 
ATOM      9  C   UNL     1       0.723   3.205  19.695  0.00  0.00    +0.000 A 
ATOM     10  C   UNL     1       1.597   2.747  18.710  0.00  0.00    +0.000 A 
ATOM     11  C   UNL     1       2.930   3.180  18.672  0.00  0.00    +0.000 A 
ATOM     12  C   UNL     1       3.746   2.677  17.550  0.00  0.00    +0.000 C 
ATOM     13  C   UNL     1       4.664   3.420  16.920  0.00  0.00    +0.000 C 
ENDROOT
BRANCH   1  14
ATOM     14  C   UNL     1       3.802   7.043  17.589  0.00  0.00    +0.000 C 
ATOM     15  O   UNL     1       4.437   8.047  17.858  0.00  0.00    +0.000 OA
BRANCH  14  17
ATOM     16  C   UNL     1       1.888   7.582  18.957  0.00  0.00    +0.000 C 
ATOM     17  O   UNL     1       2.551   6.720  18.031  0.00  0.00    +0.000 OA
ENDBRANCH  14  17
ENDBRANCH   1  14
BRANCH   2  18
ATOM     18  C   UNL     1       7.089   5.509  16.240  0.00  0.00    +0.000 C 
ATOM     19  O   UNL     1       7.707   4.468  16.129  0.00  0.00    +0.000 OA
BRANCH  18  20
ATOM     20  O   UNL     1       7.635   6.758  16.370  0.00  0.00    +0.000 OA
ATOM     21  C   UNL     1       7.733   7.319  17.679  0.00  0.00    +0.000 C 
ENDBRANCH  18  20
ENDBRANCH   2  18
TORSDOF 4
ENDMDL
MODEL 4
REMARK VINA RESULT:      -7.2      1.905      3.321
REMARK  Name = 
REMARK  6 active torsions:
REMARK  status: ('A' for Active; 'I' for Inactive)
REMARK    1  A    between atoms: C_1  and  O_2
REMARK    2  A    between atoms: O_2  and  C_3
REMARK    3  A    between atoms: C_3  and  C_5
REMARK    4  A    between atoms: C_6  and  C_7
REMARK    5  A    between atoms: C_7  and  O_9
REMARK    6  A    between atoms: O_9  and  C_10
REMARK                            x       y       z     vdW  Elec       q    Type
REMARK                         _______ _______ _______ _____ _____    ______ ____
ROOT
ATOM      1  C   UNL     1       3.650   6.389  17.098  0.00  0.00    +0.000 C 
ATOM      2  C   UNL     1       4.995   6.529  16.461  0.00  0.00    +0.000 C 
ATOM      3  C   UNL     1       4.627   5.346  17.446  0.00  0.00    +0.000 C 
ATOM      4  C   UNL     1       5.082   5.327  18.855  0.00  0.00    +0.000 C 
ATOM      5  C   UNL     1       4.477   4.671  19.863  0.00  0.00    +0.000 C 
ATOM      6  C   UNL     1       3.239   3.897  19.676  0.00  0.00    +0.000 A 
ATOM      7  C   UNL     1       2.304   3.965  20.722  0.00  0.00    +0.000 A 
ATOM      8  C   UNL     1       1.085   3.294  20.637  0.00  0.00    +0.000 A 
ATOM      9  C   UNL     1       0.801   2.518  19.520  0.00  0.00    +0.000 A 
ATOM     10  C   UNL     1       1.726   2.421  18.481  0.00  0.00    +0.000 A 
ATOM     11  C   UNL     1       2.940   3.121  18.530  0.00  0.00    +0.000 A 
ATOM     12  C   UNL     1       3.814   2.992  17.348  0.00  0.00    +0.000 C 
ATOM     13  C   UNL     1       4.543   4.003  16.861  0.00  0.00    +0.000 C 
ENDROOT
BRANCH   1  14
ATOM     14  C   UNL     1       2.970   7.206  18.119  0.00  0.00    +0.000 C 
ATOM     15  O   UNL     1       2.292   6.760  19.027  0.00  0.00    +0.000 OA
BRANCH  14  17
ATOM     16  C   UNL     1       2.132   9.449  17.824  0.00  0.00    +0.000 C 
ATOM     17  O   UNL     1       3.217   8.521  17.848  0.00  0.00    +0.000 OA
ENDBRANCH  14  17
ENDBRANCH   1  14
BRANCH   2  18
ATOM     18  C   UNL     1       6.467   6.633  16.565  0.00  0.00    +0.000 C 
ATOM     19  O   UNL     1       7.291   5.864  16.107  0.00  0.00    +0.000 OA
BRANCH  18  20
ATOM     20  O   UNL     1       6.736   7.834  17.163  0.00  0.00    +0.000 OA
ATOM     21  C   UNL     1       7.947   7.960  17.911  0.00  0.00    +0.000 C 
ENDBRANCH  18  20
ENDBRANCH   2  18
TORSDOF 4
ENDMDL
MODEL 5
REMARK VINA RESULT:      -7.1      2.130      3.578
REMARK  Name = 
REMARK  6 active torsions:
REMARK  status: ('A' for Active; 'I' for Inactive)
REMARK    1  A    between atoms: C_1  and  O_2
REMARK    2  A    between atoms: O_2  and  C_3
REMARK    3  A    between atoms: C_3  and  C_5
REMARK    4  A    between atoms: C_6  and  C_7
REMARK    5  A    between atoms: C_7  and  O_9
REMARK    6  A    between atoms: O_9  and  C_10
REMARK                            x       y       z     vdW  Elec       q    Type
REMARK                         _______ _______ _______ _____ _____    ______ ____
ROOT
ATOM      1  C   UNL     1       7.026   4.999  16.881  0.00  0.00    +0.000 C 
ATOM      2  C   UNL     1       7.659   6.281  17.317  0.00  0.00    +0.000 C 
ATOM      3  C   UNL     1       6.258   5.783  17.860  0.00  0.00    +0.000 C 
ATOM      4  C   UNL     1       4.980   6.355  17.374  0.00  0.00    +0.000 C 
ATOM      5  C   UNL     1       3.788   5.729  17.392  0.00  0.00    +0.000 C 
ATOM      6  C   UNL     1       3.620   4.353  17.887  0.00  0.00    +0.000 A 
ATOM      7  C   UNL     1       2.710   3.550  17.182  0.00  0.00    +0.000 A 
ATOM      8  C   UNL     1       2.496   2.221  17.547  0.00  0.00    +0.000 A 
ATOM      9  C   UNL     1       3.164   1.691  18.644  0.00  0.00    +0.000 A 
ATOM     10  C   UNL     1       4.056   2.480  19.368  0.00  0.00    +0.000 A 
ATOM     11  C   UNL     1       4.315   3.805  18.993  0.00  0.00    +0.000 A 
ATOM     12  C   UNL     1       5.322   4.525  19.797  0.00  0.00    +0.000 C 
ATOM     13  C   UNL     1       6.200   5.388  19.271  0.00  0.00    +0.000 C 
ENDROOT
BRANCH   1  14
ATOM     14  C   UNL     1       6.464   4.587  15.583  0.00  0.00    +0.000 C 
ATOM     15  O   UNL     1       5.824   3.568  15.394  0.00  0.00    +0.000 OA
BRANCH  14  17
ATOM     16  C   UNL     1       7.620   5.148  13.540  0.00  0.00    +0.000 C 
ATOM     17  O   UNL     1       6.806   5.525  14.652  0.00  0.00    +0.000 OA
ENDBRANCH  14  17
ENDBRANCH   1  14
BRANCH   2  18
ATOM     18  C   UNL     1       7.608   7.749  17.497  0.00  0.00    +0.000 C 
ATOM     19  O   UNL     1       6.875   8.533  16.926  0.00  0.00    +0.000 OA
BRANCH  18  20
ATOM     20  O   UNL     1       8.455   8.049  18.530  0.00  0.00    +0.000 OA
ATOM     21  C   UNL     1       8.808   9.417  18.738  0.00  0.00    +0.000 C 
ENDBRANCH  18  20
ENDBRANCH   2  18
TORSDOF 4
ENDMDL
MODEL 6
REMARK VINA RESULT:      -7.0      1.886      3.036
REMARK  Name = 
REMARK  6 active torsions:
REMARK  status: ('A' for Active; 'I' for Inactive)
REMARK    1  A    between atoms: C_1  and  O_2
REMARK    2  A    between atoms: O_2  and  C_3
REMARK    3  A    between atoms: C_3  and  C_5
REMARK    4  A    between atoms: C_6  and  C_7
REMARK    5  A    between atoms: C_7  and  O_9
REMARK    6  A    between atoms: O_9  and  C_10
REMARK                            x       y       z     vdW  Elec       q    Type
REMARK                         _______ _______ _______ _____ _____    ______ ____
ROOT
ATOM      1  C   UNL     1       4.329   5.745  16.475  0.00  0.00    +0.000 C 
ATOM      2  C   UNL     1       5.399   5.166  15.606  0.00  0.00    +0.000 C 
ATOM      3  C   UNL     1       4.798   4.403  16.855  0.00  0.00    +0.000 C 
ATOM      4  C   UNL     1       5.525   4.310  18.143  0.00  0.00    +0.000 C 
ATOM      5  C   UNL     1       4.956   4.122  19.348  0.00  0.00    +0.000 C 
ATOM      6  C   UNL     1       3.500   4.012  19.532  0.00  0.00    +0.000 A 
ATOM      7  C   UNL     1       2.975   4.618  20.685  0.00  0.00    +0.000 A 
ATOM      8  C   UNL     1       1.605   4.600  20.942  0.00  0.00    +0.000 A 
ATOM      9  C   UNL     1       0.747   3.945  20.067  0.00  0.00    +0.000 A 
ATOM     10  C   UNL     1       1.253   3.320  18.928  0.00  0.00    +0.000 A 
ATOM     11  C   UNL     1       2.622   3.362  18.630  0.00  0.00    +0.000 A 
ATOM     12  C   UNL     1       3.034   2.718  17.368  0.00  0.00    +0.000 C 
ATOM     13  C   UNL     1       3.992   3.210  16.573  0.00  0.00    +0.000 C 
ENDROOT
BRANCH   1  14
ATOM     14  C   UNL     1       4.348   6.882  17.412  0.00  0.00    +0.000 C 
ATOM     15  O   UNL     1       5.329   7.558  17.664  0.00  0.00    +0.000 OA
BRANCH  14  17
ATOM     16  C   UNL     1       2.470   8.297  17.952  0.00  0.00    +0.000 C 
ATOM     17  O   UNL     1       3.100   7.015  17.948  0.00  0.00    +0.000 OA
ENDBRANCH  14  17
ENDBRANCH   1  14
BRANCH   2  18
ATOM     18  C   UNL     1       6.743   4.570  15.438  0.00  0.00    +0.000 C 
ATOM     19  O   UNL     1       7.745   4.829  16.076  0.00  0.00    +0.000 OA
BRANCH  18  20
ATOM     20  O   UNL     1       6.617   3.570  14.512  0.00  0.00    +0.000 OA
ATOM     21  C   UNL     1       5.907   3.851  13.305  0.00  0.00    +0.000 C 
ENDBRANCH  18  20
ENDBRANCH   2  18
TORSDOF 4
ENDMDL
MODEL 7
REMARK VINA RESULT:      -6.7      1.971      3.765
REMARK  Name = 
REMARK  6 active torsions:
REMARK  status: ('A' for Active; 'I' for Inactive)
REMARK    1  A    between atoms: C_1  and  O_2
REMARK    2  A    between atoms: O_2  and  C_3
REMARK    3  A    between atoms: C_3  and  C_5
REMARK    4  A    between atoms: C_6  and  C_7
REMARK    5  A    between atoms: C_7  and  O_9
REMARK    6  A    between atoms: O_9  and  C_10
REMARK                            x       y       z     vdW  Elec       q    Type
REMARK                         _______ _______ _______ _____ _____    ______ ____
ROOT
ATOM      1  C   UNL     1       6.338   5.223  16.626  0.00  0.00    +0.000 C 
ATOM      2  C   UNL     1       7.430   5.985  17.306  0.00  0.00    +0.000 C 
ATOM      3  C   UNL     1       6.061   5.625  18.013  0.00  0.00    +0.000 C 
ATOM      4  C   UNL     1       4.985   6.627  18.196  0.00  0.00    +0.000 C 
ATOM      5  C   UNL     1       3.675   6.350  18.334  0.00  0.00    +0.000 C 
ATOM      6  C   UNL     1       3.145   4.977  18.290  0.00  0.00    +0.000 A 
ATOM      7  C   UNL     1       1.909   4.813  17.643  0.00  0.00    +0.000 A 
ATOM      8  C   UNL     1       1.329   3.551  17.519  0.00  0.00    +0.000 A 
ATOM      9  C   UNL     1       1.961   2.443  18.071  0.00  0.00    +0.000 A 
ATOM     10  C   UNL     1       3.178   2.591  18.734  0.00  0.00    +0.000 A 
ATOM     11  C   UNL     1       3.797   3.844  18.835  0.00  0.00    +0.000 A 
ATOM     12  C   UNL     1       5.111   3.870  19.506  0.00  0.00    +0.000 C 
ATOM     13  C   UNL     1       6.121   4.655  19.112  0.00  0.00    +0.000 C 
ENDROOT
BRANCH   1  14
ATOM     14  C   UNL     1       5.452   5.587  15.506  0.00  0.00    +0.000 C 
ATOM     15  O   UNL     1       5.151   6.727  15.201  0.00  0.00    +0.000 OA
BRANCH  14  17
ATOM     16  C   UNL     1       5.754   3.906  13.801  0.00  0.00    +0.000 C 
ATOM     17  O   UNL     1       5.024   4.437  14.908  0.00  0.00    +0.000 OA
ENDBRANCH  14  17
ENDBRANCH   1  14
BRANCH   2  18
ATOM     18  C   UNL     1       7.907   7.178  18.039  0.00  0.00    +0.000 C 
ATOM     19  O   UNL     1       8.484   7.198  19.109  0.00  0.00    +0.000 OA
BRANCH  18  20
ATOM     20  O   UNL     1       7.695   8.255  17.221  0.00  0.00    +0.000 OA
ATOM     21  C   UNL     1       8.037   9.552  17.710  0.00  0.00    +0.000 C 
ENDBRANCH  18  20
ENDBRANCH   2  18
TORSDOF 4
ENDMDL
MODEL 8
REMARK VINA RESULT:      -6.7      1.862      2.685
REMARK  Name = 
REMARK  6 active torsions:
REMARK  status: ('A' for Active; 'I' for Inactive)
REMARK    1  A    between atoms: C_1  and  O_2
REMARK    2  A    between atoms: O_2  and  C_3
REMARK    3  A    between atoms: C_3  and  C_5
REMARK    4  A    between atoms: C_6  and  C_7
REMARK    5  A    between atoms: C_7  and  O_9
REMARK    6  A    between atoms: O_9  and  C_10
REMARK                            x       y       z     vdW  Elec       q    Type
REMARK                         _______ _______ _______ _____ _____    ______ ____
ROOT
ATOM      1  C   UNL     1       4.590   5.905  16.249  0.00  0.00    +0.000 C 
ATOM      2  C   UNL     1       5.507   5.224  15.285  0.00  0.00    +0.000 C 
ATOM      3  C   UNL     1       4.884   4.494  16.543  0.00  0.00    +0.000 C 
ATOM      4  C   UNL     1       5.671   4.237  17.771  0.00  0.00    +0.000 C 
ATOM      5  C   UNL     1       5.160   4.073  19.006  0.00  0.00    +0.000 C 
ATOM      6  C   UNL     1       3.718   4.162  19.287  0.00  0.00    +0.000 A 
ATOM      7  C   UNL     1       3.361   4.779  20.497  0.00  0.00    +0.000 A 
ATOM      8  C   UNL     1       2.023   4.942  20.850  0.00  0.00    +0.000 A 
ATOM      9  C   UNL     1       1.025   4.458  20.013  0.00  0.00    +0.000 A 
ATOM     10  C   UNL     1       1.360   3.824  18.817  0.00  0.00    +0.000 A 
ATOM     11  C   UNL     1       2.699   3.686  18.426  0.00  0.00    +0.000 A 
ATOM     12  C   UNL     1       2.932   3.053  17.113  0.00  0.00    +0.000 C 
ATOM     13  C   UNL     1       3.898   3.441  16.272  0.00  0.00    +0.000 C 
ENDROOT
BRANCH   1  14
ATOM     14  C   UNL     1       4.833   6.981  17.225  0.00  0.00    +0.000 C 
ATOM     15  O   UNL     1       4.070   7.293  18.121  0.00  0.00    +0.000 OA
BRANCH  14  17
ATOM     16  C   UNL     1       7.167   7.295  17.753  0.00  0.00    +0.000 C 
ATOM     17  O   UNL     1       6.032   7.564  16.929  0.00  0.00    +0.000 OA
ENDBRANCH  14  17
ENDBRANCH   1  14
BRANCH   2  18
ATOM     18  C   UNL     1       6.737   4.453  14.999  0.00  0.00    +0.000 C 
ATOM     19  O   UNL     1       7.832   4.604  15.507  0.00  0.00    +0.000 OA
BRANCH  18  20
ATOM     20  O   UNL     1       6.380   3.443  14.147  0.00  0.00    +0.000 OA
ATOM     21  C   UNL     1       6.343   3.722  12.747  0.00  0.00    +0.000 C 
ENDBRANCH  18  20
ENDBRANCH   2  18
TORSDOF 4
ENDMDL
MODEL 9
REMARK VINA RESULT:      -6.7      2.258      5.584
REMARK  Name = 
REMARK  6 active torsions:
REMARK  status: ('A' for Active; 'I' for Inactive)
REMARK    1  A    between atoms: C_1  and  O_2
REMARK    2  A    between atoms: O_2  and  C_3
REMARK    3  A    between atoms: C_3  and  C_5
REMARK    4  A    between atoms: C_6  and  C_7
REMARK    5  A    between atoms: C_7  and  O_9
REMARK    6  A    between atoms: O_9  and  C_10
REMARK                            x       y       z     vdW  Elec       q    Type
REMARK                         _______ _______ _______ _____ _____    ______ ____
ROOT
ATOM      1  C   UNL     1       2.340   4.187  17.952  0.00  0.00    +0.000 C 
ATOM      2  C   UNL     1       1.592   4.820  19.081  0.00  0.00    +0.000 C 
ATOM      3  C   UNL     1       3.032   5.294  18.630  0.00  0.00    +0.000 C 
ATOM      4  C   UNL     1       4.252   4.930  19.387  0.00  0.00    +0.000 C 
ATOM      5  C   UNL     1       5.496   4.864  18.879  0.00  0.00    +0.000 C 
ATOM      6  C   UNL     1       5.790   5.127  17.461  0.00  0.00    +0.000 A 
ATOM      7  C   UNL     1       6.772   4.314  16.871  0.00  0.00    +0.000 A 
ATOM      8  C   UNL     1       7.107   4.458  15.526  0.00  0.00    +0.000 A 
ATOM      9  C   UNL     1       6.490   5.441  14.762  0.00  0.00    +0.000 A 
ATOM     10  C   UNL     1       5.529   6.272  15.335  0.00  0.00    +0.000 A 
ATOM     11  C   UNL     1       5.148   6.116  16.676  0.00  0.00    +0.000 A 
ATOM     12  C   UNL     1       4.079   7.012  17.157  0.00  0.00    +0.000 C 
ATOM     13  C   UNL     1       3.125   6.622  18.013  0.00  0.00    +0.000 C 
ENDROOT
BRANCH   1  14
ATOM     14  C   UNL     1       2.939   2.848  17.814  0.00  0.00    +0.000 C 
ATOM     15  O   UNL     1       3.785   2.547  16.991  0.00  0.00    +0.000 OA
BRANCH  14  17
ATOM     16  C   UNL     1       0.958   1.786  18.692  0.00  0.00    +0.000 C 
ATOM     17  O   UNL     1       2.365   2.026  18.740  0.00  0.00    +0.000 OA
ENDBRANCH  14  17
ENDBRANCH   1  14
BRANCH   2  18
ATOM     18  C   UNL     1       1.506   5.240  20.497  0.00  0.00    +0.000 C 
ATOM     19  O   UNL     1       1.570   6.375  20.930  0.00  0.00    +0.000 OA
BRANCH  18  20
ATOM     20  O   UNL     1       1.206   4.119  21.224  0.00  0.00    +0.000 OA
ATOM     21  C   UNL     1       2.280   3.405  21.837  0.00  0.00    +0.000 C 
ENDBRANCH  18  20
ENDBRANCH   2  18
TORSDOF 4
ENDMDL
