MODEL 1
REMARK VINA RESULT:      -7.3      0.000      0.000
REMARK  Name = 
REMARK  4 active torsions:
REMARK  status: ('A' for Active; 'I' for Inactive)
REMARK    1  A    between atoms: N_1  and  C_2
REMARK    2  A    between atoms: N_8  and  N_9
REMARK    3  A    between atoms: N_9  and  C_10
REMARK    4  A    between atoms: C_13  and  N_14
REMARK                            x       y       z     vdW  Elec       q    Type
REMARK                         _______ _______ _______ _____ _____    ______ ____
ROOT
ATOM      1  C   UNL     1       1.967   4.555  20.654  0.00  0.00    +0.000 C 
ATOM      2  C   UNL     1       1.748   3.554  21.513  0.00  0.00    +0.000 C 
ATOM      3  N   UNL     1       1.075   2.498  20.966  0.00  0.00    +0.000 N 
ATOM      4  C   UNL     1       0.759   2.716  19.648  0.00  0.00    +0.000 C 
ATOM      5  O   UNL     1       0.135   2.009  18.892  0.00  0.00    +0.000 OA
ATOM      6  C   UNL     1       1.400   4.073  19.347  0.00  0.00    +0.000 C 
ATOM      7  N   UNL     1       1.421   4.587  18.161  0.00  0.00    +0.000 NA
ATOM      8  H   UNL     1       0.797   1.658  21.454  0.00  0.00    +0.000 HD
ENDROOT
BRANCH   1   9
ATOM      9  N   UNL     1       2.520   5.803  20.814  0.00  0.00    +0.000 N 
ATOM     10  H   UNL     1       1.838   6.508  21.085  0.00  0.00    +0.000 HD
ATOM     11  H   UNL     1       3.012   6.078  19.956  0.00  0.00    +0.000 HD
ENDBRANCH   1   9
BRANCH   7  12
ATOM     12  N   UNL     1       2.185   5.718  18.018  0.00  0.00    +0.000 N 
ATOM     13  H   UNL     1       2.173   6.351  18.824  0.00  0.00    +0.000 HD
BRANCH  12  14
ATOM     14  C   UNL     1       3.488   5.520  17.512  0.00  0.00    +0.000 A 
ATOM     15  C   UNL     1       3.925   4.246  17.124  0.00  0.00    +0.000 A 
ATOM     16  C   UNL     1       5.212   4.045  16.624  0.00  0.00    +0.000 A 
ATOM     17  C   UNL     1       6.075   5.137  16.498  0.00  0.00    +0.000 A 
ATOM     18  C   UNL     1       5.644   6.428  16.834  0.00  0.00    +0.000 A 
ATOM     19  C   UNL     1       4.346   6.613  17.323  0.00  0.00    +0.000 A 
BRANCH  17  20
ATOM     20  N   UNL     1       7.444   4.926  16.017  0.00  0.00    +0.000 N 
ATOM     21  O   UNL     1       7.769   5.451  14.943  0.00  0.00    +0.000 OA
ATOM     22  O   UNL     1       8.198   4.231  16.715  0.00  0.00    +0.000 OA
ENDBRANCH  17  20
ENDBRANCH  12  14
ENDBRANCH   7  12
TORSDOF 4
ENDMDL
MODEL 2
REMARK VINA RESULT:      -7.2      1.083      1.690
REMARK  Name = 
REMARK  4 active torsions:
REMARK  status: ('A' for Active; 'I' for Inactive)
REMARK    1  A    between atoms: N_1  and  C_2
REMARK    2  A    between atoms: N_8  and  N_9
REMARK    3  A    between atoms: N_9  and  C_10
REMARK    4  A    between atoms: C_13  and  N_14
REMARK                            x       y       z     vdW  Elec       q    Type
REMARK                         _______ _______ _______ _____ _____    ______ ____
ROOT
ATOM      1  C   UNL     1       2.071   4.363  20.552  0.00  0.00    +0.000 C 
ATOM      2  C   UNL     1       1.514   3.444  21.348  0.00  0.00    +0.000 C 
ATOM      3  N   UNL     1       0.784   2.505  20.674  0.00  0.00    +0.000 N 
ATOM      4  C   UNL     1       0.775   2.733  19.321  0.00  0.00    +0.000 C 
ATOM      5  O   UNL     1       0.194   2.123  18.454  0.00  0.00    +0.000 OA
ATOM      6  C   UNL     1       1.692   3.948  19.157  0.00  0.00    +0.000 C 
ATOM      7  N   UNL     1       2.035   4.412  18.000  0.00  0.00    +0.000 NA
ATOM      8  H   UNL     1       0.272   1.742  21.094  0.00  0.00    +0.000 HD
ENDROOT
BRANCH   1   9
ATOM      9  N   UNL     1       2.794   5.500  20.823  0.00  0.00    +0.000 N 
ATOM     10  H   UNL     1       3.798   5.335  20.852  0.00  0.00    +0.000 HD
ATOM     11  H   UNL     1       2.465   5.921  21.699  0.00  0.00    +0.000 HD
ENDBRANCH   1   9
BRANCH   7  12
ATOM     12  N   UNL     1       3.001   5.388  18.015  0.00  0.00    +0.000 N 
ATOM     13  H   UNL     1       3.382   5.603  18.943  0.00  0.00    +0.000 HD
BRANCH  12  14
ATOM     14  C   UNL     1       4.011   5.267  17.036  0.00  0.00    +0.000 A 
ATOM     15  C   UNL     1       4.598   6.403  16.463  0.00  0.00    +0.000 A 
ATOM     16  C   UNL     1       5.596   6.289  15.494  0.00  0.00    +0.000 A 
ATOM     17  C   UNL     1       6.025   5.018  15.101  0.00  0.00    +0.000 A 
ATOM     18  C   UNL     1       5.487   3.869  15.696  0.00  0.00    +0.000 A 
ATOM     19  C   UNL     1       4.495   4.002  16.674  0.00  0.00    +0.000 A 
BRANCH  17  20
ATOM     20  N   UNL     1       7.040   4.890  14.050  0.00  0.00    +0.000 N 
ATOM     21  O   UNL     1       8.063   5.584  14.144  0.00  0.00    +0.000 OA
ATOM     22  O   UNL     1       6.814   4.094  13.126  0.00  0.00    +0.000 OA
ENDBRANCH  17  20
ENDBRANCH  12  14
ENDBRANCH   7  12
TORSDOF 4
ENDMDL
MODEL 3
REMARK VINA RESULT:      -7.2      1.843      2.258
REMARK  Name = 
REMARK  4 active torsions:
REMARK  status: ('A' for Active; 'I' for Inactive)
REMARK    1  A    between atoms: N_1  and  C_2
REMARK    2  A    between atoms: N_8  and  N_9
REMARK    3  A    between atoms: N_9  and  C_10
REMARK    4  A    between atoms: C_13  and  N_14
REMARK                            x       y       z     vdW  Elec       q    Type
REMARK                         _______ _______ _______ _____ _____    ______ ____
ROOT
ATOM      1  C   UNL     1       2.461   5.072  20.037  0.00  0.00    +0.000 C 
ATOM      2  C   UNL     1       1.266   4.939  20.622  0.00  0.00    +0.000 C 
ATOM      3  N   UNL     1       0.739   3.683  20.513  0.00  0.00    +0.000 N 
ATOM      4  C   UNL     1       1.559   2.839  19.806  0.00  0.00    +0.000 C 
ATOM      5  O   UNL     1       1.372   1.686  19.495  0.00  0.00    +0.000 OA
ATOM      6  C   UNL     1       2.788   3.703  19.508  0.00  0.00    +0.000 C 
ATOM      7  N   UNL     1       3.851   3.231  18.945  0.00  0.00    +0.000 NA
ATOM      8  H   UNL     1      -0.159   3.386  20.870  0.00  0.00    +0.000 HD
ENDROOT
BRANCH   1   9
ATOM      9  N   UNL     1       3.278   6.161  19.845  0.00  0.00    +0.000 N 
ATOM     10  H   UNL     1       3.483   6.336  18.864  0.00  0.00    +0.000 HD
ATOM     11  H   UNL     1       4.142   6.047  20.387  0.00  0.00    +0.000 HD
ENDBRANCH   1   9
BRANCH   7  12
ATOM     12  N   UNL     1       4.930   4.080  18.908  0.00  0.00    +0.000 N 
ATOM     13  H   UNL     1       5.628   3.921  19.642  0.00  0.00    +0.000 HD
BRANCH  12  14
ATOM     14  C   UNL     1       5.519   4.270  17.640  0.00  0.00    +0.000 A 
ATOM     15  C   UNL     1       6.883   4.571  17.517  0.00  0.00    +0.000 A 
ATOM     16  C   UNL     1       7.470   4.761  16.265  0.00  0.00    +0.000 A 
ATOM     17  C   UNL     1       6.684   4.635  15.115  0.00  0.00    +0.000 A 
ATOM     18  C   UNL     1       5.330   4.287  15.212  0.00  0.00    +0.000 A 
ATOM     19  C   UNL     1       4.760   4.088  16.475  0.00  0.00    +0.000 A 
BRANCH  17  20
ATOM     20  N   UNL     1       7.284   4.879  13.799  0.00  0.00    +0.000 N 
ATOM     21  O   UNL     1       6.847   4.234  12.835  0.00  0.00    +0.000 OA
ATOM     22  O   UNL     1       8.196   5.716  13.729  0.00  0.00    +0.000 OA
ENDBRANCH  17  20
ENDBRANCH  12  14
ENDBRANCH   7  12
TORSDOF 4
ENDMDL
MODEL 4
REMARK VINA RESULT:      -7.2      0.065      1.357
REMARK  Name = 
REMARK  4 active torsions:
REMARK  status: ('A' for Active; 'I' for Inactive)
REMARK    1  A    between atoms: N_1  and  C_2
REMARK    2  A    between atoms: N_8  and  N_9
REMARK    3  A    between atoms: N_9  and  C_10
REMARK    4  A    between atoms: C_13  and  N_14
REMARK                            x       y       z     vdW  Elec       q    Type
REMARK                         _______ _______ _______ _____ _____    ______ ____
ROOT
ATOM      1  C   UNL     1       1.965   4.582  20.638  0.00  0.00    +0.000 C 
ATOM      2  C   UNL     1       1.756   3.580  21.499  0.00  0.00    +0.000 C 
ATOM      3  N   UNL     1       1.081   2.523  20.958  0.00  0.00    +0.000 N 
ATOM      4  C   UNL     1       0.753   2.740  19.642  0.00  0.00    +0.000 C 
ATOM      5  O   UNL     1       0.124   2.031  18.892  0.00  0.00    +0.000 OA
ATOM      6  C   UNL     1       1.387   4.099  19.336  0.00  0.00    +0.000 C 
ATOM      7  N   UNL     1       1.397   4.613  18.150  0.00  0.00    +0.000 NA
ATOM      8  H   UNL     1       0.809   1.682  21.448  0.00  0.00    +0.000 HD
ENDROOT
BRANCH   1   9
ATOM      9  N   UNL     1       2.516   5.832  20.793  0.00  0.00    +0.000 N 
ATOM     10  H   UNL     1       3.262   5.854  21.485  0.00  0.00    +0.000 HD
ATOM     11  H   UNL     1       1.781   6.510  21.023  0.00  0.00    +0.000 HD
ENDBRANCH   1   9
BRANCH   7  12
ATOM     12  N   UNL     1       2.157   5.746  18.000  0.00  0.00    +0.000 N 
ATOM     13  H   UNL     1       2.125   6.395  18.794  0.00  0.00    +0.000 HD
BRANCH  12  14
ATOM     14  C   UNL     1       3.471   5.547  17.525  0.00  0.00    +0.000 A 
ATOM     15  C   UNL     1       4.374   6.615  17.430  0.00  0.00    +0.000 A 
ATOM     16  C   UNL     1       5.674   6.423  16.961  0.00  0.00    +0.000 A 
ATOM     17  C   UNL     1       6.084   5.138  16.592  0.00  0.00    +0.000 A 
ATOM     18  C   UNL     1       5.215   4.047  16.725  0.00  0.00    +0.000 A 
ATOM     19  C   UNL     1       3.918   4.256  17.208  0.00  0.00    +0.000 A 
BRANCH  17  20
ATOM     20  N   UNL     1       7.434   4.937  16.054  0.00  0.00    +0.000 N 
ATOM     21  O   UNL     1       8.211   4.214  16.694  0.00  0.00    +0.000 OA
ATOM     22  O   UNL     1       7.719   5.505  14.989  0.00  0.00    +0.000 OA
ENDBRANCH  17  20
ENDBRANCH  12  14
ENDBRANCH   7  12
TORSDOF 4
ENDMDL
MODEL 5
REMARK VINA RESULT:      -7.2      1.847      2.200
REMARK  Name = 
REMARK  4 active torsions:
REMARK  status: ('A' for Active; 'I' for Inactive)
REMARK    1  A    between atoms: N_1  and  C_2
REMARK    2  A    between atoms: N_8  and  N_9
REMARK    3  A    between atoms: N_9  and  C_10
REMARK    4  A    between atoms: C_13  and  N_14
REMARK                            x       y       z     vdW  Elec       q    Type
REMARK                         _______ _______ _______ _____ _____    ______ ____
ROOT
ATOM      1  C   UNL     1       2.619   5.076  19.965  0.00  0.00    +0.000 C 
ATOM      2  C   UNL     1       1.380   5.059  20.467  0.00  0.00    +0.000 C 
ATOM      3  N   UNL     1       0.794   3.825  20.441  0.00  0.00    +0.000 N 
ATOM      4  C   UNL     1       1.615   2.876  19.884  0.00  0.00    +0.000 C 
ATOM      5  O   UNL     1       1.388   1.708  19.674  0.00  0.00    +0.000 OA
ATOM      6  C   UNL     1       2.908   3.646  19.599  0.00  0.00    +0.000 C 
ATOM      7  N   UNL     1       3.982   3.070  19.168  0.00  0.00    +0.000 NA
ATOM      8  H   UNL     1      -0.142   3.609  20.754  0.00  0.00    +0.000 HD
ENDROOT
BRANCH   1   9
ATOM      9  N   UNL     1       3.506   6.100  19.732  0.00  0.00    +0.000 N 
ATOM     10  H   UNL     1       3.685   6.667  20.558  0.00  0.00    +0.000 HD
ATOM     11  H   UNL     1       3.172   6.679  18.954  0.00  0.00    +0.000 HD
ENDBRANCH   1   9
BRANCH   7  12
ATOM     12  N   UNL     1       5.105   3.859  19.133  0.00  0.00    +0.000 N 
ATOM     13  H   UNL     1       5.834   3.602  19.806  0.00  0.00    +0.000 HD
BRANCH  12  14
ATOM     14  C   UNL     1       5.630   4.122  17.849  0.00  0.00    +0.000 A 
ATOM     15  C   UNL     1       4.842   3.963  16.701  0.00  0.00    +0.000 A 
ATOM     16  C   UNL     1       5.357   4.221  15.430  0.00  0.00    +0.000 A 
ATOM     17  C   UNL     1       6.679   4.658  15.304  0.00  0.00    +0.000 A 
ATOM     18  C   UNL     1       7.470   4.871  16.441  0.00  0.00    +0.000 A 
ATOM     19  C   UNL     1       6.934   4.618  17.709  0.00  0.00    +0.000 A 
BRANCH  17  20
ATOM     20  N   UNL     1       7.242   4.887  13.969  0.00  0.00    +0.000 N 
ATOM     21  O   UNL     1       8.180   5.690  13.865  0.00  0.00    +0.000 OA
ATOM     22  O   UNL     1       6.743   4.263  13.020  0.00  0.00    +0.000 OA
ENDBRANCH  17  20
ENDBRANCH  12  14
ENDBRANCH   7  12
TORSDOF 4
ENDMDL
MODEL 6
REMARK VINA RESULT:      -7.1      2.330      3.005
REMARK  Name = 
REMARK  4 active torsions:
REMARK  status: ('A' for Active; 'I' for Inactive)
REMARK    1  A    between atoms: N_1  and  C_2
REMARK    2  A    between atoms: N_8  and  N_9
REMARK    3  A    between atoms: N_9  and  C_10
REMARK    4  A    between atoms: C_13  and  N_14
REMARK                            x       y       z     vdW  Elec       q    Type
REMARK                         _______ _______ _______ _____ _____    ______ ____
ROOT
ATOM      1  C   UNL     1       3.577   2.842  20.103  0.00  0.00    +0.000 C 
ATOM      2  C   UNL     1       2.286   2.585  20.342  0.00  0.00    +0.000 C 
ATOM      3  N   UNL     1       1.503   3.703  20.386  0.00  0.00    +0.000 N 
ATOM      4  C   UNL     1       2.230   4.850  20.189  0.00  0.00    +0.000 C 
ATOM      5  O   UNL     1       1.854   5.999  20.210  0.00  0.00    +0.000 OA
ATOM      6  C   UNL     1       3.645   4.333  19.919  0.00  0.00    +0.000 C 
ATOM      7  N   UNL     1       4.618   5.111  19.572  0.00  0.00    +0.000 NA
ATOM      8  H   UNL     1       0.510   3.722  20.573  0.00  0.00    +0.000 HD
ENDROOT
BRANCH   1   9
ATOM      9  N   UNL     1       4.687   2.032  20.063  0.00  0.00    +0.000 N 
ATOM     10  H   UNL     1       5.529   2.527  19.780  0.00  0.00    +0.000 HD
ATOM     11  H   UNL     1       4.509   1.228  19.451  0.00  0.00    +0.000 HD
ENDBRANCH   1   9
BRANCH   7  12
ATOM     12  N   UNL     1       5.776   4.480  19.192  0.00  0.00    +0.000 N 
ATOM     13  H   UNL     1       5.916   3.551  19.603  0.00  0.00    +0.000 HD
BRANCH  12  14
ATOM     14  C   UNL     1       6.064   4.503  17.810  0.00  0.00    +0.000 A 
ATOM     15  C   UNL     1       7.329   4.885  17.343  0.00  0.00    +0.000 A 
ATOM     16  C   UNL     1       7.617   4.910  15.978  0.00  0.00    +0.000 A 
ATOM     17  C   UNL     1       6.629   4.534  15.063  0.00  0.00    +0.000 A 
ATOM     18  C   UNL     1       5.373   4.102  15.510  0.00  0.00    +0.000 A 
ATOM     19  C   UNL     1       5.104   4.072  16.883  0.00  0.00    +0.000 A 
BRANCH  17  20
ATOM     20  N   UNL     1       6.910   4.602  13.625  0.00  0.00    +0.000 N 
ATOM     21  O   UNL     1       7.701   5.470  13.230  0.00  0.00    +0.000 OA
ATOM     22  O   UNL     1       6.335   3.788  12.887  0.00  0.00    +0.000 OA
ENDBRANCH  17  20
ENDBRANCH  12  14
ENDBRANCH   7  12
TORSDOF 4
ENDMDL
MODEL 7
REMARK VINA RESULT:      -7.0      0.943      1.074
REMARK  Name = 
REMARK  4 active torsions:
REMARK  status: ('A' for Active; 'I' for Inactive)
REMARK    1  A    between atoms: N_1  and  C_2
REMARK    2  A    between atoms: N_8  and  N_9
REMARK    3  A    between atoms: N_9  and  C_10
REMARK    4  A    between atoms: C_13  and  N_14
REMARK                            x       y       z     vdW  Elec       q    Type
REMARK                         _______ _______ _______ _____ _____    ______ ____
ROOT
ATOM      1  C   UNL     1       2.116   4.498  20.695  0.00  0.00    +0.000 C 
ATOM      2  C   UNL     1       1.680   3.556  21.539  0.00  0.00    +0.000 C 
ATOM      3  N   UNL     1       0.951   2.572  20.932  0.00  0.00    +0.000 N 
ATOM      4  C   UNL     1       0.818   2.786  19.583  0.00  0.00    +0.000 C 
ATOM      5  O   UNL     1       0.204   2.136  18.770  0.00  0.00    +0.000 OA
ATOM      6  C   UNL     1       1.649   4.048  19.339  0.00  0.00    +0.000 C 
ATOM      7  N   UNL     1       1.869   4.520  18.155  0.00  0.00    +0.000 NA
ATOM      8  H   UNL     1       0.519   1.785  21.397  0.00  0.00    +0.000 HD
ENDROOT
BRANCH   1   9
ATOM      9  N   UNL     1       2.794   5.676  20.900  0.00  0.00    +0.000 N 
ATOM     10  H   UNL     1       3.644   5.556  21.447  0.00  0.00    +0.000 HD
ATOM     11  H   UNL     1       2.170   6.365  21.336  0.00  0.00    +0.000 HD
ENDBRANCH   1   9
BRANCH   7  12
ATOM     12  N   UNL     1       2.776   5.548  18.086  0.00  0.00    +0.000 N 
ATOM     13  H   UNL     1       3.120   5.882  18.992  0.00  0.00    +0.000 HD
BRANCH  12  14
ATOM     14  C   UNL     1       3.815   5.388  17.144  0.00  0.00    +0.000 A 
ATOM     15  C   UNL     1       4.172   4.117  16.673  0.00  0.00    +0.000 A 
ATOM     16  C   UNL     1       5.199   3.954  15.743  0.00  0.00    +0.000 A 
ATOM     17  C   UNL     1       5.873   5.081  15.263  0.00  0.00    +0.000 A 
ATOM     18  C   UNL     1       5.500   6.365  15.683  0.00  0.00    +0.000 A 
ATOM     19  C   UNL     1       4.460   6.512  16.608  0.00  0.00    +0.000 A 
BRANCH  17  20
ATOM     20  N   UNL     1       6.984   4.913  14.321  0.00  0.00    +0.000 N 
ATOM     21  O   UNL     1       6.862   4.065  13.426  0.00  0.00    +0.000 OA
ATOM     22  O   UNL     1       7.984   5.630  14.477  0.00  0.00    +0.000 OA
ENDBRANCH  17  20
ENDBRANCH  12  14
ENDBRANCH   7  12
TORSDOF 4
ENDMDL
MODEL 8
REMARK VINA RESULT:      -7.0      2.424      3.038
REMARK  Name = 
REMARK  4 active torsions:
REMARK  status: ('A' for Active; 'I' for Inactive)
REMARK    1  A    between atoms: N_1  and  C_2
REMARK    2  A    between atoms: N_8  and  N_9
REMARK    3  A    between atoms: N_9  and  C_10
REMARK    4  A    between atoms: C_13  and  N_14
REMARK                            x       y       z     vdW  Elec       q    Type
REMARK                         _______ _______ _______ _____ _____    ______ ____
ROOT
ATOM      1  C   UNL     1       3.613   2.702  19.827  0.00  0.00    +0.000 C 
ATOM      2  C   UNL     1       2.320   2.513  20.112  0.00  0.00    +0.000 C 
ATOM      3  N   UNL     1       1.607   3.673  20.218  0.00  0.00    +0.000 N 
ATOM      4  C   UNL     1       2.393   4.781  20.022  0.00  0.00    +0.000 C 
ATOM      5  O   UNL     1       2.086   5.949  20.089  0.00  0.00    +0.000 OA
ATOM      6  C   UNL     1       3.763   4.191  19.681  0.00  0.00    +0.000 C 
ATOM      7  N   UNL     1       4.766   4.921  19.316  0.00  0.00    +0.000 NA
ATOM      8  H   UNL     1       0.625   3.744  20.445  0.00  0.00    +0.000 HD
ENDROOT
BRANCH   1   9
ATOM      9  N   UNL     1       4.671   1.830  19.721  0.00  0.00    +0.000 N 
ATOM     10  H   UNL     1       5.112   1.629  20.616  0.00  0.00    +0.000 HD
ATOM     11  H   UNL     1       5.355   2.193  19.048  0.00  0.00    +0.000 HD
ENDBRANCH   1   9
BRANCH   7  12
ATOM     12  N   UNL     1       5.869   4.234  18.872  0.00  0.00    +0.000 N 
ATOM     13  H   UNL     1       5.939   3.268  19.208  0.00  0.00    +0.000 HD
BRANCH  12  14
ATOM     14  C   UNL     1       6.147   4.344  17.493  0.00  0.00    +0.000 A 
ATOM     15  C   UNL     1       5.193   3.978  16.534  0.00  0.00    +0.000 A 
ATOM     16  C   UNL     1       5.464   4.084  15.169  0.00  0.00    +0.000 A 
ATOM     17  C   UNL     1       6.705   4.577  14.754  0.00  0.00    +0.000 A 
ATOM     18  C   UNL     1       7.656   4.994  15.695  0.00  0.00    +0.000 A 
ATOM     19  C   UNL     1       7.364   4.892  17.060  0.00  0.00    +0.000 A 
BRANCH  17  20
ATOM     20  N   UNL     1       7.013   4.647  13.322  0.00  0.00    +0.000 N 
ATOM     21  O   UNL     1       6.452   3.839  12.568  0.00  0.00    +0.000 OA
ATOM     22  O   UNL     1       7.822   5.510  12.949  0.00  0.00    +0.000 OA
ENDBRANCH  17  20
ENDBRANCH  12  14
ENDBRANCH   7  12
TORSDOF 4
ENDMDL
MODEL 9
REMARK VINA RESULT:      -7.0      2.427      2.875
REMARK  Name = 
REMARK  4 active torsions:
REMARK  status: ('A' for Active; 'I' for Inactive)
REMARK    1  A    between atoms: N_1  and  C_2
REMARK    2  A    between atoms: N_8  and  N_9
REMARK    3  A    between atoms: N_9  and  C_10
REMARK    4  A    between atoms: C_13  and  N_14
REMARK                            x       y       z     vdW  Elec       q    Type
REMARK                         _______ _______ _______ _____ _____    ______ ____
ROOT
ATOM      1  C   UNL     1       1.667   3.447  18.959  0.00  0.00    +0.000 C 
ATOM      2  C   UNL     1       0.696   3.664  19.852  0.00  0.00    +0.000 C 
ATOM      3  N   UNL     1       1.007   3.245  21.115  0.00  0.00    +0.000 N 
ATOM      4  C   UNL     1       2.254   2.674  21.175  0.00  0.00    +0.000 C 
ATOM      5  O   UNL     1       2.809   2.168  22.122  0.00  0.00    +0.000 OA
ATOM      6  C   UNL     1       2.792   2.841  19.752  0.00  0.00    +0.000 C 
ATOM      7  N   UNL     1       4.002   2.525  19.422  0.00  0.00    +0.000 NA
ATOM      8  H   UNL     1       0.402   3.302  21.922  0.00  0.00    +0.000 HD
ENDROOT
BRANCH   1   9
ATOM      9  N   UNL     1       1.728   3.635  17.599  0.00  0.00    +0.000 N 
ATOM     10  H   UNL     1       1.373   2.841  17.071  0.00  0.00    +0.000 HD
ATOM     11  H   UNL     1       2.690   3.861  17.322  0.00  0.00    +0.000 HD
ENDBRANCH   1   9
BRANCH   7  12
ATOM     12  N   UNL     1       4.389   2.898  18.159  0.00  0.00    +0.000 N 
ATOM     13  H   UNL     1       3.632   2.936  17.469  0.00  0.00    +0.000 HD
BRANCH  12  14
ATOM     14  C   UNL     1       5.238   4.024  18.085  0.00  0.00    +0.000 A 
ATOM     15  C   UNL     1       5.795   4.584  19.242  0.00  0.00    +0.000 A 
ATOM     16  C   UNL     1       6.634   5.698  19.173  0.00  0.00    +0.000 A 
ATOM     17  C   UNL     1       6.933   6.252  17.926  0.00  0.00    +0.000 A 
ATOM     18  C   UNL     1       6.426   5.679  16.752  0.00  0.00    +0.000 A 
ATOM     19  C   UNL     1       5.596   4.556  16.838  0.00  0.00    +0.000 A 
BRANCH  17  20
ATOM     20  N   UNL     1       7.776   7.450  17.850  0.00  0.00    +0.000 N 
ATOM     21  O   UNL     1       7.646   8.189  16.863  0.00  0.00    +0.000 OA
ATOM     22  O   UNL     1       8.574   7.652  18.777  0.00  0.00    +0.000 OA
ENDBRANCH  17  20
ENDBRANCH  12  14
ENDBRANCH   7  12
TORSDOF 4
ENDMDL
