MODEL 1
REMARK VINA RESULT:      -8.5      0.000      0.000
REMARK  Name = 
REMARK  8 active torsions:
REMARK  status: ('A' for Active; 'I' for Inactive)
REMARK    1  A    between atoms: C_1  and  O_2
REMARK    2  A    between atoms: O_2  and  C_3
REMARK    3  A    between atoms: C_5  and  C_6
REMARK    4  A    between atoms: C_12  and  C_13
REMARK    5  A    between atoms: C_23  and  O_24
REMARK    6  A    between atoms: O_24  and  C_25
REMARK    7  A    between atoms: C_26  and  O_27
REMARK    8  A    between atoms: O_27  and  C_28
REMARK                            x       y       z     vdW  Elec       q    Type
REMARK                         _______ _______ _______ _____ _____    ______ ____
ROOT
ATOM      1  C   UNL     1       4.819   3.938  18.649  0.00  0.00    +0.000 A 
ATOM      2  N   UNL     1       4.794   2.746  19.223  0.00  0.00    +0.000 NA
ATOM      3  N   UNL     1       3.791   2.722  20.161  0.00  0.00    +0.000 NA
ATOM      4  C   UNL     1       3.190   3.889  20.133  0.00  0.00    +0.000 A 
ATOM      5  C   UNL     1       2.096   4.420  20.869  0.00  0.00    +0.000 A 
ATOM      6  C   UNL     1       1.682   5.680  20.630  0.00  0.00    +0.000 A 
ATOM      7  C   UNL     1       2.310   6.520  19.611  0.00  0.00    +0.000 A 
ATOM      8  C   UNL     1       3.322   5.993  18.893  0.00  0.00    +0.000 A 
ATOM      9  N   UNL     1       3.783   4.701  19.175  0.00  0.00    +0.000 N 
ENDROOT
BRANCH   7  10
ATOM     10  C   UNL     1       1.930   7.918  19.370  0.00  0.00    +0.000 A 
ATOM     11  C   UNL     1       2.204   8.540  18.144  0.00  0.00    +0.000 A 
ATOM     12  C   UNL     1       1.798   9.858  17.924  0.00  0.00    +0.000 A 
ATOM     13  C   UNL     1       1.125  10.549  18.926  0.00  0.00    +0.000 A 
ATOM     14  F   UNL     1       0.724  11.808  18.705  0.00  0.00    +0.000 F 
ATOM     15  C   UNL     1       0.856   9.951  20.151  0.00  0.00    +0.000 A 
ATOM     16  C   UNL     1       1.260   8.634  20.375  0.00  0.00    +0.000 A 
ENDBRANCH   7  10
BRANCH   1  19
ATOM     17  C   UNL     1       6.305   4.074  15.195  0.00  0.00    +0.000 A 
ATOM     18  C   UNL     1       5.677   3.596  16.357  0.00  0.00    +0.000 A 
ATOM     19  C   UNL     1       5.702   4.325  17.546  0.00  0.00    +0.000 A 
ATOM     20  C   UNL     1       6.533   5.440  17.606  0.00  0.00    +0.000 A 
ATOM     21  C   UNL     1       7.204   5.924  16.473  0.00  0.00    +0.000 A 
ATOM     22  C   UNL     1       7.088   5.250  15.240  0.00  0.00    +0.000 A 
BRANCH  17  24
ATOM     23  C   UNL     1       5.035   3.714  13.216  0.00  0.00    +0.000 C 
ATOM     24  O   UNL     1       6.175   3.385  14.014  0.00  0.00    +0.000 OA
ENDBRANCH  17  24
BRANCH  21  25
ATOM     25  O   UNL     1       7.872   7.083  16.774  0.00  0.00    +0.000 OA
ATOM     26  C   UNL     1       7.889   7.563  18.108  0.00  0.00    +0.000 C 
ENDBRANCH  21  25
BRANCH  22  27
ATOM     27  O   UNL     1       7.767   5.807  14.192  0.00  0.00    +0.000 OA
ATOM     28  C   UNL     1       8.034   5.061  13.018  0.00  0.00    +0.000 C 
ENDBRANCH  22  27
ENDBRANCH   1  19
TORSDOF 5
ENDMDL
MODEL 2
REMARK VINA RESULT:      -8.5      0.381      2.627
REMARK  Name = 
REMARK  8 active torsions:
REMARK  status: ('A' for Active; 'I' for Inactive)
REMARK    1  A    between atoms: C_1  and  O_2
REMARK    2  A    between atoms: O_2  and  C_3
REMARK    3  A    between atoms: C_5  and  C_6
REMARK    4  A    between atoms: C_12  and  C_13
REMARK    5  A    between atoms: C_23  and  O_24
REMARK    6  A    between atoms: O_24  and  C_25
REMARK    7  A    between atoms: C_26  and  O_27
REMARK    8  A    between atoms: O_27  and  C_28
REMARK                            x       y       z     vdW  Elec       q    Type
REMARK                         _______ _______ _______ _____ _____    ______ ____
ROOT
ATOM      1  C   UNL     1       4.551   4.082  18.301  0.00  0.00    +0.000 A 
ATOM      2  N   UNL     1       4.559   2.855  18.796  0.00  0.00    +0.000 NA
ATOM      3  N   UNL     1       3.627   2.771  19.802  0.00  0.00    +0.000 NA
ATOM      4  C   UNL     1       3.034   3.939  19.894  0.00  0.00    +0.000 A 
ATOM      5  C   UNL     1       2.001   4.425  20.742  0.00  0.00    +0.000 A 
ATOM      6  C   UNL     1       1.581   5.699  20.617  0.00  0.00    +0.000 A 
ATOM      7  C   UNL     1       2.139   6.602  19.613  0.00  0.00    +0.000 A 
ATOM      8  C   UNL     1       3.092   6.121  18.789  0.00  0.00    +0.000 A 
ATOM      9  N   UNL     1       3.562   4.812  18.950  0.00  0.00    +0.000 N 
ENDROOT
BRANCH   7  10
ATOM     10  C   UNL     1       1.754   8.014  19.492  0.00  0.00    +0.000 A 
ATOM     11  C   UNL     1       1.186   8.704  20.571  0.00  0.00    +0.000 A 
ATOM     12  C   UNL     1       0.865  10.057  20.444  0.00  0.00    +0.000 A 
ATOM     13  C   UNL     1       1.108  10.714  19.242  0.00  0.00    +0.000 A 
ATOM     14  F   UNL     1       0.812  12.015  19.129  0.00  0.00    +0.000 F 
ATOM     15  C   UNL     1       1.660  10.041  18.158  0.00  0.00    +0.000 A 
ATOM     16  C   UNL     1       1.983   8.689  18.282  0.00  0.00    +0.000 A 
ENDBRANCH   7  10
BRANCH   1  19
ATOM     17  C   UNL     1       7.119   6.010  16.339  0.00  0.00    +0.000 A 
ATOM     18  C   UNL     1       6.144   5.681  17.297  0.00  0.00    +0.000 A 
ATOM     19  C   UNL     1       5.355   4.539  17.164  0.00  0.00    +0.000 A 
ATOM     20  C   UNL     1       5.419   3.841  15.962  0.00  0.00    +0.000 A 
ATOM     21  C   UNL     1       6.354   4.165  14.968  0.00  0.00    +0.000 A 
ATOM     22  C   UNL     1       7.232   5.254  15.150  0.00  0.00    +0.000 A 
BRANCH  17  24
ATOM     23  C   UNL     1       7.660   7.889  17.693  0.00  0.00    +0.000 C 
ATOM     24  O   UNL     1       7.949   7.082  16.548  0.00  0.00    +0.000 OA
ENDBRANCH  17  24
BRANCH  21  25
ATOM     25  O   UNL     1       6.278   3.270  13.931  0.00  0.00    +0.000 OA
ATOM     26  C   UNL     1       5.283   3.430  12.933  0.00  0.00    +0.000 C 
ENDBRANCH  21  25
BRANCH  22  27
ATOM     27  O   UNL     1       8.117   5.480  14.132  0.00  0.00    +0.000 OA
ATOM     28  C   UNL     1       7.675   5.565  12.789  0.00  0.00    +0.000 C 
ENDBRANCH  22  27
ENDBRANCH   1  19
TORSDOF 5
ENDMDL
MODEL 3
REMARK VINA RESULT:      -8.4      4.089      6.449
REMARK  Name = 
REMARK  8 active torsions:
REMARK  status: ('A' for Active; 'I' for Inactive)
REMARK    1  A    between atoms: C_1  and  O_2
REMARK    2  A    between atoms: O_2  and  C_3
REMARK    3  A    between atoms: C_5  and  C_6
REMARK    4  A    between atoms: C_12  and  C_13
REMARK    5  A    between atoms: C_23  and  O_24
REMARK    6  A    between atoms: O_24  and  C_25
REMARK    7  A    between atoms: C_26  and  O_27
REMARK    8  A    between atoms: O_27  and  C_28
REMARK                            x       y       z     vdW  Elec       q    Type
REMARK                         _______ _______ _______ _____ _____    ______ ____
ROOT
ATOM      1  C   UNL     1       1.185   8.779  20.899  0.00  0.00    +0.000 A 
ATOM      2  N   UNL     1       1.580   9.226  22.080  0.00  0.00    +0.000 NA
ATOM      3  N   UNL     1       0.896  10.380  22.375  0.00  0.00    +0.000 NA
ATOM      4  C   UNL     1       0.065  10.614  21.385  0.00  0.00    +0.000 A 
ATOM      5  C   UNL     1      -0.882  11.649  21.154  0.00  0.00    +0.000 A 
ATOM      6  C   UNL     1      -1.613  11.642  20.022  0.00  0.00    +0.000 A 
ATOM      7  C   UNL     1      -1.483  10.583  19.024  0.00  0.00    +0.000 A 
ATOM      8  C   UNL     1      -0.609   9.586  19.270  0.00  0.00    +0.000 A 
ATOM      9  N   UNL     1       0.185   9.619  20.423  0.00  0.00    +0.000 N 
ENDROOT
BRANCH   7  10
ATOM     10  C   UNL     1      -2.214  10.578  17.750  0.00  0.00    +0.000 A 
ATOM     11  C   UNL     1      -1.827   9.738  16.698  0.00  0.00    +0.000 A 
ATOM     12  C   UNL     1      -2.562   9.722  15.510  0.00  0.00    +0.000 A 
ATOM     13  C   UNL     1      -3.675  10.546  15.377  0.00  0.00    +0.000 A 
ATOM     14  F   UNL     1      -4.385  10.517  14.242  0.00  0.00    +0.000 F 
ATOM     15  C   UNL     1      -4.064  11.394  16.406  0.00  0.00    +0.000 A 
ATOM     16  C   UNL     1      -3.333  11.412  17.595  0.00  0.00    +0.000 A 
ENDBRANCH   7  10
BRANCH   1  19
ATOM     17  C   UNL     1       2.916   6.450  18.503  0.00  0.00    +0.000 A 
ATOM     18  C   UNL     1       2.244   7.570  19.023  0.00  0.00    +0.000 A 
ATOM     19  C   UNL     1       1.633   7.531  20.276  0.00  0.00    +0.000 A 
ATOM     20  C   UNL     1       1.534   6.297  20.911  0.00  0.00    +0.000 A 
ATOM     21  C   UNL     1       2.160   5.150  20.402  0.00  0.00    +0.000 A 
ATOM     22  C   UNL     1       2.876   5.214  19.189  0.00  0.00    +0.000 A 
BRANCH  17  24
ATOM     23  C   UNL     1       4.973   6.921  17.406  0.00  0.00    +0.000 C 
ATOM     24  O   UNL     1       3.595   6.550  17.315  0.00  0.00    +0.000 OA
ENDBRANCH  17  24
BRANCH  21  25
ATOM     25  O   UNL     1       1.993   4.094  21.261  0.00  0.00    +0.000 OA
ATOM     26  C   UNL     1       1.102   3.044  20.924  0.00  0.00    +0.000 C 
ENDBRANCH  21  25
BRANCH  22  27
ATOM     27  O   UNL     1       3.464   4.048  18.783  0.00  0.00    +0.000 OA
ATOM     28  C   UNL     1       4.764   3.696  19.223  0.00  0.00    +0.000 C 
ENDBRANCH  22  27
ENDBRANCH   1  19
TORSDOF 5
ENDMDL
MODEL 4
REMARK VINA RESULT:      -8.4      0.816      2.582
REMARK  Name = 
REMARK  8 active torsions:
REMARK  status: ('A' for Active; 'I' for Inactive)
REMARK    1  A    between atoms: C_1  and  O_2
REMARK    2  A    between atoms: O_2  and  C_3
REMARK    3  A    between atoms: C_5  and  C_6
REMARK    4  A    between atoms: C_12  and  C_13
REMARK    5  A    between atoms: C_23  and  O_24
REMARK    6  A    between atoms: O_24  and  C_25
REMARK    7  A    between atoms: C_26  and  O_27
REMARK    8  A    between atoms: O_27  and  C_28
REMARK                            x       y       z     vdW  Elec       q    Type
REMARK                         _______ _______ _______ _____ _____    ______ ____
ROOT
ATOM      1  C   UNL     1       4.267   3.644  17.790  0.00  0.00    +0.000 A 
ATOM      2  N   UNL     1       4.157   2.353  18.060  0.00  0.00    +0.000 NA
ATOM      3  N   UNL     1       3.185   2.176  19.014  0.00  0.00    +0.000 NA
ATOM      4  C   UNL     1       2.686   3.356  19.300  0.00  0.00    +0.000 A 
ATOM      5  C   UNL     1       1.666   3.773  20.198  0.00  0.00    +0.000 A 
ATOM      6  C   UNL     1       1.356   5.081  20.293  0.00  0.00    +0.000 A 
ATOM      7  C   UNL     1       2.022   6.094  19.478  0.00  0.00    +0.000 A 
ATOM      8  C   UNL     1       2.962   5.685  18.602  0.00  0.00    +0.000 A 
ATOM      9  N   UNL     1       3.317   4.332  18.538  0.00  0.00    +0.000 N 
ENDROOT
BRANCH   7  10
ATOM     10  C   UNL     1       1.757   7.534  19.602  0.00  0.00    +0.000 A 
ATOM     11  C   UNL     1       1.905   8.393  18.505  0.00  0.00    +0.000 A 
ATOM     12  C   UNL     1       1.609   9.752  18.637  0.00  0.00    +0.000 A 
ATOM     13  C   UNL     1       1.172  10.247  19.862  0.00  0.00    +0.000 A 
ATOM     14  F   UNL     1       0.876  11.547  19.981  0.00  0.00    +0.000 F 
ATOM     15  C   UNL     1       1.032   9.410  20.962  0.00  0.00    +0.000 A 
ATOM     16  C   UNL     1       1.326   8.052  20.834  0.00  0.00    +0.000 A 
ENDBRANCH   7  10
BRANCH   1  19
ATOM     17  C   UNL     1       6.944   5.782  16.236  0.00  0.00    +0.000 A 
ATOM     18  C   UNL     1       5.907   5.349  17.079  0.00  0.00    +0.000 A 
ATOM     19  C   UNL     1       5.146   4.222  16.771  0.00  0.00    +0.000 A 
ATOM     20  C   UNL     1       5.308   3.654  15.510  0.00  0.00    +0.000 A 
ATOM     21  C   UNL     1       6.309   4.086  14.629  0.00  0.00    +0.000 A 
ATOM     22  C   UNL     1       7.156   5.155  14.987  0.00  0.00    +0.000 A 
BRANCH  17  24
ATOM     23  C   UNL     1       7.717   7.171  18.005  0.00  0.00    +0.000 C 
ATOM     24  O   UNL     1       7.742   6.832  16.616  0.00  0.00    +0.000 OA
ENDBRANCH  17  24
BRANCH  21  25
ATOM     25  O   UNL     1       6.322   3.303  13.501  0.00  0.00    +0.000 OA
ATOM     26  C   UNL     1       5.231   3.352  12.597  0.00  0.00    +0.000 C 
ENDBRANCH  21  25
BRANCH  22  27
ATOM     27  O   UNL     1       8.110   5.492  14.067  0.00  0.00    +0.000 OA
ATOM     28  C   UNL     1       7.780   5.643  12.698  0.00  0.00    +0.000 C 
ENDBRANCH  22  27
ENDBRANCH   1  19
TORSDOF 5
ENDMDL
MODEL 5
REMARK VINA RESULT:      -8.4      4.029      6.307
REMARK  Name = 
REMARK  8 active torsions:
REMARK  status: ('A' for Active; 'I' for Inactive)
REMARK    1  A    between atoms: C_1  and  O_2
REMARK    2  A    between atoms: O_2  and  C_3
REMARK    3  A    between atoms: C_5  and  C_6
REMARK    4  A    between atoms: C_12  and  C_13
REMARK    5  A    between atoms: C_23  and  O_24
REMARK    6  A    between atoms: O_24  and  C_25
REMARK    7  A    between atoms: C_26  and  O_27
REMARK    8  A    between atoms: O_27  and  C_28
REMARK                            x       y       z     vdW  Elec       q    Type
REMARK                         _______ _______ _______ _____ _____    ______ ____
ROOT
ATOM      1  C   UNL     1       1.264   8.570  21.074  0.00  0.00    +0.000 A 
ATOM      2  N   UNL     1       1.646   8.946  22.284  0.00  0.00    +0.000 NA
ATOM      3  N   UNL     1       0.953  10.076  22.642  0.00  0.00    +0.000 NA
ATOM      4  C   UNL     1       0.129  10.366  21.661  0.00  0.00    +0.000 A 
ATOM      5  C   UNL     1      -0.822  11.408  21.486  0.00  0.00    +0.000 A 
ATOM      6  C   UNL     1      -1.544  11.466  20.350  0.00  0.00    +0.000 A 
ATOM      7  C   UNL     1      -1.399  10.470  19.290  0.00  0.00    +0.000 A 
ATOM      8  C   UNL     1      -0.522   9.465  19.482  0.00  0.00    +0.000 A 
ATOM      9  N   UNL     1       0.263   9.432  20.642  0.00  0.00    +0.000 N 
ENDROOT
BRANCH   7  10
ATOM     10  C   UNL     1      -2.120  10.539  18.012  0.00  0.00    +0.000 A 
ATOM     11  C   UNL     1      -1.699   9.791  16.904  0.00  0.00    +0.000 A 
ATOM     12  C   UNL     1      -2.424   9.842  15.711  0.00  0.00    +0.000 A 
ATOM     13  C   UNL     1      -3.560  10.640  15.628  0.00  0.00    +0.000 A 
ATOM     14  F   UNL     1      -4.260  10.676  14.487  0.00  0.00    +0.000 F 
ATOM     15  C   UNL     1      -3.983  11.397  16.714  0.00  0.00    +0.000 A 
ATOM     16  C   UNL     1      -3.262  11.348  17.907  0.00  0.00    +0.000 A 
ENDBRANCH   7  10
BRANCH   1  19
ATOM     17  C   UNL     1       1.529   4.951  20.079  0.00  0.00    +0.000 A 
ATOM     18  C   UNL     1       1.332   6.111  20.847  0.00  0.00    +0.000 A 
ATOM     19  C   UNL     1       1.725   7.364  20.380  0.00  0.00    +0.000 A 
ATOM     20  C   UNL     1       2.495   7.414  19.222  0.00  0.00    +0.000 A 
ATOM     21  C   UNL     1       2.742   6.269  18.450  0.00  0.00    +0.000 A 
ATOM     22  C   UNL     1       2.248   5.015  18.864  0.00  0.00    +0.000 A 
BRANCH  17  24
ATOM     23  C   UNL     1       1.797   3.096  21.543  0.00  0.00    +0.000 C 
ATOM     24  O   UNL     1       1.039   3.747  20.520  0.00  0.00    +0.000 OA
ENDBRANCH  17  24
BRANCH  21  25
ATOM     25  O   UNL     1       3.438   6.601  17.315  0.00  0.00    +0.000 OA
ATOM     26  C   UNL     1       4.855   6.622  17.336  0.00  0.00    +0.000 C 
ENDBRANCH  21  25
BRANCH  22  27
ATOM     27  O   UNL     1       2.529   3.963  18.036  0.00  0.00    +0.000 OA
ATOM     28  C   UNL     1       3.680   3.164  18.240  0.00  0.00    +0.000 C 
ENDBRANCH  22  27
ENDBRANCH   1  19
TORSDOF 5
ENDMDL
MODEL 6
REMARK VINA RESULT:      -8.4      4.074      6.435
REMARK  Name = 
REMARK  8 active torsions:
REMARK  status: ('A' for Active; 'I' for Inactive)
REMARK    1  A    between atoms: C_1  and  O_2
REMARK    2  A    between atoms: O_2  and  C_3
REMARK    3  A    between atoms: C_5  and  C_6
REMARK    4  A    between atoms: C_12  and  C_13
REMARK    5  A    between atoms: C_23  and  O_24
REMARK    6  A    between atoms: O_24  and  C_25
REMARK    7  A    between atoms: C_26  and  O_27
REMARK    8  A    between atoms: O_27  and  C_28
REMARK                            x       y       z     vdW  Elec       q    Type
REMARK                         _______ _______ _______ _____ _____    ______ ____
ROOT
ATOM      1  C   UNL     1       1.237   8.834  20.852  0.00  0.00    +0.000 A 
ATOM      2  N   UNL     1       1.637   9.278  22.033  0.00  0.00    +0.000 NA
ATOM      3  N   UNL     1       0.912  10.398  22.359  0.00  0.00    +0.000 NA
ATOM      4  C   UNL     1       0.053  10.615  21.390  0.00  0.00    +0.000 A 
ATOM      5  C   UNL     1      -0.940  11.613  21.195  0.00  0.00    +0.000 A 
ATOM      6  C   UNL     1      -1.692  11.594  20.077  0.00  0.00    +0.000 A 
ATOM      7  C   UNL     1      -1.539  10.557  19.059  0.00  0.00    +0.000 A 
ATOM      8  C   UNL     1      -0.621   9.593  19.272  0.00  0.00    +0.000 A 
ATOM      9  N   UNL     1       0.194   9.640  20.409  0.00  0.00    +0.000 N 
ENDROOT
BRANCH   7  10
ATOM     10  C   UNL     1      -2.294  10.542  17.800  0.00  0.00    +0.000 A 
ATOM     11  C   UNL     1      -3.453  11.315  17.642  0.00  0.00    +0.000 A 
ATOM     12  C   UNL     1      -4.131  11.315  16.421  0.00  0.00    +0.000 A 
ATOM     13  C   UNL     1      -3.654  10.543  15.367  0.00  0.00    +0.000 A 
ATOM     14  F   UNL     1      -4.299  10.557  14.193  0.00  0.00    +0.000 F 
ATOM     15  C   UNL     1      -2.514   9.762  15.511  0.00  0.00    +0.000 A 
ATOM     16  C   UNL     1      -1.833   9.760  16.729  0.00  0.00    +0.000 A 
ENDBRANCH   7  10
BRANCH   1  19
ATOM     17  C   UNL     1       3.048   6.618  18.409  0.00  0.00    +0.000 A 
ATOM     18  C   UNL     1       2.342   7.705  18.953  0.00  0.00    +0.000 A 
ATOM     19  C   UNL     1       1.723   7.616  20.199  0.00  0.00    +0.000 A 
ATOM     20  C   UNL     1       1.652   6.363  20.801  0.00  0.00    +0.000 A 
ATOM     21  C   UNL     1       2.313   5.248  20.266  0.00  0.00    +0.000 A 
ATOM     22  C   UNL     1       3.036   5.363  19.061  0.00  0.00    +0.000 A 
BRANCH  17  24
ATOM     23  C   UNL     1       5.146   6.950  17.341  0.00  0.00    +0.000 C 
ATOM     24  O   UNL     1       3.732   6.768  17.229  0.00  0.00    +0.000 OA
ENDBRANCH  17  24
BRANCH  21  25
ATOM     25  O   UNL     1       2.169   4.165  21.096  0.00  0.00    +0.000 OA
ATOM     26  C   UNL     1       1.122   3.236  20.868  0.00  0.00    +0.000 C 
ENDBRANCH  21  25
BRANCH  22  27
ATOM     27  O   UNL     1       3.658   4.225  18.630  0.00  0.00    +0.000 OA
ATOM     28  C   UNL     1       3.064   3.399  17.644  0.00  0.00    +0.000 C 
ENDBRANCH  22  27
ENDBRANCH   1  19
TORSDOF 5
ENDMDL
MODEL 7
REMARK VINA RESULT:      -8.0      0.871      1.267
REMARK  Name = 
REMARK  8 active torsions:
REMARK  status: ('A' for Active; 'I' for Inactive)
REMARK    1  A    between atoms: C_1  and  O_2
REMARK    2  A    between atoms: O_2  and  C_3
REMARK    3  A    between atoms: C_5  and  C_6
REMARK    4  A    between atoms: C_12  and  C_13
REMARK    5  A    between atoms: C_23  and  O_24
REMARK    6  A    between atoms: O_24  and  C_25
REMARK    7  A    between atoms: C_26  and  O_27
REMARK    8  A    between atoms: O_27  and  C_28
REMARK                            x       y       z     vdW  Elec       q    Type
REMARK                         _______ _______ _______ _____ _____    ______ ____
ROOT
ATOM      1  C   UNL     1       4.328   3.371  17.748  0.00  0.00    +0.000 A 
ATOM      2  N   UNL     1       4.135   2.102  18.070  0.00  0.00    +0.000 NA
ATOM      3  N   UNL     1       3.068   2.016  18.932  0.00  0.00    +0.000 NA
ATOM      4  C   UNL     1       2.597   3.229  19.106  0.00  0.00    +0.000 A 
ATOM      5  C   UNL     1       1.514   3.734  19.876  0.00  0.00    +0.000 A 
ATOM      6  C   UNL     1       1.255   5.057  19.873  0.00  0.00    +0.000 A 
ATOM      7  C   UNL     1       2.041   5.997  19.077  0.00  0.00    +0.000 A 
ATOM      8  C   UNL     1       3.042   5.503  18.321  0.00  0.00    +0.000 A 
ATOM      9  N   UNL     1       3.342   4.135  18.362  0.00  0.00    +0.000 N 
ENDROOT
BRANCH   7  10
ATOM     10  C   UNL     1       1.830   7.450  19.101  0.00  0.00    +0.000 A 
ATOM     11  C   UNL     1       1.441   8.105  20.276  0.00  0.00    +0.000 A 
ATOM     12  C   UNL     1       1.285   9.494  20.283  0.00  0.00    +0.000 A 
ATOM     13  C   UNL     1       1.515  10.219  19.119  0.00  0.00    +0.000 A 
ATOM     14  F   UNL     1       1.379  11.552  19.134  0.00  0.00    +0.000 F 
ATOM     15  C   UNL     1       1.891   9.583  17.942  0.00  0.00    +0.000 A 
ATOM     16  C   UNL     1       2.048   8.197  17.931  0.00  0.00    +0.000 A 
ENDBRANCH   7  10
BRANCH   1  19
ATOM     17  C   UNL     1       6.129   3.907  14.488  0.00  0.00    +0.000 A 
ATOM     18  C   UNL     1       5.375   3.307  15.511  0.00  0.00    +0.000 A 
ATOM     19  C   UNL     1       5.326   3.857  16.792  0.00  0.00    +0.000 A 
ATOM     20  C   UNL     1       6.200   4.899  17.085  0.00  0.00    +0.000 A 
ATOM     21  C   UNL     1       6.995   5.497  16.096  0.00  0.00    +0.000 A 
ATOM     22  C   UNL     1       6.960   5.014  14.772  0.00  0.00    +0.000 A 
BRANCH  17  24
ATOM     23  C   UNL     1       4.813   3.501  12.549  0.00  0.00    +0.000 C 
ATOM     24  O   UNL     1       6.075   3.402  13.213  0.00  0.00    +0.000 OA
ENDBRANCH  17  24
BRANCH  21  25
ATOM     25  O   UNL     1       7.688   6.560  16.619  0.00  0.00    +0.000 OA
ATOM     26  C   UNL     1       7.595   6.850  18.004  0.00  0.00    +0.000 C 
ENDBRANCH  21  25
BRANCH  22  27
ATOM     27  O   UNL     1       7.759   5.672  13.878  0.00  0.00    +0.000 OA
ATOM     28  C   UNL     1       7.934   5.183  12.560  0.00  0.00    +0.000 C 
ENDBRANCH  22  27
ENDBRANCH   1  19
TORSDOF 5
ENDMDL
MODEL 8
REMARK VINA RESULT:      -7.6      3.697      7.259
REMARK  Name = 
REMARK  8 active torsions:
REMARK  status: ('A' for Active; 'I' for Inactive)
REMARK    1  A    between atoms: C_1  and  O_2
REMARK    2  A    between atoms: O_2  and  C_3
REMARK    3  A    between atoms: C_5  and  C_6
REMARK    4  A    between atoms: C_12  and  C_13
REMARK    5  A    between atoms: C_23  and  O_24
REMARK    6  A    between atoms: O_24  and  C_25
REMARK    7  A    between atoms: C_26  and  O_27
REMARK    8  A    between atoms: O_27  and  C_28
REMARK                            x       y       z     vdW  Elec       q    Type
REMARK                         _______ _______ _______ _____ _____    ______ ____
ROOT
ATOM      1  C   UNL     1       1.747   5.418  20.091  0.00  0.00    +0.000 A 
ATOM      2  N   UNL     1       1.026   4.618  20.860  0.00  0.00    +0.000 NA
ATOM      3  N   UNL     1       1.355   3.313  20.583  0.00  0.00    +0.000 NA
ATOM      4  C   UNL     1       2.297   3.325  19.668  0.00  0.00    +0.000 A 
ATOM      5  C   UNL     1       3.011   2.283  19.016  0.00  0.00    +0.000 A 
ATOM      6  C   UNL     1       3.942   2.592  18.092  0.00  0.00    +0.000 A 
ATOM      7  C   UNL     1       4.265   3.976  17.753  0.00  0.00    +0.000 A 
ATOM      8  C   UNL     1       3.609   4.957  18.404  0.00  0.00    +0.000 A 
ATOM      9  N   UNL     1       2.607   4.636  19.329  0.00  0.00    +0.000 N 
ENDROOT
BRANCH   7  10
ATOM     10  C   UNL     1       5.226   4.349  16.705  0.00  0.00    +0.000 A 
ATOM     11  C   UNL     1       6.520   4.776  17.030  0.00  0.00    +0.000 A 
ATOM     12  C   UNL     1       7.428   5.087  16.015  0.00  0.00    +0.000 A 
ATOM     13  C   UNL     1       7.040   4.974  14.684  0.00  0.00    +0.000 A 
ATOM     14  F   UNL     1       7.918   5.259  13.714  0.00  0.00    +0.000 F 
ATOM     15  C   UNL     1       5.756   4.563  14.346  0.00  0.00    +0.000 A 
ATOM     16  C   UNL     1       4.847   4.251  15.357  0.00  0.00    +0.000 A 
ENDBRANCH   7  10
BRANCH   1  19
ATOM     17  C   UNL     1       1.598   8.995  18.936  0.00  0.00    +0.000 A 
ATOM     18  C   UNL     1       1.862   7.615  18.969  0.00  0.00    +0.000 A 
ATOM     19  C   UNL     1       1.733   6.882  20.148  0.00  0.00    +0.000 A 
ATOM     20  C   UNL     1       1.530   7.585  21.331  0.00  0.00    +0.000 A 
ATOM     21  C   UNL     1       1.300   8.968  21.338  0.00  0.00    +0.000 A 
ATOM     22  C   UNL     1       1.318   9.696  20.131  0.00  0.00    +0.000 A 
BRANCH  17  24
ATOM     23  C   UNL     1       2.485  10.817  17.690  0.00  0.00    +0.000 C 
ATOM     24  O   UNL     1       1.634   9.670  17.741  0.00  0.00    +0.000 OA
ENDBRANCH  17  24
BRANCH  21  25
ATOM     25  O   UNL     1       1.032   9.401  22.613  0.00  0.00    +0.000 OA
ATOM     26  C   UNL     1      -0.307   9.448  23.075  0.00  0.00    +0.000 C 
ENDBRANCH  21  25
BRANCH  22  27
ATOM     27  O   UNL     1       1.068  11.036  20.240  0.00  0.00    +0.000 OA
ATOM     28  C   UNL     1      -0.237  11.551  20.048  0.00  0.00    +0.000 C 
ENDBRANCH  22  27
ENDBRANCH   1  19
TORSDOF 5
ENDMDL
MODEL 9
REMARK VINA RESULT:      -7.4      8.509     10.948
REMARK  Name = 
REMARK  8 active torsions:
REMARK  status: ('A' for Active; 'I' for Inactive)
REMARK    1  A    between atoms: C_1  and  O_2
REMARK    2  A    between atoms: O_2  and  C_3
REMARK    3  A    between atoms: C_5  and  C_6
REMARK    4  A    between atoms: C_12  and  C_13
REMARK    5  A    between atoms: C_23  and  O_24
REMARK    6  A    between atoms: O_24  and  C_25
REMARK    7  A    between atoms: C_26  and  O_27
REMARK    8  A    between atoms: O_27  and  C_28
REMARK                            x       y       z     vdW  Elec       q    Type
REMARK                         _______ _______ _______ _____ _____    ______ ____
ROOT
ATOM      1  C   UNL     1      -2.248  11.811  18.293  0.00  0.00    +0.000 A 
ATOM      2  N   UNL     1      -2.226  11.361  17.049  0.00  0.00    +0.000 NA
ATOM      3  N   UNL     1      -3.508  11.060  16.659  0.00  0.00    +0.000 NA
ATOM      4  C   UNL     1      -4.309  11.355  17.657  0.00  0.00    +0.000 A 
ATOM      5  C   UNL     1      -5.718  11.259  17.815  0.00  0.00    +0.000 A 
ATOM      6  C   UNL     1      -6.285  11.638  18.977  0.00  0.00    +0.000 A 
ATOM      7  C   UNL     1      -5.496  12.176  20.083  0.00  0.00    +0.000 A 
ATOM      8  C   UNL     1      -4.165  12.299  19.909  0.00  0.00    +0.000 A 
ATOM      9  N   UNL     1      -3.570  11.859  18.720  0.00  0.00    +0.000 N 
ENDROOT
BRANCH   7  10
ATOM     10  C   UNL     1      -6.070  12.537  21.386  0.00  0.00    +0.000 A 
ATOM     11  C   UNL     1      -5.389  13.388  22.266  0.00  0.00    +0.000 A 
ATOM     12  C   UNL     1      -5.973  13.749  23.482  0.00  0.00    +0.000 A 
ATOM     13  C   UNL     1      -7.231  13.257  23.815  0.00  0.00    +0.000 A 
ATOM     14  F   UNL     1      -7.795  13.617  24.976  0.00  0.00    +0.000 F 
ATOM     15  C   UNL     1      -7.915  12.403  22.959  0.00  0.00    +0.000 A 
ATOM     16  C   UNL     1      -7.335  12.041  21.743  0.00  0.00    +0.000 A 
ENDBRANCH   7  10
BRANCH   1  19
ATOM     17  C   UNL     1       0.200  14.222  19.828  0.00  0.00    +0.000 A 
ATOM     18  C   UNL     1      -0.737  13.652  18.948  0.00  0.00    +0.000 A 
ATOM     19  C   UNL     1      -1.083  12.304  19.033  0.00  0.00    +0.000 A 
ATOM     20  C   UNL     1      -0.333  11.493  19.879  0.00  0.00    +0.000 A 
ATOM     21  C   UNL     1       0.636  12.023  20.743  0.00  0.00    +0.000 A 
ATOM     22  C   UNL     1       0.909  13.406  20.739  0.00  0.00    +0.000 A 
BRANCH  17  24
ATOM     23  C   UNL     1      -0.125  16.281  18.683  0.00  0.00    +0.000 C 
ATOM     24  O   UNL     1       0.443  15.572  19.787  0.00  0.00    +0.000 OA
ENDBRANCH  17  24
BRANCH  21  25
ATOM     25  O   UNL     1       1.160  11.034  21.537  0.00  0.00    +0.000 OA
ATOM     26  C   UNL     1       0.335   9.963  21.966  0.00  0.00    +0.000 C 
ENDBRANCH  21  25
BRANCH  22  27
ATOM     27  O   UNL     1       1.858  13.828  21.628  0.00  0.00    +0.000 OA
ATOM     28  C   UNL     1       3.212  13.968  21.236  0.00  0.00    +0.000 C 
ENDBRANCH  22  27
ENDBRANCH   1  19
TORSDOF 5
ENDMDL
