MODEL 1
REMARK VINA RESULT:      -7.6      0.000      0.000
REMARK  Name = 
REMARK  9 active torsions:
REMARK  status: ('A' for Active; 'I' for Inactive)
REMARK    1  A    between atoms: C_1  and  C_2
REMARK    2  A    between atoms: C_2  and  C_3
REMARK    3  A    between atoms: C_3  and  C_4
REMARK    4  A    between atoms: C_12  and  S_13
REMARK    5  A    between atoms: S_13  and  C_14
REMARK    6  A    between atoms: C_14  and  C_15
REMARK    7  A    between atoms: N_17  and  C_18
REMARK    8  A    between atoms: C_18  and  C_19
REMARK    9  A    between atoms: C_19  and  C_20
REMARK                            x       y       z     vdW  Elec       q    Type
REMARK                         _______ _______ _______ _____ _____    ______ ____
ROOT
ATOM      1  C   UNL     1       5.878   4.521  16.266  0.00  0.00    +0.000 A 
ATOM      2  C   UNL     1       6.630   5.616  16.047  0.00  0.00    +0.000 A 
ATOM      3  C   UNL     1       7.147   6.465  17.162  0.00  0.00    +0.000 A 
ATOM      4  O   UNL     1       7.835   7.452  16.923  0.00  0.00    +0.000 OA
ATOM      5  N   UNL     1       6.843   6.048  18.416  0.00  0.00    +0.000 N 
ATOM      6  C   UNL     1       6.089   4.929  18.653  0.00  0.00    +0.000 A 
ATOM      7  N   UNL     1       5.757   4.455  19.821  0.00  0.00    +0.000 NA
ATOM      8  N   UNL     1       4.968   3.368  19.611  0.00  0.00    +0.000 NA
ATOM      9  C   UNL     1       4.805   3.210  18.307  0.00  0.00    +0.000 A 
ATOM     10  N   UNL     1       5.557   4.167  17.620  0.00  0.00    +0.000 N 
ATOM     11  H   UNL     1       7.188   6.581  19.211  0.00  0.00    +0.000 HD
ENDROOT
BRANCH   1  12
ATOM     12  C   UNL     1       5.471   3.721  15.049  0.00  0.00    +0.000 C 
BRANCH  12  14
ATOM     13  C   UNL     1       5.830   3.431  12.549  0.00  0.00    +0.000 C 
ATOM     14  C   UNL     1       6.322   4.087  13.830  0.00  0.00    +0.000 C 
ENDBRANCH  12  14
ENDBRANCH   1  12
BRANCH   9  15
ATOM     15  S   UNL     1       3.729   2.005  17.674  0.00  0.00    +0.000 S 
BRANCH  15  16
ATOM     16  C   UNL     1       2.241   2.149  18.763  0.00  0.00    +0.000 C 
BRANCH  16  17
ATOM     17  C   UNL     1       1.775   3.597  18.923  0.00  0.00    +0.000 C 
ATOM     18  O   UNL     1       1.181   4.213  18.044  0.00  0.00    +0.000 OA
ATOM     19  N   UNL     1       2.070   4.110  20.174  0.00  0.00    +0.000 N 
ATOM     20  H   UNL     1       2.700   3.582  20.776  0.00  0.00    +0.000 HD
BRANCH  19  21
ATOM     21  C   UNL     1       1.799   5.489  20.540  0.00  0.00    +0.000 C 
BRANCH  21  22
ATOM     22  C   UNL     1       2.749   6.487  19.875  0.00  0.00    +0.000 C 
BRANCH  22  23
ATOM     23  C   UNL     1       2.045   7.763  19.487  0.00  0.00    +0.000 A 
ATOM     24  C   UNL     1       1.279   8.465  20.427  0.00  0.00    +0.000 A 
ATOM     25  C   UNL     1       0.627   9.647  20.066  0.00  0.00    +0.000 A 
ATOM     26  C   UNL     1       0.737  10.134  18.766  0.00  0.00    +0.000 A 
ATOM     27  C   UNL     1       1.494   9.442  17.823  0.00  0.00    +0.000 A 
ATOM     28  C   UNL     1       2.142   8.256  18.180  0.00  0.00    +0.000 A 
ENDBRANCH  22  23
ENDBRANCH  21  22
ENDBRANCH  19  21
ENDBRANCH  16  17
ENDBRANCH  15  16
ENDBRANCH   9  15
TORSDOF 8
ENDMDL
MODEL 2
REMARK VINA RESULT:      -7.4      3.143      7.102
REMARK  Name = 
REMARK  9 active torsions:
REMARK  status: ('A' for Active; 'I' for Inactive)
REMARK    1  A    between atoms: C_1  and  C_2
REMARK    2  A    between atoms: C_2  and  C_3
REMARK    3  A    between atoms: C_3  and  C_4
REMARK    4  A    between atoms: C_12  and  S_13
REMARK    5  A    between atoms: S_13  and  C_14
REMARK    6  A    between atoms: C_14  and  C_15
REMARK    7  A    between atoms: N_17  and  C_18
REMARK    8  A    between atoms: C_18  and  C_19
REMARK    9  A    between atoms: C_19  and  C_20
REMARK                            x       y       z     vdW  Elec       q    Type
REMARK                         _______ _______ _______ _____ _____    ______ ____
ROOT
ATOM      1  C   UNL     1       0.723   9.290  20.208  0.00  0.00    +0.000 A 
ATOM      2  C   UNL     1       0.420  10.577  19.951  0.00  0.00    +0.000 A 
ATOM      3  C   UNL     1       0.947  11.296  18.754  0.00  0.00    +0.000 A 
ATOM      4  O   UNL     1       0.644  12.468  18.552  0.00  0.00    +0.000 OA
ATOM      5  N   UNL     1       1.723  10.567  17.916  0.00  0.00    +0.000 N 
ATOM      6  C   UNL     1       2.028   9.253  18.158  0.00  0.00    +0.000 A 
ATOM      7  N   UNL     1       2.758   8.479  17.405  0.00  0.00    +0.000 NA
ATOM      8  N   UNL     1       2.853   7.275  18.029  0.00  0.00    +0.000 NA
ATOM      9  C   UNL     1       2.199   7.342  19.178  0.00  0.00    +0.000 A 
ATOM     10  N   UNL     1       1.589   8.593  19.299  0.00  0.00    +0.000 N 
ATOM     11  H   UNL     1       2.091  11.005  17.075  0.00  0.00    +0.000 HD
ENDROOT
BRANCH   1  12
ATOM     12  C   UNL     1       0.074   8.668  21.424  0.00  0.00    +0.000 C 
BRANCH  12  14
ATOM     13  C   UNL     1      -0.843  10.247  23.192  0.00  0.00    +0.000 C 
ATOM     14  C   UNL     1       0.369   9.478  22.690  0.00  0.00    +0.000 C 
ENDBRANCH  12  14
ENDBRANCH   1  12
BRANCH   9  15
ATOM     15  S   UNL     1       2.235   6.029  20.312  0.00  0.00    +0.000 S 
BRANCH  15  16
ATOM     16  C   UNL     1       1.786   4.562  19.279  0.00  0.00    +0.000 C 
BRANCH  16  17
ATOM     17  C   UNL     1       3.017   3.827  18.748  0.00  0.00    +0.000 C 
ATOM     18  O   UNL     1       3.628   2.982  19.395  0.00  0.00    +0.000 OA
ATOM     19  N   UNL     1       3.335   4.198  17.453  0.00  0.00    +0.000 N 
ATOM     20  H   UNL     1       2.870   5.015  17.058  0.00  0.00    +0.000 HD
BRANCH  19  21
ATOM     21  C   UNL     1       4.507   3.699  16.758  0.00  0.00    +0.000 C 
BRANCH  21  22
ATOM     22  C   UNL     1       5.278   4.791  16.014  0.00  0.00    +0.000 C 
BRANCH  22  23
ATOM     23  C   UNL     1       6.245   5.515  16.917  0.00  0.00    +0.000 A 
ATOM     24  C   UNL     1       6.473   6.888  16.758  0.00  0.00    +0.000 A 
ATOM     25  C   UNL     1       7.371   7.556  17.594  0.00  0.00    +0.000 A 
ATOM     26  C   UNL     1       8.044   6.858  18.595  0.00  0.00    +0.000 A 
ATOM     27  C   UNL     1       7.824   5.492  18.760  0.00  0.00    +0.000 A 
ATOM     28  C   UNL     1       6.933   4.820  17.920  0.00  0.00    +0.000 A 
ENDBRANCH  22  23
ENDBRANCH  21  22
ENDBRANCH  19  21
ENDBRANCH  16  17
ENDBRANCH  15  16
ENDBRANCH   9  15
TORSDOF 8
ENDMDL
MODEL 3
REMARK VINA RESULT:      -7.3      1.097      1.594
REMARK  Name = 
REMARK  9 active torsions:
REMARK  status: ('A' for Active; 'I' for Inactive)
REMARK    1  A    between atoms: C_1  and  C_2
REMARK    2  A    between atoms: C_2  and  C_3
REMARK    3  A    between atoms: C_3  and  C_4
REMARK    4  A    between atoms: C_12  and  S_13
REMARK    5  A    between atoms: S_13  and  C_14
REMARK    6  A    between atoms: C_14  and  C_15
REMARK    7  A    between atoms: N_17  and  C_18
REMARK    8  A    between atoms: C_18  and  C_19
REMARK    9  A    between atoms: C_19  and  C_20
REMARK                            x       y       z     vdW  Elec       q    Type
REMARK                         _______ _______ _______ _____ _____    ______ ____
ROOT
ATOM      1  C   UNL     1       5.873   5.811  16.856  0.00  0.00    +0.000 A 
ATOM      2  C   UNL     1       6.856   6.673  17.175  0.00  0.00    +0.000 A 
ATOM      3  C   UNL     1       7.562   6.627  18.490  0.00  0.00    +0.000 A 
ATOM      4  O   UNL     1       8.458   7.426  18.741  0.00  0.00    +0.000 OA
ATOM      5  N   UNL     1       7.178   5.640  19.336  0.00  0.00    +0.000 N 
ATOM      6  C   UNL     1       6.188   4.748  19.019  0.00  0.00    +0.000 A 
ATOM      7  N   UNL     1       5.763   3.769  19.766  0.00  0.00    +0.000 NA
ATOM      8  N   UNL     1       4.743   3.162  19.104  0.00  0.00    +0.000 NA
ATOM      9  C   UNL     1       4.539   3.804  17.964  0.00  0.00    +0.000 A 
ATOM     10  N   UNL     1       5.487   4.820  17.821  0.00  0.00    +0.000 N 
ATOM     11  H   UNL     1       7.642   5.553  20.237  0.00  0.00    +0.000 HD
ENDROOT
BRANCH   1  12
ATOM     12  C   UNL     1       5.283   5.934  15.469  0.00  0.00    +0.000 C 
BRANCH  12  14
ATOM     13  C   UNL     1       6.198   3.722  14.611  0.00  0.00    +0.000 C 
ATOM     14  C   UNL     1       6.159   5.231  14.427  0.00  0.00    +0.000 C 
ENDBRANCH  12  14
ENDBRANCH   1  12
BRANCH   9  15
ATOM     15  S   UNL     1       3.210   3.396  16.926  0.00  0.00    +0.000 S 
BRANCH  15  16
ATOM     16  C   UNL     1       2.222   2.210  17.946  0.00  0.00    +0.000 C 
BRANCH  16  17
ATOM     17  C   UNL     1       1.293   2.923  18.930  0.00  0.00    +0.000 C 
ATOM     18  O   UNL     1       0.146   2.555  19.160  0.00  0.00    +0.000 OA
ATOM     19  N   UNL     1       1.907   3.999  19.549  0.00  0.00    +0.000 N 
ATOM     20  H   UNL     1       2.801   4.322  19.180  0.00  0.00    +0.000 HD
BRANCH  19  21
ATOM     21  C   UNL     1       1.207   4.881  20.464  0.00  0.00    +0.000 C 
BRANCH  21  22
ATOM     22  C   UNL     1       2.043   6.088  20.896  0.00  0.00    +0.000 C 
BRANCH  22  23
ATOM     23  C   UNL     1       2.027   7.185  19.860  0.00  0.00    +0.000 A 
ATOM     24  C   UNL     1       2.725   7.033  18.655  0.00  0.00    +0.000 A 
ATOM     25  C   UNL     1       2.710   8.051  17.698  0.00  0.00    +0.000 A 
ATOM     26  C   UNL     1       1.998   9.224  17.938  0.00  0.00    +0.000 A 
ATOM     27  C   UNL     1       1.303   9.384  19.135  0.00  0.00    +0.000 A 
ATOM     28  C   UNL     1       1.322   8.372  20.096  0.00  0.00    +0.000 A 
ENDBRANCH  22  23
ENDBRANCH  21  22
ENDBRANCH  19  21
ENDBRANCH  16  17
ENDBRANCH  15  16
ENDBRANCH   9  15
TORSDOF 8
ENDMDL
MODEL 4
REMARK VINA RESULT:      -7.3      0.655      1.124
REMARK  Name = 
REMARK  9 active torsions:
REMARK  status: ('A' for Active; 'I' for Inactive)
REMARK    1  A    between atoms: C_1  and  C_2
REMARK    2  A    between atoms: C_2  and  C_3
REMARK    3  A    between atoms: C_3  and  C_4
REMARK    4  A    between atoms: C_12  and  S_13
REMARK    5  A    between atoms: S_13  and  C_14
REMARK    6  A    between atoms: C_14  and  C_15
REMARK    7  A    between atoms: N_17  and  C_18
REMARK    8  A    between atoms: C_18  and  C_19
REMARK    9  A    between atoms: C_19  and  C_20
REMARK                            x       y       z     vdW  Elec       q    Type
REMARK                         _______ _______ _______ _____ _____    ______ ____
ROOT
ATOM      1  C   UNL     1       5.868   4.555  16.263  0.00  0.00    +0.000 A 
ATOM      2  C   UNL     1       6.607   5.647  15.988  0.00  0.00    +0.000 A 
ATOM      3  C   UNL     1       7.098   6.567  17.056  0.00  0.00    +0.000 A 
ATOM      4  O   UNL     1       7.775   7.549  16.766  0.00  0.00    +0.000 OA
ATOM      5  N   UNL     1       6.787   6.220  18.329  0.00  0.00    +0.000 N 
ATOM      6  C   UNL     1       6.047   5.105  18.623  0.00  0.00    +0.000 A 
ATOM      7  N   UNL     1       5.709   4.696  19.814  0.00  0.00    +0.000 NA
ATOM      8  N   UNL     1       4.938   3.586  19.660  0.00  0.00    +0.000 NA
ATOM      9  C   UNL     1       4.792   3.350  18.366  0.00  0.00    +0.000 A 
ATOM     10  N   UNL     1       5.537   4.276  17.632  0.00  0.00    +0.000 N 
ATOM     11  H   UNL     1       7.115   6.804  19.095  0.00  0.00    +0.000 HD
ENDROOT
BRANCH   1  12
ATOM     12  C   UNL     1       5.486   3.680  15.091  0.00  0.00    +0.000 C 
BRANCH  12  14
ATOM     13  C   UNL     1       5.753   3.425  12.575  0.00  0.00    +0.000 C 
ATOM     14  C   UNL     1       6.340   3.992  13.859  0.00  0.00    +0.000 C 
ENDBRANCH  12  14
ENDBRANCH   1  12
BRANCH   9  15
ATOM     15  S   UNL     1       3.741   2.094  17.793  0.00  0.00    +0.000 S 
BRANCH  15  16
ATOM     16  C   UNL     1       2.143   2.978  17.499  0.00  0.00    +0.000 C 
BRANCH  16  17
ATOM     17  C   UNL     1       1.478   3.427  18.801  0.00  0.00    +0.000 C 
ATOM     18  O   UNL     1       0.621   2.769  19.381  0.00  0.00    +0.000 OA
ATOM     19  N   UNL     1       1.980   4.633  19.260  0.00  0.00    +0.000 N 
ATOM     20  H   UNL     1       2.571   5.178  18.635  0.00  0.00    +0.000 HD
BRANCH  19  21
ATOM     21  C   UNL     1       1.454   5.305  20.435  0.00  0.00    +0.000 C 
BRANCH  21  22
ATOM     22  C   UNL     1       2.243   6.561  20.813  0.00  0.00    +0.000 C 
BRANCH  22  23
ATOM     23  C   UNL     1       1.857   7.746  19.963  0.00  0.00    +0.000 A 
ATOM     24  C   UNL     1       2.314   7.851  18.642  0.00  0.00    +0.000 A 
ATOM     25  C   UNL     1       1.957   8.950  17.858  0.00  0.00    +0.000 A 
ATOM     26  C   UNL     1       1.143   9.949  18.386  0.00  0.00    +0.000 A 
ATOM     27  C   UNL     1       0.686   9.854  19.699  0.00  0.00    +0.000 A 
ATOM     28  C   UNL     1       1.046   8.760  20.488  0.00  0.00    +0.000 A 
ENDBRANCH  22  23
ENDBRANCH  21  22
ENDBRANCH  19  21
ENDBRANCH  16  17
ENDBRANCH  15  16
ENDBRANCH   9  15
TORSDOF 8
ENDMDL
MODEL 5
REMARK VINA RESULT:      -7.3      0.970      1.355
REMARK  Name = 
REMARK  9 active torsions:
REMARK  status: ('A' for Active; 'I' for Inactive)
REMARK    1  A    between atoms: C_1  and  C_2
REMARK    2  A    between atoms: C_2  and  C_3
REMARK    3  A    between atoms: C_3  and  C_4
REMARK    4  A    between atoms: C_12  and  S_13
REMARK    5  A    between atoms: S_13  and  C_14
REMARK    6  A    between atoms: C_14  and  C_15
REMARK    7  A    between atoms: N_17  and  C_18
REMARK    8  A    between atoms: C_18  and  C_19
REMARK    9  A    between atoms: C_19  and  C_20
REMARK                            x       y       z     vdW  Elec       q    Type
REMARK                         _______ _______ _______ _____ _____    ______ ____
ROOT
ATOM      1  C   UNL     1       5.897   4.756  16.289  0.00  0.00    +0.000 A 
ATOM      2  C   UNL     1       6.717   5.793  16.035  0.00  0.00    +0.000 A 
ATOM      3  C   UNL     1       7.322   6.616  17.125  0.00  0.00    +0.000 A 
ATOM      4  O   UNL     1       8.070   7.550  16.854  0.00  0.00    +0.000 OA
ATOM      5  N   UNL     1       7.026   6.236  18.391  0.00  0.00    +0.000 N 
ATOM      6  C   UNL     1       6.203   5.175  18.663  0.00  0.00    +0.000 A 
ATOM      7  N   UNL     1       5.872   4.738  19.846  0.00  0.00    +0.000 NA
ATOM      8  N   UNL     1       5.004   3.706  19.672  0.00  0.00    +0.000 NA
ATOM      9  C   UNL     1       4.793   3.546  18.375  0.00  0.00    +0.000 A 
ATOM     10  N   UNL     1       5.590   4.440  17.655  0.00  0.00    +0.000 N 
ATOM     11  H   UNL     1       7.429   6.752  19.170  0.00  0.00    +0.000 HD
ENDROOT
BRANCH   1  12
ATOM     12  C   UNL     1       5.401   3.973  15.094  0.00  0.00    +0.000 C 
BRANCH  12  14
ATOM     13  C   UNL     1       5.840   3.407  12.654  0.00  0.00    +0.000 C 
ATOM     14  C   UNL     1       6.260   4.242  13.855  0.00  0.00    +0.000 C 
ENDBRANCH  12  14
ENDBRANCH   1  12
BRANCH   9  15
ATOM     15  S   UNL     1       3.619   2.412  17.787  0.00  0.00    +0.000 S 
BRANCH  15  16
ATOM     16  C   UNL     1       2.121   3.460  17.502  0.00  0.00    +0.000 C 
BRANCH  16  17
ATOM     17  C   UNL     1       1.958   4.542  18.571  0.00  0.00    +0.000 C 
ATOM     18  O   UNL     1       1.366   4.358  19.629  0.00  0.00    +0.000 OA
ATOM     19  N   UNL     1       2.580   5.728  18.220  0.00  0.00    +0.000 N 
ATOM     20  H   UNL     1       2.908   5.835  17.261  0.00  0.00    +0.000 HD
BRANCH  19  21
ATOM     21  C   UNL     1       2.499   6.927  19.034  0.00  0.00    +0.000 C 
BRANCH  21  22
ATOM     22  C   UNL     1       2.132   8.177  18.230  0.00  0.00    +0.000 C 
BRANCH  22  23
ATOM     23  C   UNL     1       1.351   9.169  19.054  0.00  0.00    +0.000 A 
ATOM     24  C   UNL     1       1.075   8.909  20.403  0.00  0.00    +0.000 A 
ATOM     25  C   UNL     1       0.350   9.829  21.165  0.00  0.00    +0.000 A 
ATOM     26  C   UNL     1      -0.101  11.013  20.585  0.00  0.00    +0.000 A 
ATOM     27  C   UNL     1       0.167  11.278  19.244  0.00  0.00    +0.000 A 
ATOM     28  C   UNL     1       0.885  10.358  18.478  0.00  0.00    +0.000 A 
ENDBRANCH  22  23
ENDBRANCH  21  22
ENDBRANCH  19  21
ENDBRANCH  16  17
ENDBRANCH  15  16
ENDBRANCH   9  15
TORSDOF 8
ENDMDL
MODEL 6
REMARK VINA RESULT:      -7.2      1.194      1.362
REMARK  Name = 
REMARK  9 active torsions:
REMARK  status: ('A' for Active; 'I' for Inactive)
REMARK    1  A    between atoms: C_1  and  C_2
REMARK    2  A    between atoms: C_2  and  C_3
REMARK    3  A    between atoms: C_3  and  C_4
REMARK    4  A    between atoms: C_12  and  S_13
REMARK    5  A    between atoms: S_13  and  C_14
REMARK    6  A    between atoms: C_14  and  C_15
REMARK    7  A    between atoms: N_17  and  C_18
REMARK    8  A    between atoms: C_18  and  C_19
REMARK    9  A    between atoms: C_19  and  C_20
REMARK                            x       y       z     vdW  Elec       q    Type
REMARK                         _______ _______ _______ _____ _____    ______ ____
ROOT
ATOM      1  C   UNL     1       5.821   5.611  16.392  0.00  0.00    +0.000 A 
ATOM      2  C   UNL     1       6.605   6.703  16.300  0.00  0.00    +0.000 A 
ATOM      3  C   UNL     1       7.362   7.241  17.468  0.00  0.00    +0.000 A 
ATOM      4  O   UNL     1       8.071   8.235  17.342  0.00  0.00    +0.000 OA
ATOM      5  N   UNL     1       7.244   6.545  18.625  0.00  0.00    +0.000 N 
ATOM      6  C   UNL     1       6.461   5.426  18.729  0.00  0.00    +0.000 A 
ATOM      7  N   UNL     1       6.297   4.696  19.796  0.00  0.00    +0.000 NA
ATOM      8  N   UNL     1       5.406   3.716  19.487  0.00  0.00    +0.000 NA
ATOM      9  C   UNL     1       5.014   3.882  18.234  0.00  0.00    +0.000 A 
ATOM     10  N   UNL     1       5.708   4.952  17.662  0.00  0.00    +0.000 N 
ATOM     11  H   UNL     1       7.757   6.860  19.446  0.00  0.00    +0.000 HD
ENDROOT
BRANCH   1  12
ATOM     12  C   UNL     1       5.157   5.141  15.118  0.00  0.00    +0.000 C 
BRANCH  12  14
ATOM     13  C   UNL     1       6.927   4.368  13.464  0.00  0.00    +0.000 C 
ATOM     14  C   UNL     1       5.901   3.950  14.507  0.00  0.00    +0.000 C 
ENDBRANCH  12  14
ENDBRANCH   1  12
BRANCH   9  15
ATOM     15  S   UNL     1       3.761   2.899  17.545  0.00  0.00    +0.000 S 
BRANCH  15  16
ATOM     16  C   UNL     1       3.154   1.913  18.987  0.00  0.00    +0.000 C 
BRANCH  16  17
ATOM     17  C   UNL     1       2.584   2.797  20.097  0.00  0.00    +0.000 C 
ATOM     18  O   UNL     1       2.769   2.583  21.291  0.00  0.00    +0.000 OA
ATOM     19  N   UNL     1       1.871   3.875  19.599  0.00  0.00    +0.000 N 
ATOM     20  H   UNL     1       1.639   3.882  18.607  0.00  0.00    +0.000 HD
BRANCH  19  21
ATOM     21  C   UNL     1       1.168   4.813  20.454  0.00  0.00    +0.000 C 
BRANCH  21  22
ATOM     22  C   UNL     1       2.038   5.992  20.898  0.00  0.00    +0.000 C 
BRANCH  22  23
ATOM     23  C   UNL     1       2.073   7.088  19.863  0.00  0.00    +0.000 A 
ATOM     24  C   UNL     1       1.366   8.280  20.067  0.00  0.00    +0.000 A 
ATOM     25  C   UNL     1       1.399   9.294  19.107  0.00  0.00    +0.000 A 
ATOM     26  C   UNL     1       2.139   9.124  17.939  0.00  0.00    +0.000 A 
ATOM     27  C   UNL     1       2.844   7.941  17.726  0.00  0.00    +0.000 A 
ATOM     28  C   UNL     1       2.807   6.923  18.681  0.00  0.00    +0.000 A 
ENDBRANCH  22  23
ENDBRANCH  21  22
ENDBRANCH  19  21
ENDBRANCH  16  17
ENDBRANCH  15  16
ENDBRANCH   9  15
TORSDOF 8
ENDMDL
MODEL 7
REMARK VINA RESULT:      -7.0      3.833      7.130
REMARK  Name = 
REMARK  9 active torsions:
REMARK  status: ('A' for Active; 'I' for Inactive)
REMARK    1  A    between atoms: C_1  and  C_2
REMARK    2  A    between atoms: C_2  and  C_3
REMARK    3  A    between atoms: C_3  and  C_4
REMARK    4  A    between atoms: C_12  and  S_13
REMARK    5  A    between atoms: S_13  and  C_14
REMARK    6  A    between atoms: C_14  and  C_15
REMARK    7  A    between atoms: N_17  and  C_18
REMARK    8  A    between atoms: C_18  and  C_19
REMARK    9  A    between atoms: C_19  and  C_20
REMARK                            x       y       z     vdW  Elec       q    Type
REMARK                         _______ _______ _______ _____ _____    ______ ____
ROOT
ATOM      1  C   UNL     1       2.581   5.969  19.847  0.00  0.00    +0.000 A 
ATOM      2  C   UNL     1       1.751   6.765  20.547  0.00  0.00    +0.000 A 
ATOM      3  C   UNL     1       1.426   8.156  20.115  0.00  0.00    +0.000 A 
ATOM      4  O   UNL     1       0.659   8.848  20.777  0.00  0.00    +0.000 OA
ATOM      5  N   UNL     1       1.989   8.564  18.951  0.00  0.00    +0.000 N 
ATOM      6  C   UNL     1       2.825   7.760  18.222  0.00  0.00    +0.000 A 
ATOM      7  N   UNL     1       3.401   8.068  17.094  0.00  0.00    +0.000 NA
ATOM      8  N   UNL     1       4.182   7.015  16.734  0.00  0.00    +0.000 NA
ATOM      9  C   UNL     1       4.093   6.084  17.670  0.00  0.00    +0.000 A 
ATOM     10  N   UNL     1       3.178   6.485  18.647  0.00  0.00    +0.000 N 
ATOM     11  H   UNL     1       1.782   9.497  18.602  0.00  0.00    +0.000 HD
ENDROOT
BRANCH   1  12
ATOM     12  C   UNL     1       2.778   4.564  20.367  0.00  0.00    +0.000 C 
BRANCH  12  14
ATOM     13  C   UNL     1       1.656   2.698  21.680  0.00  0.00    +0.000 C 
ATOM     14  C   UNL     1       1.457   3.959  20.853  0.00  0.00    +0.000 C 
ENDBRANCH  12  14
ENDBRANCH   1  12
BRANCH   9  15
ATOM     15  S   UNL     1       5.077   4.656  17.617  0.00  0.00    +0.000 S 
BRANCH  15  16
ATOM     16  C   UNL     1       6.694   5.229  18.309  0.00  0.00    +0.000 C 
BRANCH  16  17
ATOM     17  C   UNL     1       7.360   6.289  17.430  0.00  0.00    +0.000 C 
ATOM     18  O   UNL     1       7.586   6.128  16.235  0.00  0.00    +0.000 OA
ATOM     19  N   UNL     1       7.641   7.451  18.128  0.00  0.00    +0.000 N 
ATOM     20  H   UNL     1       7.563   7.434  19.144  0.00  0.00    +0.000 HD
BRANCH  19  21
ATOM     21  C   UNL     1       8.343   8.573  17.533  0.00  0.00    +0.000 C 
BRANCH  21  22
ATOM     22  C   UNL     1       8.012   9.912  18.197  0.00  0.00    +0.000 C 
BRANCH  22  23
ATOM     23  C   UNL     1       9.247  10.608  18.710  0.00  0.00    +0.000 A 
ATOM     24  C   UNL     1       9.407  10.852  20.081  0.00  0.00    +0.000 A 
ATOM     25  C   UNL     1      10.551  11.499  20.554  0.00  0.00    +0.000 A 
ATOM     26  C   UNL     1      11.542  11.904  19.662  0.00  0.00    +0.000 A 
ATOM     27  C   UNL     1      11.391  11.668  18.298  0.00  0.00    +0.000 A 
ATOM     28  C   UNL     1      10.245  11.028  17.821  0.00  0.00    +0.000 A 
ENDBRANCH  22  23
ENDBRANCH  21  22
ENDBRANCH  19  21
ENDBRANCH  16  17
ENDBRANCH  15  16
ENDBRANCH   9  15
TORSDOF 8
ENDMDL
MODEL 8
REMARK VINA RESULT:      -7.0      3.698      6.592
REMARK  Name = 
REMARK  9 active torsions:
REMARK  status: ('A' for Active; 'I' for Inactive)
REMARK    1  A    between atoms: C_1  and  C_2
REMARK    2  A    between atoms: C_2  and  C_3
REMARK    3  A    between atoms: C_3  and  C_4
REMARK    4  A    between atoms: C_12  and  S_13
REMARK    5  A    between atoms: S_13  and  C_14
REMARK    6  A    between atoms: C_14  and  C_15
REMARK    7  A    between atoms: N_17  and  C_18
REMARK    8  A    between atoms: C_18  and  C_19
REMARK    9  A    between atoms: C_19  and  C_20
REMARK                            x       y       z     vdW  Elec       q    Type
REMARK                         _______ _______ _______ _____ _____    ______ ____
ROOT
ATOM      1  C   UNL     1       2.969   5.883  19.424  0.00  0.00    +0.000 A 
ATOM      2  C   UNL     1       2.147   6.857  19.859  0.00  0.00    +0.000 A 
ATOM      3  C   UNL     1       2.018   8.166  19.152  0.00  0.00    +0.000 A 
ATOM      4  O   UNL     1       1.253   9.026  19.576  0.00  0.00    +0.000 OA
ATOM      5  N   UNL     1       2.754   8.306  18.022  0.00  0.00    +0.000 N 
ATOM      6  C   UNL     1       3.584   7.318  17.562  0.00  0.00    +0.000 A 
ATOM      7  N   UNL     1       4.318   7.367  16.486  0.00  0.00    +0.000 NA
ATOM      8  N   UNL     1       5.025   6.207  16.422  0.00  0.00    +0.000 NA
ATOM      9  C   UNL     1       4.732   5.474  17.484  0.00  0.00    +0.000 A 
ATOM     10  N   UNL     1       3.753   6.120  18.245  0.00  0.00    +0.000 N 
ATOM     11  H   UNL     1       2.686   9.173  17.493  0.00  0.00    +0.000 HD
ENDROOT
BRANCH   1  12
ATOM     12  C   UNL     1       2.958   4.586  20.201  0.00  0.00    +0.000 C 
BRANCH  12  14
ATOM     13  C   UNL     1       1.040   3.010  20.751  0.00  0.00    +0.000 C 
ATOM     14  C   UNL     1       1.905   3.617  19.656  0.00  0.00    +0.000 C 
ENDBRANCH  12  14
ENDBRANCH   1  12
BRANCH   9  15
ATOM     15  S   UNL     1       5.565   3.988  17.811  0.00  0.00    +0.000 S 
BRANCH  15  16
ATOM     16  C   UNL     1       7.346   4.487  17.797  0.00  0.00    +0.000 C 
BRANCH  16  17
ATOM     17  C   UNL     1       7.629   5.657  18.741  0.00  0.00    +0.000 C 
ATOM     18  O   UNL     1       7.569   5.566  19.962  0.00  0.00    +0.000 OA
ATOM     19  N   UNL     1       7.992   6.807  18.061  0.00  0.00    +0.000 N 
ATOM     20  H   UNL     1       7.862   6.831  17.050  0.00  0.00    +0.000 HD
BRANCH  19  21
ATOM     21  C   UNL     1       8.234   8.071  18.731  0.00  0.00    +0.000 C 
BRANCH  21  22
ATOM     22  C   UNL     1       8.318   9.257  17.768  0.00  0.00    +0.000 C 
BRANCH  22  23
ATOM     23  C   UNL     1       8.887  10.486  18.433  0.00  0.00    +0.000 A 
ATOM     24  C   UNL     1       8.773  11.741  17.821  0.00  0.00    +0.000 A 
ATOM     25  C   UNL     1       9.302  12.878  18.438  0.00  0.00    +0.000 A 
ATOM     26  C   UNL     1       9.946  12.767  19.668  0.00  0.00    +0.000 A 
ATOM     27  C   UNL     1      10.065  11.523  20.283  0.00  0.00    +0.000 A 
ATOM     28  C   UNL     1       9.544  10.384  19.666  0.00  0.00    +0.000 A 
ENDBRANCH  22  23
ENDBRANCH  21  22
ENDBRANCH  19  21
ENDBRANCH  16  17
ENDBRANCH  15  16
ENDBRANCH   9  15
TORSDOF 8
ENDMDL
MODEL 9
REMARK VINA RESULT:      -7.0      0.748      1.292
REMARK  Name = 
REMARK  9 active torsions:
REMARK  status: ('A' for Active; 'I' for Inactive)
REMARK    1  A    between atoms: C_1  and  C_2
REMARK    2  A    between atoms: C_2  and  C_3
REMARK    3  A    between atoms: C_3  and  C_4
REMARK    4  A    between atoms: C_12  and  S_13
REMARK    5  A    between atoms: S_13  and  C_14
REMARK    6  A    between atoms: C_14  and  C_15
REMARK    7  A    between atoms: N_17  and  C_18
REMARK    8  A    between atoms: C_18  and  C_19
REMARK    9  A    between atoms: C_19  and  C_20
REMARK                            x       y       z     vdW  Elec       q    Type
REMARK                         _______ _______ _______ _____ _____    ______ ____
ROOT
ATOM      1  C   UNL     1       5.738   4.685  16.361  0.00  0.00    +0.000 A 
ATOM      2  C   UNL     1       6.497   5.766  16.100  0.00  0.00    +0.000 A 
ATOM      3  C   UNL     1       7.122   6.582  17.183  0.00  0.00    +0.000 A 
ATOM      4  O   UNL     1       7.813   7.557  16.904  0.00  0.00    +0.000 OA
ATOM      5  N   UNL     1       6.909   6.151  18.450  0.00  0.00    +0.000 N 
ATOM      6  C   UNL     1       6.150   5.046  18.729  0.00  0.00    +0.000 A 
ATOM      7  N   UNL     1       5.901   4.559  19.913  0.00  0.00    +0.000 NA
ATOM      8  N   UNL     1       5.071   3.495  19.750  0.00  0.00    +0.000 NA
ATOM      9  C   UNL     1       4.800   3.364  18.461  0.00  0.00    +0.000 A 
ATOM     10  N   UNL     1       5.518   4.314  17.731  0.00  0.00    +0.000 N 
ATOM     11  H   UNL     1       7.330   6.662  19.223  0.00  0.00    +0.000 HD
ENDROOT
BRANCH   1  12
ATOM     12  C   UNL     1       5.215   3.916  15.169  0.00  0.00    +0.000 C 
BRANCH  12  14
ATOM     13  C   UNL     1       5.944   3.454  12.777  0.00  0.00    +0.000 C 
ATOM     14  C   UNL     1       5.731   4.508  13.854  0.00  0.00    +0.000 C 
ENDBRANCH  12  14
ENDBRANCH   1  12
BRANCH   9  15
ATOM     15  S   UNL     1       3.648   2.195  17.898  0.00  0.00    +0.000 S 
BRANCH  15  16
ATOM     16  C   UNL     1       2.041   2.829  18.560  0.00  0.00    +0.000 C 
BRANCH  16  17
ATOM     17  C   UNL     1       1.925   4.350  18.446  0.00  0.00    +0.000 C 
ATOM     18  O   UNL     1       1.357   4.913  17.516  0.00  0.00    +0.000 OA
ATOM     19  N   UNL     1       2.499   5.004  19.522  0.00  0.00    +0.000 N 
ATOM     20  H   UNL     1       3.081   4.464  20.161  0.00  0.00    +0.000 HD
BRANCH  19  21
ATOM     21  C   UNL     1       2.585   6.451  19.605  0.00  0.00    +0.000 C 
BRANCH  21  22
ATOM     22  C   UNL     1       1.717   7.043  20.718  0.00  0.00    +0.000 C 
BRANCH  22  23
ATOM     23  C   UNL     1       1.187   8.408  20.354  0.00  0.00    +0.000 A 
ATOM     24  C   UNL     1       1.466   8.967  19.100  0.00  0.00    +0.000 A 
ATOM     25  C   UNL     1       0.976  10.231  18.766  0.00  0.00    +0.000 A 
ATOM     26  C   UNL     1       0.202  10.943  19.680  0.00  0.00    +0.000 A 
ATOM     27  C   UNL     1      -0.080  10.396  20.930  0.00  0.00    +0.000 A 
ATOM     28  C   UNL     1       0.416   9.135  21.270  0.00  0.00    +0.000 A 
ENDBRANCH  22  23
ENDBRANCH  21  22
ENDBRANCH  19  21
ENDBRANCH  16  17
ENDBRANCH  15  16
ENDBRANCH   9  15
TORSDOF 8
ENDMDL
