MODEL 1
REMARK VINA RESULT:      -8.5      0.000      0.000
REMARK  Name = 
REMARK  5 active torsions:
REMARK  status: ('A' for Active; 'I' for Inactive)
REMARK    1  A    between atoms: C_1  and  C_2
REMARK    2  A    between atoms: C_13  and  C_14
REMARK    3  A    between atoms: C_17  and  C_18
REMARK    4  A    between atoms: C_20  and  C_21
REMARK    5  A    between atoms: C_21  and  O_23
REMARK                            x       y       z     vdW  Elec       q    Type
REMARK                         _______ _______ _______ _____ _____    ______ ____
ROOT
ATOM      1  C   UNL     1      -1.272  11.772  22.875  0.00  0.00    +0.000 C 
ATOM      2  C   UNL     1      -1.041  11.145  21.551  0.00  0.00    +0.000 A 
ATOM      3  N   UNL     1      -1.828  11.449  20.515  0.00  0.00    +0.000 NA
ATOM      4  N   UNL     1      -1.376  10.663  19.490  0.00  0.00    +0.000 N 
ATOM      5  C   UNL     1      -2.032  10.676  18.212  0.00  0.00    +0.000 A 
ATOM      6  C   UNL     1      -3.061  11.595  17.996  0.00  0.00    +0.000 A 
ATOM      7  C   UNL     1      -3.714  11.597  16.764  0.00  0.00    +0.000 A 
ATOM      8  C   UNL     1      -3.340  10.680  15.789  0.00  0.00    +0.000 A 
ATOM      9  C   UNL     1      -2.312   9.803  16.081  0.00  0.00    +0.000 A 
ATOM     10  N   UNL     1      -1.648   9.787  17.258  0.00  0.00    +0.000 NA
ATOM     11  C   UNL     1      -0.266   9.911  19.868  0.00  0.00    +0.000 A 
ATOM     12  C   UNL     1       0.555   9.001  19.173  0.00  0.00    +0.000 A 
ATOM     13  C   UNL     1       1.658   8.405  19.819  0.00  0.00    +0.000 A 
ATOM     14  C   UNL     1       1.876   8.719  21.170  0.00  0.00    +0.000 A 
ATOM     15  C   UNL     1       1.040   9.602  21.873  0.00  0.00    +0.000 A 
ATOM     16  C   UNL     1      -0.032  10.217  21.204  0.00  0.00    +0.000 A 
ENDROOT
BRANCH  13  17
ATOM     17  C   UNL     1       2.524   7.450  19.086  0.00  0.00    +0.000 A 
ATOM     18  C   UNL     1       3.160   7.809  17.885  0.00  0.00    +0.000 A 
ATOM     19  C   UNL     1       3.858   6.871  17.113  0.00  0.00    +0.000 A 
ATOM     20  C   UNL     1       3.965   5.534  17.513  0.00  0.00    +0.000 A 
ATOM     21  C   UNL     1       3.400   5.192  18.749  0.00  0.00    +0.000 A 
ATOM     22  C   UNL     1       2.696   6.127  19.520  0.00  0.00    +0.000 A 
BRANCH  20  23
ATOM     23  C   UNL     1       4.547   4.485  16.603  0.00  0.00    +0.000 C 
ATOM     24  C   UNL     1       5.230   4.843  15.307  0.00  0.00    +0.000 C 
ATOM     25  C   UNL     1       6.029   4.236  16.433  0.00  0.00    +0.000 C 
BRANCH  25  26
ATOM     26  C   UNL     1       7.121   4.971  17.123  0.00  0.00    +0.000 C 
ATOM     27  O   UNL     1       7.646   4.509  18.123  0.00  0.00    +0.000 OA
BRANCH  26  28
ATOM     28  O   UNL     1       7.505   6.142  16.570  0.00  0.00    +0.000 OA
ATOM     29  H   UNL     1       8.191   6.608  17.081  0.00  0.00    +0.000 HD
ENDBRANCH  26  28
ENDBRANCH  25  26
ENDBRANCH  20  23
ENDBRANCH  13  17
TORSDOF 4
ENDMDL
MODEL 2
REMARK VINA RESULT:      -8.5      2.613      2.984
REMARK  Name = 
REMARK  5 active torsions:
REMARK  status: ('A' for Active; 'I' for Inactive)
REMARK    1  A    between atoms: C_1  and  C_2
REMARK    2  A    between atoms: C_13  and  C_14
REMARK    3  A    between atoms: C_17  and  C_18
REMARK    4  A    between atoms: C_20  and  C_21
REMARK    5  A    between atoms: C_21  and  O_23
REMARK                            x       y       z     vdW  Elec       q    Type
REMARK                         _______ _______ _______ _____ _____    ______ ____
ROOT
ATOM      1  C   UNL     1      -1.533  10.926  23.222  0.00  0.00    +0.000 C 
ATOM      2  C   UNL     1      -0.508  10.915  22.150  0.00  0.00    +0.000 A 
ATOM      3  N   UNL     1      -0.074  12.063  21.621  0.00  0.00    +0.000 NA
ATOM      4  N   UNL     1       0.805  11.687  20.642  0.00  0.00    +0.000 N 
ATOM      5  C   UNL     1       1.435  12.670  19.805  0.00  0.00    +0.000 A 
ATOM      6  C   UNL     1       1.232  14.022  20.089  0.00  0.00    +0.000 A 
ATOM      7  C   UNL     1       1.825  14.979  19.267  0.00  0.00    +0.000 A 
ATOM      8  C   UNL     1       2.589  14.570  18.181  0.00  0.00    +0.000 A 
ATOM      9  C   UNL     1       2.743  13.212  17.968  0.00  0.00    +0.000 A 
ATOM     10  N   UNL     1       2.195  12.261  18.754  0.00  0.00    +0.000 NA
ATOM     11  C   UNL     1       0.967  10.304  20.598  0.00  0.00    +0.000 A 
ATOM     12  C   UNL     1       1.769   9.459  19.806  0.00  0.00    +0.000 A 
ATOM     13  C   UNL     1       1.753   8.064  20.016  0.00  0.00    +0.000 A 
ATOM     14  C   UNL     1       0.890   7.559  21.002  0.00  0.00    +0.000 A 
ATOM     15  C   UNL     1       0.068   8.397  21.773  0.00  0.00    +0.000 A 
ATOM     16  C   UNL     1       0.124   9.788  21.576  0.00  0.00    +0.000 A 
ENDROOT
BRANCH  13  17
ATOM     17  C   UNL     1       2.599   7.175  19.185  0.00  0.00    +0.000 A 
ATOM     18  C   UNL     1       3.228   7.642  18.018  0.00  0.00    +0.000 A 
ATOM     19  C   UNL     1       3.906   6.775  17.149  0.00  0.00    +0.000 A 
ATOM     20  C   UNL     1       4.000   5.404  17.417  0.00  0.00    +0.000 A 
ATOM     21  C   UNL     1       3.441   4.950  18.619  0.00  0.00    +0.000 A 
ATOM     22  C   UNL     1       2.758   5.814  19.485  0.00  0.00    +0.000 A 
BRANCH  20  23
ATOM     23  C   UNL     1       4.558   4.442  16.402  0.00  0.00    +0.000 C 
ATOM     24  C   UNL     1       5.207   4.916  15.125  0.00  0.00    +0.000 C 
ATOM     25  C   UNL     1       6.036   4.214  16.172  0.00  0.00    +0.000 C 
BRANCH  25  26
ATOM     26  C   UNL     1       7.145   4.890  16.896  0.00  0.00    +0.000 C 
ATOM     27  O   UNL     1       7.530   5.996  16.549  0.00  0.00    +0.000 OA
BRANCH  26  28
ATOM     28  O   UNL     1       7.669   4.231  17.951  0.00  0.00    +0.000 OA
ATOM     29  H   UNL     1       8.457   4.663  18.328  0.00  0.00    +0.000 HD
ENDBRANCH  26  28
ENDBRANCH  25  26
ENDBRANCH  20  23
ENDBRANCH  13  17
TORSDOF 4
ENDMDL
MODEL 3
REMARK VINA RESULT:      -8.4      0.769      1.252
REMARK  Name = 
REMARK  5 active torsions:
REMARK  status: ('A' for Active; 'I' for Inactive)
REMARK    1  A    between atoms: C_1  and  C_2
REMARK    2  A    between atoms: C_13  and  C_14
REMARK    3  A    between atoms: C_17  and  C_18
REMARK    4  A    between atoms: C_20  and  C_21
REMARK    5  A    between atoms: C_21  and  O_23
REMARK                            x       y       z     vdW  Elec       q    Type
REMARK                         _______ _______ _______ _____ _____    ______ ____
ROOT
ATOM      1  C   UNL     1      -1.301  11.953  22.682  0.00  0.00    +0.000 C 
ATOM      2  C   UNL     1      -1.089  11.284  21.375  0.00  0.00    +0.000 A 
ATOM      3  N   UNL     1      -1.889  11.555  20.341  0.00  0.00    +0.000 NA
ATOM      4  N   UNL     1      -1.453  10.736  19.336  0.00  0.00    +0.000 N 
ATOM      5  C   UNL     1      -2.127  10.708  18.067  0.00  0.00    +0.000 A 
ATOM      6  C   UNL     1      -3.157  11.622  17.835  0.00  0.00    +0.000 A 
ATOM      7  C   UNL     1      -3.827  11.585  16.613  0.00  0.00    +0.000 A 
ATOM      8  C   UNL     1      -3.468  10.637  15.664  0.00  0.00    +0.000 A 
ATOM      9  C   UNL     1      -2.436   9.768  15.969  0.00  0.00    +0.000 A 
ATOM     10  N   UNL     1      -1.757   9.789  17.137  0.00  0.00    +0.000 NA
ATOM     11  C   UNL     1      -0.339   9.994  19.722  0.00  0.00    +0.000 A 
ATOM     12  C   UNL     1       0.471   9.061  19.046  0.00  0.00    +0.000 A 
ATOM     13  C   UNL     1       1.582   8.483  19.696  0.00  0.00    +0.000 A 
ATOM     14  C   UNL     1       1.819   8.840  21.033  0.00  0.00    +0.000 A 
ATOM     15  C   UNL     1       0.994   9.748  21.719  0.00  0.00    +0.000 A 
ATOM     16  C   UNL     1      -0.086  10.343  21.045  0.00  0.00    +0.000 A 
ENDROOT
BRANCH  13  17
ATOM     17  C   UNL     1       2.437   7.504  18.983  0.00  0.00    +0.000 A 
ATOM     18  C   UNL     1       2.639   6.206  19.484  0.00  0.00    +0.000 A 
ATOM     19  C   UNL     1       3.560   5.326  18.898  0.00  0.00    +0.000 A 
ATOM     20  C   UNL     1       4.308   5.698  17.774  0.00  0.00    +0.000 A 
ATOM     21  C   UNL     1       4.049   6.962  17.227  0.00  0.00    +0.000 A 
ATOM     22  C   UNL     1       3.134   7.845  17.815  0.00  0.00    +0.000 A 
BRANCH  20  23
ATOM     23  C   UNL     1       5.428   4.836  17.255  0.00  0.00    +0.000 C 
ATOM     24  C   UNL     1       6.532   5.396  16.393  0.00  0.00    +0.000 C 
ATOM     25  C   UNL     1       6.846   4.884  17.777  0.00  0.00    +0.000 C 
BRANCH  25  26
ATOM     26  C   UNL     1       7.348   5.770  18.860  0.00  0.00    +0.000 C 
ATOM     27  O   UNL     1       7.312   5.407  20.025  0.00  0.00    +0.000 OA
BRANCH  26  28
ATOM     28  O   UNL     1       7.858   6.961  18.480  0.00  0.00    +0.000 OA
ATOM     29  H   UNL     1       7.290   7.445  17.854  0.00  0.00    +0.000 HD
ENDBRANCH  26  28
ENDBRANCH  25  26
ENDBRANCH  20  23
ENDBRANCH  13  17
TORSDOF 4
ENDMDL
MODEL 4
REMARK VINA RESULT:      -8.4      2.714      3.281
REMARK  Name = 
REMARK  5 active torsions:
REMARK  status: ('A' for Active; 'I' for Inactive)
REMARK    1  A    between atoms: C_1  and  C_2
REMARK    2  A    between atoms: C_13  and  C_14
REMARK    3  A    between atoms: C_17  and  C_18
REMARK    4  A    between atoms: C_20  and  C_21
REMARK    5  A    between atoms: C_21  and  O_23
REMARK                            x       y       z     vdW  Elec       q    Type
REMARK                         _______ _______ _______ _____ _____    ______ ____
ROOT
ATOM      1  C   UNL     1      -1.621  11.327  23.351  0.00  0.00    +0.000 C 
ATOM      2  C   UNL     1      -0.600  11.269  22.276  0.00  0.00    +0.000 A 
ATOM      3  N   UNL     1      -0.116  12.395  21.745  0.00  0.00    +0.000 NA
ATOM      4  N   UNL     1       0.743  11.979  20.765  0.00  0.00    +0.000 N 
ATOM      5  C   UNL     1       1.415  12.931  19.925  0.00  0.00    +0.000 A 
ATOM      6  C   UNL     1       1.274  14.292  20.209  0.00  0.00    +0.000 A 
ATOM      7  C   UNL     1       1.908  15.220  19.384  0.00  0.00    +0.000 A 
ATOM      8  C   UNL     1       2.650  14.776  18.297  0.00  0.00    +0.000 A 
ATOM      9  C   UNL     1       2.742  13.413  18.085  0.00  0.00    +0.000 A 
ATOM     10  N   UNL     1       2.154  12.488  18.874  0.00  0.00    +0.000 NA
ATOM     11  C   UNL     1       0.843  10.589  20.722  0.00  0.00    +0.000 A 
ATOM     12  C   UNL     1       1.604   9.709  19.929  0.00  0.00    +0.000 A 
ATOM     13  C   UNL     1       1.525   8.316  20.141  0.00  0.00    +0.000 A 
ATOM     14  C   UNL     1       0.643   7.851  21.129  0.00  0.00    +0.000 A 
ATOM     15  C   UNL     1      -0.139   8.727  21.901  0.00  0.00    +0.000 A 
ATOM     16  C   UNL     1      -0.021  10.113  21.703  0.00  0.00    +0.000 A 
ENDROOT
BRANCH  13  17
ATOM     17  C   UNL     1       2.329   7.389  19.308  0.00  0.00    +0.000 A 
ATOM     18  C   UNL     1       2.553   6.058  19.701  0.00  0.00    +0.000 A 
ATOM     19  C   UNL     1       3.431   5.221  18.998  0.00  0.00    +0.000 A 
ATOM     20  C   UNL     1       4.112   5.672  17.861  0.00  0.00    +0.000 A 
ATOM     21  C   UNL     1       3.829   6.972  17.423  0.00  0.00    +0.000 A 
ATOM     22  C   UNL     1       2.957   7.812  18.128  0.00  0.00    +0.000 A 
BRANCH  20  23
ATOM     23  C   UNL     1       5.193   4.847  17.213  0.00  0.00    +0.000 C 
ATOM     24  C   UNL     1       6.190   5.450  16.255  0.00  0.00    +0.000 C 
ATOM     25  C   UNL     1       6.656   4.922  17.589  0.00  0.00    +0.000 C 
BRANCH  25  26
ATOM     26  C   UNL     1       7.244   5.801  18.634  0.00  0.00    +0.000 C 
ATOM     27  O   UNL     1       7.737   6.877  18.334  0.00  0.00    +0.000 OA
BRANCH  26  28
ATOM     28  O   UNL     1       7.177   5.356  19.907  0.00  0.00    +0.000 OA
ATOM     29  H   UNL     1       7.019   6.064  20.558  0.00  0.00    +0.000 HD
ENDBRANCH  26  28
ENDBRANCH  25  26
ENDBRANCH  20  23
ENDBRANCH  13  17
TORSDOF 4
ENDMDL
MODEL 5
REMARK VINA RESULT:      -8.3      4.494      8.547
REMARK  Name = 
REMARK  5 active torsions:
REMARK  status: ('A' for Active; 'I' for Inactive)
REMARK    1  A    between atoms: C_1  and  C_2
REMARK    2  A    between atoms: C_13  and  C_14
REMARK    3  A    between atoms: C_17  and  C_18
REMARK    4  A    between atoms: C_20  and  C_21
REMARK    5  A    between atoms: C_21  and  O_23
REMARK                            x       y       z     vdW  Elec       q    Type
REMARK                         _______ _______ _______ _____ _____    ______ ____
ROOT
ATOM      1  C   UNL     1       3.913   1.734  20.633  0.00  0.00    +0.000 C 
ATOM      2  C   UNL     1       3.863   2.937  19.766  0.00  0.00    +0.000 A 
ATOM      3  N   UNL     1       4.487   2.943  18.585  0.00  0.00    +0.000 NA
ATOM      4  N   UNL     1       4.285   4.201  18.088  0.00  0.00    +0.000 N 
ATOM      5  C   UNL     1       4.873   4.600  16.839  0.00  0.00    +0.000 A 
ATOM      6  C   UNL     1       5.548   3.641  16.080  0.00  0.00    +0.000 A 
ATOM      7  C   UNL     1       6.137   4.029  14.877  0.00  0.00    +0.000 A 
ATOM      8  C   UNL     1       6.052   5.354  14.469  0.00  0.00    +0.000 A 
ATOM      9  C   UNL     1       5.365   6.242  15.276  0.00  0.00    +0.000 A 
ATOM     10  N   UNL     1       4.770   5.895  16.438  0.00  0.00    +0.000 NA
ATOM     11  C   UNL     1       3.483   4.966  18.932  0.00  0.00    +0.000 A 
ATOM     12  C   UNL     1       2.980   6.279  18.843  0.00  0.00    +0.000 A 
ATOM     13  C   UNL     1       2.140   6.786  19.857  0.00  0.00    +0.000 A 
ATOM     14  C   UNL     1       1.866   5.959  20.958  0.00  0.00    +0.000 A 
ATOM     15  C   UNL     1       2.392   4.661  21.063  0.00  0.00    +0.000 A 
ATOM     16  C   UNL     1       3.195   4.156  20.026  0.00  0.00    +0.000 A 
ENDROOT
BRANCH  13  17
ATOM     17  C   UNL     1       1.608   8.167  19.763  0.00  0.00    +0.000 A 
ATOM     18  C   UNL     1       1.733   8.922  18.584  0.00  0.00    +0.000 A 
ATOM     19  C   UNL     1       1.366  10.274  18.533  0.00  0.00    +0.000 A 
ATOM     20  C   UNL     1       0.842  10.928  19.654  0.00  0.00    +0.000 A 
ATOM     21  C   UNL     1       0.643  10.156  20.806  0.00  0.00    +0.000 A 
ATOM     22  C   UNL     1       1.015   8.807  20.861  0.00  0.00    +0.000 A 
BRANCH  20  23
ATOM     23  C   UNL     1       0.623  12.418  19.664  0.00  0.00    +0.000 C 
ATOM     24  C   UNL     1       0.781  13.256  18.419  0.00  0.00    +0.000 C 
ATOM     25  C   UNL     1      -0.579  13.103  19.054  0.00  0.00    +0.000 C 
BRANCH  25  26
ATOM     26  C   UNL     1      -1.709  12.429  18.362  0.00  0.00    +0.000 C 
ATOM     27  O   UNL     1      -2.679  12.039  18.993  0.00  0.00    +0.000 OA
BRANCH  26  28
ATOM     28  O   UNL     1      -1.610  12.302  17.021  0.00  0.00    +0.000 OA
ATOM     29  H   UNL     1      -1.126  13.033  16.597  0.00  0.00    +0.000 HD
ENDBRANCH  26  28
ENDBRANCH  25  26
ENDBRANCH  20  23
ENDBRANCH  13  17
TORSDOF 4
ENDMDL
MODEL 6
REMARK VINA RESULT:      -8.2      4.400      8.480
REMARK  Name = 
REMARK  5 active torsions:
REMARK  status: ('A' for Active; 'I' for Inactive)
REMARK    1  A    between atoms: C_1  and  C_2
REMARK    2  A    between atoms: C_13  and  C_14
REMARK    3  A    between atoms: C_17  and  C_18
REMARK    4  A    between atoms: C_20  and  C_21
REMARK    5  A    between atoms: C_21  and  O_23
REMARK                            x       y       z     vdW  Elec       q    Type
REMARK                         _______ _______ _______ _____ _____    ______ ____
ROOT
ATOM      1  C   UNL     1       2.907   1.659  20.291  0.00  0.00    +0.000 C 
ATOM      2  C   UNL     1       3.109   2.918  19.533  0.00  0.00    +0.000 A 
ATOM      3  N   UNL     1       3.840   2.921  18.414  0.00  0.00    +0.000 NA
ATOM      4  N   UNL     1       3.866   4.229  18.016  0.00  0.00    +0.000 N 
ATOM      5  C   UNL     1       4.622   4.631  16.862  0.00  0.00    +0.000 A 
ATOM      6  C   UNL     1       5.228   3.643  16.082  0.00  0.00    +0.000 A 
ATOM      7  C   UNL     1       5.979   4.030  14.973  0.00  0.00    +0.000 A 
ATOM      8  C   UNL     1       6.120   5.380  14.678  0.00  0.00    +0.000 A 
ATOM      9  C   UNL     1       5.488   6.296  15.500  0.00  0.00    +0.000 A 
ATOM     10  N   UNL     1       4.740   5.953  16.571  0.00  0.00    +0.000 NA
ATOM     11  C   UNL     1       3.099   5.038  18.853  0.00  0.00    +0.000 A 
ATOM     12  C   UNL     1       2.796   6.414  18.839  0.00  0.00    +0.000 A 
ATOM     13  C   UNL     1       1.941   6.961  19.819  0.00  0.00    +0.000 A 
ATOM     14  C   UNL     1       1.448   6.102  20.814  0.00  0.00    +0.000 A 
ATOM     15  C   UNL     1       1.775   4.736  20.847  0.00  0.00    +0.000 A 
ATOM     16  C   UNL     1       2.597   4.199  19.842  0.00  0.00    +0.000 A 
ENDROOT
BRANCH  13  17
ATOM     17  C   UNL     1       1.618   8.408  19.802  0.00  0.00    +0.000 A 
ATOM     18  C   UNL     1       1.086   9.054  20.932  0.00  0.00    +0.000 A 
ATOM     19  C   UNL     1       0.641  10.382  20.879  0.00  0.00    +0.000 A 
ATOM     20  C   UNL     1       0.722  11.130  19.698  0.00  0.00    +0.000 A 
ATOM     21  C   UNL     1       1.324  10.513  18.593  0.00  0.00    +0.000 A 
ATOM     22  C   UNL     1       1.764   9.184  18.643  0.00  0.00    +0.000 A 
BRANCH  20  23
ATOM     23  C   UNL     1       0.078  12.486  19.580  0.00  0.00    +0.000 C 
ATOM     24  C   UNL     1       0.172  13.307  18.318  0.00  0.00    +0.000 C 
ATOM     25  C   UNL     1      -1.164  12.766  18.764  0.00  0.00    +0.000 C 
BRANCH  25  26
ATOM     26  C   UNL     1      -1.927  11.771  17.966  0.00  0.00    +0.000 C 
ATOM     27  O   UNL     1      -2.605  10.920  18.519  0.00  0.00    +0.000 OA
BRANCH  26  28
ATOM     28  O   UNL     1      -1.845  11.881  16.622  0.00  0.00    +0.000 OA
ATOM     29  H   UNL     1      -1.038  11.483  16.247  0.00  0.00    +0.000 HD
ENDBRANCH  26  28
ENDBRANCH  25  26
ENDBRANCH  20  23
ENDBRANCH  13  17
TORSDOF 4
ENDMDL
MODEL 7
REMARK VINA RESULT:      -8.2      2.114      2.412
REMARK  Name = 
REMARK  5 active torsions:
REMARK  status: ('A' for Active; 'I' for Inactive)
REMARK    1  A    between atoms: C_1  and  C_2
REMARK    2  A    between atoms: C_13  and  C_14
REMARK    3  A    between atoms: C_17  and  C_18
REMARK    4  A    between atoms: C_20  and  C_21
REMARK    5  A    between atoms: C_21  and  O_23
REMARK                            x       y       z     vdW  Elec       q    Type
REMARK                         _______ _______ _______ _____ _____    ______ ____
ROOT
ATOM      1  C   UNL     1      -2.283  13.031  21.849  0.00  0.00    +0.000 C 
ATOM      2  C   UNL     1      -1.936  12.144  20.712  0.00  0.00    +0.000 A 
ATOM      3  N   UNL     1      -2.665  12.166  19.593  0.00  0.00    +0.000 NA
ATOM      4  N   UNL     1      -2.111  11.203  18.795  0.00  0.00    +0.000 N 
ATOM      5  C   UNL     1      -2.681  10.896  17.512  0.00  0.00    +0.000 A 
ATOM      6  C   UNL     1      -3.734  11.684  17.041  0.00  0.00    +0.000 A 
ATOM      7  C   UNL     1      -4.303  11.377  15.806  0.00  0.00    +0.000 A 
ATOM      8  C   UNL     1      -3.824  10.293  15.081  0.00  0.00    +0.000 A 
ATOM      9  C   UNL     1      -2.779   9.563  15.617  0.00  0.00    +0.000 A 
ATOM     10  N   UNL     1      -2.195   9.844  16.802  0.00  0.00    +0.000 NA
ATOM     11  C   UNL     1      -0.996  10.619  19.391  0.00  0.00    +0.000 A 
ATOM     12  C   UNL     1      -0.091   9.628  18.961  0.00  0.00    +0.000 A 
ATOM     13  C   UNL     1       0.993   9.254  19.783  0.00  0.00    +0.000 A 
ATOM     14  C   UNL     1       1.106   9.868  21.041  0.00  0.00    +0.000 A 
ATOM     15  C   UNL     1       0.187  10.834  21.483  0.00  0.00    +0.000 A 
ATOM     16  C   UNL     1      -0.865  11.223  20.636  0.00  0.00    +0.000 A 
ENDROOT
BRANCH  13  17
ATOM     17  C   UNL     1       1.948   8.214  19.330  0.00  0.00    +0.000 A 
ATOM     18  C   UNL     1       2.596   8.305  18.086  0.00  0.00    +0.000 A 
ATOM     19  C   UNL     1       3.383   7.258  17.587  0.00  0.00    +0.000 A 
ATOM     20  C   UNL     1       3.572   6.078  18.317  0.00  0.00    +0.000 A 
ATOM     21  C   UNL     1       2.992   6.018  19.591  0.00  0.00    +0.000 A 
ATOM     22  C   UNL     1       2.199   7.061  20.089  0.00  0.00    +0.000 A 
BRANCH  20  23
ATOM     23  C   UNL     1       4.255   4.881  17.712  0.00  0.00    +0.000 C 
ATOM     24  C   UNL     1       4.644   3.681  18.541  0.00  0.00    +0.000 C 
ATOM     25  C   UNL     1       3.580   3.547  17.479  0.00  0.00    +0.000 C 
BRANCH  25  26
ATOM     26  C   UNL     1       2.168   3.216  17.803  0.00  0.00    +0.000 C 
ATOM     27  O   UNL     1       1.906   2.352  18.625  0.00  0.00    +0.000 OA
BRANCH  26  28
ATOM     28  O   UNL     1       1.217   3.933  17.166  0.00  0.00    +0.000 OA
ATOM     29  H   UNL     1       1.549   4.763  16.780  0.00  0.00    +0.000 HD
ENDBRANCH  26  28
ENDBRANCH  25  26
ENDBRANCH  20  23
ENDBRANCH  13  17
TORSDOF 4
ENDMDL
MODEL 8
REMARK VINA RESULT:      -8.0      4.349      8.317
REMARK  Name = 
REMARK  5 active torsions:
REMARK  status: ('A' for Active; 'I' for Inactive)
REMARK    1  A    between atoms: C_1  and  C_2
REMARK    2  A    between atoms: C_13  and  C_14
REMARK    3  A    between atoms: C_17  and  C_18
REMARK    4  A    between atoms: C_20  and  C_21
REMARK    5  A    between atoms: C_21  and  O_23
REMARK                            x       y       z     vdW  Elec       q    Type
REMARK                         _______ _______ _______ _____ _____    ______ ____
ROOT
ATOM      1  C   UNL     1       3.105   2.170  20.852  0.00  0.00    +0.000 C 
ATOM      2  C   UNL     1       3.254   3.318  19.924  0.00  0.00    +0.000 A 
ATOM      3  N   UNL     1       3.964   3.188  18.800  0.00  0.00    +0.000 NA
ATOM      4  N   UNL     1       3.942   4.430  18.227  0.00  0.00    +0.000 N 
ATOM      5  C   UNL     1       4.664   4.690  17.012  0.00  0.00    +0.000 A 
ATOM      6  C   UNL     1       5.286   3.622  16.360  0.00  0.00    +0.000 A 
ATOM      7  C   UNL     1       6.005   3.874  15.193  0.00  0.00    +0.000 A 
ATOM      8  C   UNL     1       6.099   5.174  14.713  0.00  0.00    +0.000 A 
ATOM      9  C   UNL     1       5.454   6.176  15.416  0.00  0.00    +0.000 A 
ATOM     10  N   UNL     1       4.737   5.963  16.540  0.00  0.00    +0.000 NA
ATOM     11  C   UNL     1       3.166   5.324  18.962  0.00  0.00    +0.000 A 
ATOM     12  C   UNL     1       2.820   6.675  18.767  0.00  0.00    +0.000 A 
ATOM     13  C   UNL     1       1.967   7.327  19.681  0.00  0.00    +0.000 A 
ATOM     14  C   UNL     1       1.519   6.600  20.795  0.00  0.00    +0.000 A 
ATOM     15  C   UNL     1       1.888   5.261  21.008  0.00  0.00    +0.000 A 
ATOM     16  C   UNL     1       2.708   4.614  20.067  0.00  0.00    +0.000 A 
ENDROOT
BRANCH  13  17
ATOM     17  C   UNL     1       1.599   8.749  19.474  0.00  0.00    +0.000 A 
ATOM     18  C   UNL     1       0.945   9.490  20.474  0.00  0.00    +0.000 A 
ATOM     19  C   UNL     1       0.463  10.784  20.233  0.00  0.00    +0.000 A 
ATOM     20  C   UNL     1       0.627  11.403  18.988  0.00  0.00    +0.000 A 
ATOM     21  C   UNL     1       1.348  10.695  18.016  0.00  0.00    +0.000 A 
ATOM     22  C   UNL     1       1.825   9.399  18.252  0.00  0.00    +0.000 A 
BRANCH  20  23
ATOM     23  C   UNL     1      -0.049  12.708  18.663  0.00  0.00    +0.000 C 
ATOM     24  C   UNL     1      -0.268  13.774  19.708  0.00  0.00    +0.000 C 
ATOM     25  C   UNL     1       0.673  14.033  18.558  0.00  0.00    +0.000 C 
BRANCH  25  26
ATOM     26  C   UNL     1       2.130  14.251  18.755  0.00  0.00    +0.000 C 
ATOM     27  O   UNL     1       2.569  14.566  19.850  0.00  0.00    +0.000 OA
BRANCH  26  28
ATOM     28  O   UNL     1       2.922  14.056  17.678  0.00  0.00    +0.000 OA
ATOM     29  H   UNL     1       2.913  13.139  17.349  0.00  0.00    +0.000 HD
ENDBRANCH  26  28
ENDBRANCH  25  26
ENDBRANCH  20  23
ENDBRANCH  13  17
TORSDOF 4
ENDMDL
MODEL 9
REMARK VINA RESULT:      -8.0      4.401      8.193
REMARK  Name = 
REMARK  5 active torsions:
REMARK  status: ('A' for Active; 'I' for Inactive)
REMARK    1  A    between atoms: C_1  and  C_2
REMARK    2  A    between atoms: C_13  and  C_14
REMARK    3  A    between atoms: C_17  and  C_18
REMARK    4  A    between atoms: C_20  and  C_21
REMARK    5  A    between atoms: C_21  and  O_23
REMARK                            x       y       z     vdW  Elec       q    Type
REMARK                         _______ _______ _______ _____ _____    ______ ____
ROOT
ATOM      1  C   UNL     1       2.534   2.905  21.211  0.00  0.00    +0.000 C 
ATOM      2  C   UNL     1       2.786   3.955  20.194  0.00  0.00    +0.000 A 
ATOM      3  N   UNL     1       3.524   3.684  19.114  0.00  0.00    +0.000 NA
ATOM      4  N   UNL     1       3.600   4.869  18.435  0.00  0.00    +0.000 N 
ATOM      5  C   UNL     1       4.378   4.977  17.232  0.00  0.00    +0.000 A 
ATOM      6  C   UNL     1       4.953   3.820  16.700  0.00  0.00    +0.000 A 
ATOM      7  C   UNL     1       5.726   3.924  15.544  0.00  0.00    +0.000 A 
ATOM      8  C   UNL     1       5.917   5.169  14.958  0.00  0.00    +0.000 A 
ATOM      9  C   UNL     1       5.313   6.265  15.545  0.00  0.00    +0.000 A 
ATOM     10  N   UNL     1       4.546   6.196  16.655  0.00  0.00    +0.000 NA
ATOM     11  C   UNL     1       2.857   5.869  19.059  0.00  0.00    +0.000 A 
ATOM     12  C   UNL     1       2.603   7.216  18.734  0.00  0.00    +0.000 A 
ATOM     13  C   UNL     1       1.762   7.997  19.555  0.00  0.00    +0.000 A 
ATOM     14  C   UNL     1       1.232   7.399  20.709  0.00  0.00    +0.000 A 
ATOM     15  C   UNL     1       1.509   6.065  21.051  0.00  0.00    +0.000 A 
ATOM     16  C   UNL     1       2.318   5.289  20.202  0.00  0.00    +0.000 A 
ENDROOT
BRANCH  13  17
ATOM     17  C   UNL     1       1.491   9.413  19.211  0.00  0.00    +0.000 A 
ATOM     18  C   UNL     1       2.239  10.085  18.228  0.00  0.00    +0.000 A 
ATOM     19  C   UNL     1       2.089  11.460  18.002  0.00  0.00    +0.000 A 
ATOM     20  C   UNL     1       1.174  12.224  18.737  0.00  0.00    +0.000 A 
ATOM     21  C   UNL     1       0.373  11.541  19.661  0.00  0.00    +0.000 A 
ATOM     22  C   UNL     1       0.525  10.167  19.893  0.00  0.00    +0.000 A 
BRANCH  20  23
ATOM     23  C   UNL     1       1.141  13.726  18.634  0.00  0.00    +0.000 C 
ATOM     24  C   UNL     1       0.245  14.566  19.510  0.00  0.00    +0.000 C 
ATOM     25  C   UNL     1       1.743  14.659  19.660  0.00  0.00    +0.000 C 
BRANCH  25  26
ATOM     26  C   UNL     1       2.446  14.251  20.905  0.00  0.00    +0.000 C 
ATOM     27  O   UNL     1       1.821  14.057  21.936  0.00  0.00    +0.000 OA
BRANCH  26  28
ATOM     28  O   UNL     1       3.784  14.087  20.818  0.00  0.00    +0.000 OA
ATOM     29  H   UNL     1       4.166  14.437  19.993  0.00  0.00    +0.000 HD
ENDBRANCH  26  28
ENDBRANCH  25  26
ENDBRANCH  20  23
ENDBRANCH  13  17
TORSDOF 4
ENDMDL
