MODEL 1
REMARK VINA RESULT:      -5.2      0.000      0.000
REMARK  Name = 
REMARK  5 active torsions:
REMARK  status: ('A' for Active; 'I' for Inactive)
REMARK    1  A    between atoms: C_2  and  C_4
REMARK    2  A    between atoms: C_4  and  C_5
REMARK    3  A    between atoms: C_4  and  N_8
REMARK    4  A    between atoms: C_5  and  C_6
REMARK    5  A    between atoms: C_6  and  O_7
REMARK                            x       y       z     vdW  Elec       q    Type
REMARK                         _______ _______ _______ _____ _____    ______ ____
ROOT
ATOM      1  C   UNL     1       3.902   3.607  18.502  0.00  0.00    +0.000 C 
ENDROOT
BRANCH   1   2
ATOM      2  N   UNL     1       2.455   4.012  18.486  0.00  0.00    +0.000 NA
ATOM      3  C   UNL     1       1.790   3.805  19.802  0.00  0.00    +0.000 C 
ATOM      4  C   UNL     1       2.219   4.770  20.933  0.00  0.00    +0.000 C 
ATOM      5  N   UNL     1       2.182   6.188  20.560  0.00  0.00    +0.000 NA
ATOM      6  C   UNL     1       2.783   6.426  19.245  0.00  0.00    +0.000 C 
ATOM      7  C   UNL     1       2.271   5.452  18.160  0.00  0.00    +0.000 C 
ATOM      8  H   UNL     1       2.673   6.735  21.266  0.00  0.00    +0.000 HD
ENDBRANCH   1   2
BRANCH   1  10
ATOM      9  N   UNL     1       4.929   1.903  19.989  0.00  0.00    +0.000 N 
ATOM     10  C   UNL     1       4.093   2.133  18.935  0.00  0.00    +0.000 C 
ATOM     11  O   UNL     1       3.481   1.204  18.414  0.00  0.00    +0.000 OA
ATOM     12  H   UNL     1       5.121   0.946  20.246  0.00  0.00    +0.000 HD
ATOM     13  H   UNL     1       5.527   2.649  20.323  0.00  0.00    +0.000 HD
ENDBRANCH   1  10
BRANCH   1  14
ATOM     14  C   UNL     1       4.636   3.778  17.152  0.00  0.00    +0.000 C 
BRANCH  14  15
ATOM     15  C   UNL     1       5.956   4.535  17.237  0.00  0.00    +0.000 C 
BRANCH  15  16
ATOM     16  O   UNL     1       6.657   4.128  18.411  0.00  0.00    +0.000 OA
ATOM     17  H   UNL     1       6.183   4.490  19.178  0.00  0.00    +0.000 HD
ENDBRANCH  15  16
ENDBRANCH  14  15
ENDBRANCH   1  14
TORSDOF 5
ENDMDL
MODEL 2
REMARK VINA RESULT:      -5.2      2.556      4.295
REMARK  Name = 
REMARK  5 active torsions:
REMARK  status: ('A' for Active; 'I' for Inactive)
REMARK    1  A    between atoms: C_2  and  C_4
REMARK    2  A    between atoms: C_4  and  C_5
REMARK    3  A    between atoms: C_4  and  N_8
REMARK    4  A    between atoms: C_5  and  C_6
REMARK    5  A    between atoms: C_6  and  O_7
REMARK                            x       y       z     vdW  Elec       q    Type
REMARK                         _______ _______ _______ _____ _____    ______ ____
ROOT
ATOM      1  C   UNL     1       4.464   3.776  17.750  0.00  0.00    +0.000 C 
ENDROOT
BRANCH   1   2
ATOM      2  N   UNL     1       5.036   5.134  17.455  0.00  0.00    +0.000 NA
ATOM      3  C   UNL     1       6.315   5.382  18.175  0.00  0.00    +0.000 C 
ATOM      4  C   UNL     1       7.538   4.575  17.675  0.00  0.00    +0.000 C 
ATOM      5  N   UNL     1       7.748   4.639  16.225  0.00  0.00    +0.000 NA
ATOM      6  C   UNL     1       6.500   4.449  15.480  0.00  0.00    +0.000 C 
ATOM      7  C   UNL     1       5.340   5.322  16.011  0.00  0.00    +0.000 C 
ATOM      8  H   UNL     1       8.423   3.926  15.951  0.00  0.00    +0.000 HD
ENDBRANCH   1   2
BRANCH   1  10
ATOM      9  N   UNL     1       5.096   2.569  19.827  0.00  0.00    +0.000 N 
ATOM     10  C   UNL     1       4.300   3.527  19.270  0.00  0.00    +0.000 C 
ATOM     11  O   UNL     1       3.544   4.192  19.973  0.00  0.00    +0.000 OA
ATOM     12  H   UNL     1       4.960   2.342  20.801  0.00  0.00    +0.000 HD
ATOM     13  H   UNL     1       5.613   1.938  19.225  0.00  0.00    +0.000 HD
ENDBRANCH   1  10
BRANCH   1  14
ATOM     14  C   UNL     1       3.090   3.499  17.098  0.00  0.00    +0.000 C 
BRANCH  14  15
ATOM     15  C   UNL     1       2.355   2.285  17.655  0.00  0.00    +0.000 C 
BRANCH  15  16
ATOM     16  O   UNL     1       1.130   2.710  18.252  0.00  0.00    +0.000 OA
ATOM     17  H   UNL     1       0.427   2.121  17.933  0.00  0.00    +0.000 HD
ENDBRANCH  15  16
ENDBRANCH  14  15
ENDBRANCH   1  14
TORSDOF 5
ENDMDL
MODEL 3
REMARK VINA RESULT:      -5.1      2.709      3.786
REMARK  Name = 
REMARK  5 active torsions:
REMARK  status: ('A' for Active; 'I' for Inactive)
REMARK    1  A    between atoms: C_2  and  C_4
REMARK    2  A    between atoms: C_4  and  C_5
REMARK    3  A    between atoms: C_4  and  N_8
REMARK    4  A    between atoms: C_5  and  C_6
REMARK    5  A    between atoms: C_6  and  O_7
REMARK                            x       y       z     vdW  Elec       q    Type
REMARK                         _______ _______ _______ _____ _____    ______ ____
ROOT
ATOM      1  C   UNL     1       5.745   4.571  16.816  0.00  0.00    +0.000 C 
ENDROOT
BRANCH   1   2
ATOM      2  N   UNL     1       5.223   3.981  18.096  0.00  0.00    +0.000 NA
ATOM      3  C   UNL     1       4.959   5.016  19.134  0.00  0.00    +0.000 C 
ATOM      4  C   UNL     1       3.745   5.940  18.872  0.00  0.00    +0.000 C 
ATOM      5  N   UNL     1       2.509   5.228  18.535  0.00  0.00    +0.000 NA
ATOM      6  C   UNL     1       2.737   4.166  17.551  0.00  0.00    +0.000 C 
ATOM      7  C   UNL     1       3.937   3.259  17.907  0.00  0.00    +0.000 C 
ATOM      8  H   UNL     1       1.826   5.892  18.171  0.00  0.00    +0.000 HD
ENDBRANCH   1   2
BRANCH   1  10
ATOM      9  N   UNL     1       7.457   6.369  16.766  0.00  0.00    +0.000 N 
ATOM     10  C   UNL     1       7.215   5.038  16.943  0.00  0.00    +0.000 C 
ATOM     11  O   UNL     1       8.129   4.278  17.252  0.00  0.00    +0.000 OA
ATOM     12  H   UNL     1       8.415   6.687  16.778  0.00  0.00    +0.000 HD
ATOM     13  H   UNL     1       6.730   6.962  16.383  0.00  0.00    +0.000 HD
ENDBRANCH   1  10
BRANCH   1  14
ATOM     14  C   UNL     1       5.676   3.626  15.595  0.00  0.00    +0.000 C 
BRANCH  14  15
ATOM     15  C   UNL     1       6.111   4.256  14.277  0.00  0.00    +0.000 C 
BRANCH  15  16
ATOM     16  O   UNL     1       6.308   3.230  13.306  0.00  0.00    +0.000 OA
ATOM     17  H   UNL     1       7.238   3.261  13.029  0.00  0.00    +0.000 HD
ENDBRANCH  15  16
ENDBRANCH  14  15
ENDBRANCH   1  14
TORSDOF 5
ENDMDL
MODEL 4
REMARK VINA RESULT:      -5.1      2.115      3.387
REMARK  Name = 
REMARK  5 active torsions:
REMARK  status: ('A' for Active; 'I' for Inactive)
REMARK    1  A    between atoms: C_2  and  C_4
REMARK    2  A    between atoms: C_4  and  C_5
REMARK    3  A    between atoms: C_4  and  N_8
REMARK    4  A    between atoms: C_5  and  C_6
REMARK    5  A    between atoms: C_6  and  O_7
REMARK                            x       y       z     vdW  Elec       q    Type
REMARK                         _______ _______ _______ _____ _____    ______ ____
ROOT
ATOM      1  C   UNL     1       3.104   3.545  19.246  0.00  0.00    +0.000 C 
ENDROOT
BRANCH   1   2
ATOM      2  N   UNL     1       3.713   4.786  19.837  0.00  0.00    +0.000 NA
ATOM      3  C   UNL     1       4.985   5.171  19.167  0.00  0.00    +0.000 C 
ATOM      4  C   UNL     1       4.848   5.724  17.728  0.00  0.00    +0.000 C 
ATOM      5  N   UNL     1       3.853   6.792  17.586  0.00  0.00    +0.000 NA
ATOM      6  C   UNL     1       2.601   6.471  18.276  0.00  0.00    +0.000 C 
ATOM      7  C   UNL     1       2.818   5.968  19.722  0.00  0.00    +0.000 C 
ATOM      8  H   UNL     1       3.668   6.950  16.596  0.00  0.00    +0.000 HD
ENDBRANCH   1   2
BRANCH   1  10
ATOM      9  N   UNL     1       3.952   1.331  18.506  0.00  0.00    +0.000 N 
ATOM     10  C   UNL     1       3.987   2.294  19.473  0.00  0.00    +0.000 C 
ATOM     11  O   UNL     1       4.741   2.180  20.435  0.00  0.00    +0.000 OA
ATOM     12  H   UNL     1       4.467   0.477  18.664  0.00  0.00    +0.000 HD
ATOM     13  H   UNL     1       3.235   1.368  17.791  0.00  0.00    +0.000 HD
ENDBRANCH   1  10
BRANCH   1  14
ATOM     14  C   UNL     1       1.693   3.202  19.777  0.00  0.00    +0.000 C 
BRANCH  14  15
ATOM     15  C   UNL     1       1.675   2.522  21.141  0.00  0.00    +0.000 C 
BRANCH  15  16
ATOM     16  O   UNL     1       2.268   3.389  22.106  0.00  0.00    +0.000 OA
ATOM     17  H   UNL     1       3.097   3.727  21.729  0.00  0.00    +0.000 HD
ENDBRANCH  15  16
ENDBRANCH  14  15
ENDBRANCH   1  14
TORSDOF 5
ENDMDL
MODEL 5
REMARK VINA RESULT:      -5.1      2.344      2.964
REMARK  Name = 
REMARK  5 active torsions:
REMARK  status: ('A' for Active; 'I' for Inactive)
REMARK    1  A    between atoms: C_2  and  C_4
REMARK    2  A    between atoms: C_4  and  C_5
REMARK    3  A    between atoms: C_4  and  N_8
REMARK    4  A    between atoms: C_5  and  C_6
REMARK    5  A    between atoms: C_6  and  O_7
REMARK                            x       y       z     vdW  Elec       q    Type
REMARK                         _______ _______ _______ _____ _____    ______ ____
ROOT
ATOM      1  C   UNL     1       4.616   4.508  18.165  0.00  0.00    +0.000 C 
ENDROOT
BRANCH   1   2
ATOM      2  N   UNL     1       4.140   3.082  18.190  0.00  0.00    +0.000 NA
ATOM      3  C   UNL     1       4.042   2.539  19.573  0.00  0.00    +0.000 C 
ATOM      4  C   UNL     1       2.895   3.111  20.442  0.00  0.00    +0.000 C 
ATOM      5  N   UNL     1       1.581   3.092  19.791  0.00  0.00    +0.000 NA
ATOM      6  C   UNL     1       1.646   3.574  18.408  0.00  0.00    +0.000 C 
ATOM      7  C   UNL     1       2.787   2.923  17.593  0.00  0.00    +0.000 C 
ATOM      8  H   UNL     1       0.932   3.670  20.325  0.00  0.00    +0.000 HD
ENDBRANCH   1   2
BRANCH   1  10
ATOM      9  N   UNL     1       7.067   4.213  17.896  0.00  0.00    +0.000 N 
ATOM     10  C   UNL     1       6.060   4.653  18.705  0.00  0.00    +0.000 C 
ATOM     11  O   UNL     1       6.316   5.194  19.777  0.00  0.00    +0.000 OA
ATOM     12  H   UNL     1       8.011   4.235  18.253  0.00  0.00    +0.000 HD
ATOM     13  H   UNL     1       6.844   3.652  17.082  0.00  0.00    +0.000 HD
ENDBRANCH   1  10
BRANCH   1  14
ATOM     14  C   UNL     1       4.587   5.173  16.770  0.00  0.00    +0.000 C 
BRANCH  14  15
ATOM     15  C   UNL     1       4.843   6.676  16.777  0.00  0.00    +0.000 C 
BRANCH  15  16
ATOM     16  O   UNL     1       6.157   6.932  16.285  0.00  0.00    +0.000 OA
ATOM     17  H   UNL     1       6.407   6.189  15.711  0.00  0.00    +0.000 HD
ENDBRANCH  15  16
ENDBRANCH  14  15
ENDBRANCH   1  14
TORSDOF 5
ENDMDL
MODEL 6
REMARK VINA RESULT:      -5.1      2.651      4.252
REMARK  Name = 
REMARK  5 active torsions:
REMARK  status: ('A' for Active; 'I' for Inactive)
REMARK    1  A    between atoms: C_2  and  C_4
REMARK    2  A    between atoms: C_4  and  C_5
REMARK    3  A    between atoms: C_4  and  N_8
REMARK    4  A    between atoms: C_5  and  C_6
REMARK    5  A    between atoms: C_6  and  O_7
REMARK                            x       y       z     vdW  Elec       q    Type
REMARK                         _______ _______ _______ _____ _____    ______ ____
ROOT
ATOM      1  C   UNL     1       4.325   4.469  17.758  0.00  0.00    +0.000 C 
ENDROOT
BRANCH   1   2
ATOM      2  N   UNL     1       4.544   5.153  16.437  0.00  0.00    +0.000 NA
ATOM      3  C   UNL     1       4.967   6.572  16.593  0.00  0.00    +0.000 C 
ATOM      4  C   UNL     1       6.401   6.792  17.133  0.00  0.00    +0.000 C 
ATOM      5  N   UNL     1       7.434   6.026  16.427  0.00  0.00    +0.000 NA
ATOM      6  C   UNL     1       7.032   4.633  16.210  0.00  0.00    +0.000 C 
ATOM      7  C   UNL     1       5.606   4.498  15.628  0.00  0.00    +0.000 C 
ATOM      8  H   UNL     1       8.300   6.053  16.964  0.00  0.00    +0.000 HD
ENDBRANCH   1   2
BRANCH   1  10
ATOM      9  N   UNL     1       3.702   5.633  19.862  0.00  0.00    +0.000 N 
ATOM     10  C   UNL     1       3.284   5.208  18.634  0.00  0.00    +0.000 C 
ATOM     11  O   UNL     1       2.151   5.469  18.240  0.00  0.00    +0.000 OA
ATOM     12  H   UNL     1       3.023   6.057  20.477  0.00  0.00    +0.000 HD
ATOM     13  H   UNL     1       4.585   5.300  20.231  0.00  0.00    +0.000 HD
ENDBRANCH   1  10
BRANCH   1  14
ATOM     14  C   UNL     1       3.863   2.998  17.655  0.00  0.00    +0.000 C 
BRANCH  14  15
ATOM     15  C   UNL     1       3.914   2.222  18.966  0.00  0.00    +0.000 C 
BRANCH  15  16
ATOM     16  O   UNL     1       5.071   2.616  19.702  0.00  0.00    +0.000 OA
ATOM     17  H   UNL     1       4.768   3.039  20.522  0.00  0.00    +0.000 HD
ENDBRANCH  15  16
ENDBRANCH  14  15
ENDBRANCH   1  14
TORSDOF 5
ENDMDL
MODEL 7
REMARK VINA RESULT:      -5.0      2.841      4.153
REMARK  Name = 
REMARK  5 active torsions:
REMARK  status: ('A' for Active; 'I' for Inactive)
REMARK    1  A    between atoms: C_2  and  C_4
REMARK    2  A    between atoms: C_4  and  C_5
REMARK    3  A    between atoms: C_4  and  N_8
REMARK    4  A    between atoms: C_5  and  C_6
REMARK    5  A    between atoms: C_6  and  O_7
REMARK                            x       y       z     vdW  Elec       q    Type
REMARK                         _______ _______ _______ _____ _____    ______ ____
ROOT
ATOM      1  C   UNL     1       6.236   4.819  17.421  0.00  0.00    +0.000 C 
ENDROOT
BRANCH   1   2
ATOM      2  N   UNL     1       5.017   5.251  18.187  0.00  0.00    +0.000 NA
ATOM      3  C   UNL     1       3.765   5.101  17.395  0.00  0.00    +0.000 C 
ATOM      4  C   UNL     1       3.296   3.648  17.143  0.00  0.00    +0.000 C 
ATOM      5  N   UNL     1       3.239   2.817  18.350  0.00  0.00    +0.000 NA
ATOM      6  C   UNL     1       4.435   2.975  19.183  0.00  0.00    +0.000 C 
ATOM      7  C   UNL     1       4.812   4.454  19.426  0.00  0.00    +0.000 C 
ATOM      8  H   UNL     1       3.136   1.838  18.081  0.00  0.00    +0.000 HD
ENDBRANCH   1   2
BRANCH   1  10
ATOM      9  N   UNL     1       7.335   5.297  15.246  0.00  0.00    +0.000 N 
ATOM     10  C   UNL     1       6.577   5.793  16.266  0.00  0.00    +0.000 C 
ATOM     11  O   UNL     1       6.144   6.941  16.217  0.00  0.00    +0.000 OA
ATOM     12  H   UNL     1       7.626   5.931  14.515  0.00  0.00    +0.000 HD
ATOM     13  H   UNL     1       7.796   4.402  15.356  0.00  0.00    +0.000 HD
ENDBRANCH   1  10
BRANCH   1  14
ATOM     14  C   UNL     1       7.516   4.669  18.276  0.00  0.00    +0.000 C 
BRANCH  14  15
ATOM     15  C   UNL     1       7.869   5.894  19.111  0.00  0.00    +0.000 C 
BRANCH  15  16
ATOM     16  O   UNL     1       8.050   5.500  20.471  0.00  0.00    +0.000 OA
ATOM     17  H   UNL     1       8.830   5.969  20.812  0.00  0.00    +0.000 HD
ENDBRANCH  15  16
ENDBRANCH  14  15
ENDBRANCH   1  14
TORSDOF 5
ENDMDL
MODEL 8
REMARK VINA RESULT:      -5.0      2.176      3.107
REMARK  Name = 
REMARK  5 active torsions:
REMARK  status: ('A' for Active; 'I' for Inactive)
REMARK    1  A    between atoms: C_2  and  C_4
REMARK    2  A    between atoms: C_4  and  C_5
REMARK    3  A    between atoms: C_4  and  N_8
REMARK    4  A    between atoms: C_5  and  C_6
REMARK    5  A    between atoms: C_6  and  O_7
REMARK                            x       y       z     vdW  Elec       q    Type
REMARK                         _______ _______ _______ _____ _____    ______ ____
ROOT
ATOM      1  C   UNL     1       3.636   4.549  18.919  0.00  0.00    +0.000 C 
ENDROOT
BRANCH   1   2
ATOM      2  N   UNL     1       2.905   3.242  18.784  0.00  0.00    +0.000 NA
ATOM      3  C   UNL     1       3.196   2.308  19.907  0.00  0.00    +0.000 C 
ATOM      4  C   UNL     1       2.592   2.694  21.278  0.00  0.00    +0.000 C 
ATOM      5  N   UNL     1       1.161   3.012  21.237  0.00  0.00    +0.000 NA
ATOM      6  C   UNL     1       0.826   3.891  20.113  0.00  0.00    +0.000 C 
ATOM      7  C   UNL     1       1.428   3.414  18.772  0.00  0.00    +0.000 C 
ATOM      8  H   UNL     1       0.889   3.457  22.113  0.00  0.00    +0.000 HD
ENDBRANCH   1   2
BRANCH   1  10
ATOM      9  N   UNL     1       5.553   3.871  17.493  0.00  0.00    +0.000 N 
ATOM     10  C   UNL     1       5.159   4.394  18.691  0.00  0.00    +0.000 C 
ATOM     11  O   UNL     1       5.995   4.775  19.506  0.00  0.00    +0.000 OA
ATOM     12  H   UNL     1       6.537   3.698  17.348  0.00  0.00    +0.000 HD
ATOM     13  H   UNL     1       4.866   3.438  16.888  0.00  0.00    +0.000 HD
ENDBRANCH   1  10
BRANCH   1  14
ATOM     14  C   UNL     1       3.148   5.662  17.964  0.00  0.00    +0.000 C 
BRANCH  14  15
ATOM     15  C   UNL     1       2.672   6.932  18.660  0.00  0.00    +0.000 C 
BRANCH  15  16
ATOM     16  O   UNL     1       2.768   6.759  20.073  0.00  0.00    +0.000 OA
ATOM     17  H   UNL     1       2.584   7.618  20.488  0.00  0.00    +0.000 HD
ENDBRANCH  15  16
ENDBRANCH  14  15
ENDBRANCH   1  14
TORSDOF 5
ENDMDL
MODEL 9
REMARK VINA RESULT:      -5.0      2.807      4.167
REMARK  Name = 
REMARK  5 active torsions:
REMARK  status: ('A' for Active; 'I' for Inactive)
REMARK    1  A    between atoms: C_2  and  C_4
REMARK    2  A    between atoms: C_4  and  C_5
REMARK    3  A    between atoms: C_4  and  N_8
REMARK    4  A    between atoms: C_5  and  C_6
REMARK    5  A    between atoms: C_6  and  O_7
REMARK                            x       y       z     vdW  Elec       q    Type
REMARK                         _______ _______ _______ _____ _____    ______ ____
ROOT
ATOM      1  C   UNL     1       6.298   5.394  17.400  0.00  0.00    +0.000 C 
ENDROOT
BRANCH   1   2
ATOM      2  N   UNL     1       5.558   4.765  18.548  0.00  0.00    +0.000 NA
ATOM      3  C   UNL     1       4.613   5.710  19.203  0.00  0.00    +0.000 C 
ATOM      4  C   UNL     1       3.355   6.083  18.381  0.00  0.00    +0.000 C 
ATOM      5  N   UNL     1       2.630   4.932  17.835  0.00  0.00    +0.000 NA
ATOM      6  C   UNL     1       3.533   3.952  17.225  0.00  0.00    +0.000 C 
ATOM      7  C   UNL     1       4.739   3.598  18.125  0.00  0.00    +0.000 C 
ATOM      8  H   UNL     1       1.956   5.255  17.142  0.00  0.00    +0.000 HD
ENDBRANCH   1   2
BRANCH   1  10
ATOM      9  N   UNL     1       7.501   7.546  17.096  0.00  0.00    +0.000 N 
ATOM     10  C   UNL     1       7.338   6.438  17.877  0.00  0.00    +0.000 C 
ATOM     11  O   UNL     1       7.951   6.329  18.935  0.00  0.00    +0.000 OA
ATOM     12  H   UNL     1       8.220   8.207  17.350  0.00  0.00    +0.000 HD
ATOM     13  H   UNL     1       7.097   7.566  16.167  0.00  0.00    +0.000 HD
ENDBRANCH   1  10
BRANCH   1  14
ATOM     14  C   UNL     1       7.047   4.395  16.490  0.00  0.00    +0.000 C 
BRANCH  14  15
ATOM     15  C   UNL     1       6.830   4.610  14.996  0.00  0.00    +0.000 C 
BRANCH  15  16
ATOM     16  O   UNL     1       7.785   5.553  14.513  0.00  0.00    +0.000 OA
ATOM     17  H   UNL     1       8.045   6.118  15.259  0.00  0.00    +0.000 HD
ENDBRANCH  15  16
ENDBRANCH  14  15
ENDBRANCH   1  14
TORSDOF 5
ENDMDL
