MODEL 1
REMARK VINA RESULT:      -7.4      0.000      0.000
REMARK  Name = 
REMARK  12 active torsions:
REMARK  status: ('A' for Active; 'I' for Inactive)
REMARK    1  A    between atoms: C_2  and  C_19
REMARK    2  A    between atoms: N_3  and  C_4
REMARK    3  A    between atoms: C_4  and  C_5
REMARK    4  A    between atoms: C_5  and  C_6
REMARK    5  A    between atoms: C_6  and  N_7
REMARK    6  A    between atoms: C_8  and  C_10
REMARK    7  A    between atoms: C_12  and  O_13
REMARK    8  A    between atoms: C_14  and  O_15
REMARK    9  A    between atoms: C_16  and  O_17
REMARK   10  A    between atoms: C_21  and  O_22
REMARK   11  A    between atoms: C_23  and  O_24
REMARK   12  A    between atoms: C_25  and  O_26
REMARK                            x       y       z     vdW  Elec       q    Type
REMARK                         _______ _______ _______ _____ _____    ______ ____
ROOT
ATOM      1  C   UNL     1       2.114   2.683  17.629  0.00  0.00    +0.000 C 
ENDROOT
BRANCH   1   2
ATOM      2  C   UNL     1       3.542   2.152  17.552  0.00  0.00    +0.000 C 
BRANCH   2   5
ATOM      3  O   UNL     1       4.780   4.099  15.975  0.00  0.00    +0.000 OA
ATOM      4  C   UNL     1       5.076   4.030  17.163  0.00  0.00    +0.000 C 
ATOM      5  N   UNL     1       4.519   3.113  18.031  0.00  0.00    +0.000 N 
ATOM      6  H   UNL     1       4.681   3.199  19.027  0.00  0.00    +0.000 HD
BRANCH   4   7
ATOM      7  C   UNL     1       6.049   5.002  17.733  0.00  0.00    +0.000 A 
ATOM      8  C   UNL     1       6.289   6.188  17.014  0.00  0.00    +0.000 A 
ATOM      9  C   UNL     1       7.215   7.108  17.495  0.00  0.00    +0.000 A 
ATOM     10  C   UNL     1       7.906   6.850  18.672  0.00  0.00    +0.000 A 
ATOM     11  C   UNL     1       7.678   5.673  19.374  0.00  0.00    +0.000 A 
ATOM     12  C   UNL     1       6.753   4.741  18.918  0.00  0.00    +0.000 A 
BRANCH   9  13
ATOM     13  O   UNL     1       7.486   8.277  16.841  0.00  0.00    +0.000 OA
ATOM     14  H   UNL     1       7.203   8.181  15.914  0.00  0.00    +0.000 HD
ENDBRANCH   9  13
BRANCH  10  15
ATOM     15  O   UNL     1       8.829   7.741  19.148  0.00  0.00    +0.000 OA
ATOM     16  H   UNL     1       9.271   8.084  18.343  0.00  0.00    +0.000 HD
ENDBRANCH  10  15
BRANCH  11  17
ATOM     17  O   UNL     1       8.378   5.417  20.518  0.00  0.00    +0.000 OA
ATOM     18  H   UNL     1       8.881   6.242  20.689  0.00  0.00    +0.000 HD
ENDBRANCH  11  17
ENDBRANCH   4   7
ENDBRANCH   2   5
ENDBRANCH   1   2
BRANCH   1  19
ATOM     19  C   UNL     1       1.754   3.102  19.054  0.00  0.00    +0.000 C 
BRANCH  19  20
ATOM     20  N   UNL     1       1.491   4.528  19.136  0.00  0.00    +0.000 N 
ATOM     21  C   UNL     1       2.410   5.415  19.660  0.00  0.00    +0.000 C 
ATOM     22  O   UNL     1       3.490   5.074  20.128  0.00  0.00    +0.000 OA
ATOM     23  H   UNL     1       0.587   4.858  18.827  0.00  0.00    +0.000 HD
BRANCH  21  24
ATOM     24  C   UNL     1       2.027   6.857  19.666  0.00  0.00    +0.000 A 
ATOM     25  C   UNL     1       2.201   7.600  18.481  0.00  0.00    +0.000 A 
ATOM     26  C   UNL     1       1.817   8.938  18.447  0.00  0.00    +0.000 A 
ATOM     27  C   UNL     1       1.264   9.534  19.576  0.00  0.00    +0.000 A 
ATOM     28  C   UNL     1       1.091   8.799  20.740  0.00  0.00    +0.000 A 
ATOM     29  C   UNL     1       1.462   7.462  20.797  0.00  0.00    +0.000 A 
BRANCH  26  30
ATOM     30  O   UNL     1       1.955   9.708  17.327  0.00  0.00    +0.000 OA
ATOM     31  H   UNL     1       1.273   9.446  16.685  0.00  0.00    +0.000 HD
ENDBRANCH  26  30
BRANCH  27  32
ATOM     32  O   UNL     1       0.869  10.843  19.551  0.00  0.00    +0.000 OA
ATOM     33  H   UNL     1       1.675  11.336  19.296  0.00  0.00    +0.000 HD
ENDBRANCH  27  32
BRANCH  28  34
ATOM     34  O   UNL     1       0.535   9.381  21.841  0.00  0.00    +0.000 OA
ATOM     35  H   UNL     1      -0.427   9.398  21.652  0.00  0.00    +0.000 HD
ENDBRANCH  28  34
ENDBRANCH  21  24
ENDBRANCH  19  20
ENDBRANCH   1  19
TORSDOF 12
ENDMDL
MODEL 2
REMARK VINA RESULT:      -7.4      0.216      1.606
REMARK  Name = 
REMARK  12 active torsions:
REMARK  status: ('A' for Active; 'I' for Inactive)
REMARK    1  A    between atoms: C_2  and  C_19
REMARK    2  A    between atoms: N_3  and  C_4
REMARK    3  A    between atoms: C_4  and  C_5
REMARK    4  A    between atoms: C_5  and  C_6
REMARK    5  A    between atoms: C_6  and  N_7
REMARK    6  A    between atoms: C_8  and  C_10
REMARK    7  A    between atoms: C_12  and  O_13
REMARK    8  A    between atoms: C_14  and  O_15
REMARK    9  A    between atoms: C_16  and  O_17
REMARK   10  A    between atoms: C_21  and  O_22
REMARK   11  A    between atoms: C_23  and  O_24
REMARK   12  A    between atoms: C_25  and  O_26
REMARK                            x       y       z     vdW  Elec       q    Type
REMARK                         _______ _______ _______ _____ _____    ______ ____
ROOT
ATOM      1  C   UNL     1       1.979   2.630  18.001  0.00  0.00    +0.000 C 
ENDROOT
BRANCH   1   2
ATOM      2  C   UNL     1       3.389   2.190  17.620  0.00  0.00    +0.000 C 
BRANCH   2   5
ATOM      3  O   UNL     1       4.563   4.198  16.070  0.00  0.00    +0.000 OA
ATOM      4  C   UNL     1       4.925   4.068  17.235  0.00  0.00    +0.000 C 
ATOM      5  N   UNL     1       4.406   3.116  18.088  0.00  0.00    +0.000 N 
ATOM      6  H   UNL     1       4.625   3.151  19.076  0.00  0.00    +0.000 HD
BRANCH   4   7
ATOM      7  C   UNL     1       5.943   5.000  17.794  0.00  0.00    +0.000 A 
ATOM      8  C   UNL     1       6.264   6.147  17.044  0.00  0.00    +0.000 A 
ATOM      9  C   UNL     1       7.233   7.027  17.515  0.00  0.00    +0.000 A 
ATOM     10  C   UNL     1       7.887   6.766  18.712  0.00  0.00    +0.000 A 
ATOM     11  C   UNL     1       7.578   5.627  19.445  0.00  0.00    +0.000 A 
ATOM     12  C   UNL     1       6.609   4.736  19.000  0.00  0.00    +0.000 A 
BRANCH   9  13
ATOM     13  O   UNL     1       7.583   8.158  16.832  0.00  0.00    +0.000 OA
ATOM     14  H   UNL     1       8.146   8.702  17.410  0.00  0.00    +0.000 HD
ENDBRANCH   9  13
BRANCH  10  15
ATOM     15  O   UNL     1       8.851   7.618  19.179  0.00  0.00    +0.000 OA
ATOM     16  H   UNL     1       8.735   7.605  20.152  0.00  0.00    +0.000 HD
ENDBRANCH  10  15
BRANCH  11  17
ATOM     17  O   UNL     1       8.242   5.368  20.610  0.00  0.00    +0.000 OA
ATOM     18  H   UNL     1       8.768   4.562  20.420  0.00  0.00    +0.000 HD
ENDBRANCH  11  17
ENDBRANCH   4   7
ENDBRANCH   2   5
ENDBRANCH   1   2
BRANCH   1  19
ATOM     19  C   UNL     1       1.945   3.229  19.407  0.00  0.00    +0.000 C 
BRANCH  19  20
ATOM     20  N   UNL     1       1.587   4.636  19.374  0.00  0.00    +0.000 N 
ATOM     21  C   UNL     1       2.460   5.626  19.780  0.00  0.00    +0.000 C 
ATOM     22  O   UNL     1       3.578   5.400  20.228  0.00  0.00    +0.000 OA
ATOM     23  H   UNL     1       0.651   4.876  19.078  0.00  0.00    +0.000 HD
BRANCH  21  24
ATOM     24  C   UNL     1       1.979   7.033  19.676  0.00  0.00    +0.000 A 
ATOM     25  C   UNL     1       1.355   7.612  20.799  0.00  0.00    +0.000 A 
ATOM     26  C   UNL     1       0.931   8.937  20.743  0.00  0.00    +0.000 A 
ATOM     27  C   UNL     1       1.125   9.683  19.585  0.00  0.00    +0.000 A 
ATOM     28  C   UNL     1       1.743   9.111  18.482  0.00  0.00    +0.000 A 
ATOM     29  C   UNL     1       2.178   7.793  18.515  0.00  0.00    +0.000 A 
BRANCH  26  30
ATOM     30  O   UNL     1       0.325   9.554  21.800  0.00  0.00    +0.000 OA
ATOM     31  H   UNL     1      -0.429  10.072  21.466  0.00  0.00    +0.000 HD
ENDBRANCH  26  30
BRANCH  27  32
ATOM     32  O   UNL     1       0.726  10.990  19.522  0.00  0.00    +0.000 OA
ATOM     33  H   UNL     1       0.761  11.208  18.568  0.00  0.00    +0.000 HD
ENDBRANCH  27  32
BRANCH  28  34
ATOM     34  O   UNL     1       1.945   9.849  17.352  0.00  0.00    +0.000 OA
ATOM     35  H   UNL     1       2.284  10.709  17.676  0.00  0.00    +0.000 HD
ENDBRANCH  28  34
ENDBRANCH  21  24
ENDBRANCH  19  20
ENDBRANCH   1  19
TORSDOF 12
ENDMDL
MODEL 3
REMARK VINA RESULT:      -7.4      1.213      1.677
REMARK  Name = 
REMARK  12 active torsions:
REMARK  status: ('A' for Active; 'I' for Inactive)
REMARK    1  A    between atoms: C_2  and  C_19
REMARK    2  A    between atoms: N_3  and  C_4
REMARK    3  A    between atoms: C_4  and  C_5
REMARK    4  A    between atoms: C_5  and  C_6
REMARK    5  A    between atoms: C_6  and  N_7
REMARK    6  A    between atoms: C_8  and  C_10
REMARK    7  A    between atoms: C_12  and  O_13
REMARK    8  A    between atoms: C_14  and  O_15
REMARK    9  A    between atoms: C_16  and  O_17
REMARK   10  A    between atoms: C_21  and  O_22
REMARK   11  A    between atoms: C_23  and  O_24
REMARK   12  A    between atoms: C_25  and  O_26
REMARK                            x       y       z     vdW  Elec       q    Type
REMARK                         _______ _______ _______ _____ _____    ______ ____
ROOT
ATOM      1  C   UNL     1       1.005   2.819  19.382  0.00  0.00    +0.000 C 
ENDROOT
BRANCH   1   2
ATOM      2  C   UNL     1       2.302   2.216  18.851  0.00  0.00    +0.000 C 
BRANCH   2   5
ATOM      3  O   UNL     1       4.905   2.605  19.792  0.00  0.00    +0.000 OA
ATOM      4  C   UNL     1       4.488   3.334  18.899  0.00  0.00    +0.000 C 
ATOM      5  N   UNL     1       3.224   3.224  18.358  0.00  0.00    +0.000 N 
ATOM      6  H   UNL     1       2.986   3.745  17.523  0.00  0.00    +0.000 HD
BRANCH   4   7
ATOM      7  C   UNL     1       5.386   4.372  18.323  0.00  0.00    +0.000 A 
ATOM      8  C   UNL     1       5.213   4.711  16.968  0.00  0.00    +0.000 A 
ATOM      9  C   UNL     1       6.052   5.653  16.382  0.00  0.00    +0.000 A 
ATOM     10  C   UNL     1       7.063   6.245  17.128  0.00  0.00    +0.000 A 
ATOM     11  C   UNL     1       7.242   5.900  18.462  0.00  0.00    +0.000 A 
ATOM     12  C   UNL     1       6.412   4.967  19.073  0.00  0.00    +0.000 A 
BRANCH   9  13
ATOM     13  O   UNL     1       5.928   6.023  15.072  0.00  0.00    +0.000 OA
ATOM     14  H   UNL     1       6.656   6.633  14.856  0.00  0.00    +0.000 HD
ENDBRANCH   9  13
BRANCH  10  15
ATOM     15  O   UNL     1       7.903   7.162  16.558  0.00  0.00    +0.000 OA
ATOM     16  H   UNL     1       8.292   7.640  17.320  0.00  0.00    +0.000 HD
ENDBRANCH  10  15
BRANCH  11  17
ATOM     17  O   UNL     1       8.253   6.471  19.181  0.00  0.00    +0.000 OA
ATOM     18  H   UNL     1       8.785   6.956  18.516  0.00  0.00    +0.000 HD
ENDBRANCH  11  17
ENDBRANCH   4   7
ENDBRANCH   2   5
ENDBRANCH   1   2
BRANCH   1  19
ATOM     19  C   UNL     1       1.247   3.614  20.665  0.00  0.00    +0.000 C 
BRANCH  19  20
ATOM     20  N   UNL     1       1.018   5.033  20.459  0.00  0.00    +0.000 N 
ATOM     21  C   UNL     1       2.058   5.933  20.328  0.00  0.00    +0.000 C 
ATOM     22  O   UNL     1       3.239   5.618  20.410  0.00  0.00    +0.000 OA
ATOM     23  H   UNL     1       0.062   5.359  20.452  0.00  0.00    +0.000 HD
BRANCH  21  24
ATOM     24  C   UNL     1       1.690   7.359  20.098  0.00  0.00    +0.000 A 
ATOM     25  C   UNL     1       2.010   7.942  18.855  0.00  0.00    +0.000 A 
ATOM     26  C   UNL     1       1.644   9.260  18.600  0.00  0.00    +0.000 A 
ATOM     27  C   UNL     1       0.965   9.995  19.565  0.00  0.00    +0.000 A 
ATOM     28  C   UNL     1       0.648   9.418  20.787  0.00  0.00    +0.000 A 
ATOM     29  C   UNL     1       0.998   8.104  21.064  0.00  0.00    +0.000 A 
BRANCH  26  30
ATOM     30  O   UNL     1       1.922   9.877  17.413  0.00  0.00    +0.000 OA
ATOM     31  H   UNL     1       2.252  10.773  17.600  0.00  0.00    +0.000 HD
ENDBRANCH  26  30
BRANCH  27  32
ATOM     32  O   UNL     1       0.586  11.287  19.321  0.00  0.00    +0.000 OA
ATOM     33  H   UNL     1      -0.251  11.205  18.821  0.00  0.00    +0.000 HD
ENDBRANCH  27  32
BRANCH  28  34
ATOM     34  O   UNL     1      -0.031  10.136  21.728  0.00  0.00    +0.000 OA
ATOM     35  H   UNL     1       0.193   9.703  22.578  0.00  0.00    +0.000 HD
ENDBRANCH  28  34
ENDBRANCH  21  24
ENDBRANCH  19  20
ENDBRANCH   1  19
TORSDOF 12
ENDMDL
MODEL 4
REMARK VINA RESULT:      -7.4      2.005      3.103
REMARK  Name = 
REMARK  12 active torsions:
REMARK  status: ('A' for Active; 'I' for Inactive)
REMARK    1  A    between atoms: C_2  and  C_19
REMARK    2  A    between atoms: N_3  and  C_4
REMARK    3  A    between atoms: C_4  and  C_5
REMARK    4  A    between atoms: C_5  and  C_6
REMARK    5  A    between atoms: C_6  and  N_7
REMARK    6  A    between atoms: C_8  and  C_10
REMARK    7  A    between atoms: C_12  and  O_13
REMARK    8  A    between atoms: C_14  and  O_15
REMARK    9  A    between atoms: C_16  and  O_17
REMARK   10  A    between atoms: C_21  and  O_22
REMARK   11  A    between atoms: C_23  and  O_24
REMARK   12  A    between atoms: C_25  and  O_26
REMARK                            x       y       z     vdW  Elec       q    Type
REMARK                         _______ _______ _______ _____ _____    ______ ____
ROOT
ATOM      1  C   UNL     1       1.634   3.936  20.031  0.00  0.00    +0.000 C 
ENDROOT
BRANCH   1   2
ATOM      2  C   UNL     1       1.441   3.851  18.520  0.00  0.00    +0.000 C 
BRANCH   2   5
ATOM      3  O   UNL     1       3.609   2.311  17.661  0.00  0.00    +0.000 OA
ATOM      4  C   UNL     1       3.606   3.512  17.412  0.00  0.00    +0.000 C 
ATOM      5  N   UNL     1       2.583   4.361  17.783  0.00  0.00    +0.000 N 
ATOM      6  H   UNL     1       2.556   5.306  17.421  0.00  0.00    +0.000 HD
BRANCH   4   7
ATOM      7  C   UNL     1       4.730   4.102  16.634  0.00  0.00    +0.000 A 
ATOM      8  C   UNL     1       5.085   3.483  15.420  0.00  0.00    +0.000 A 
ATOM      9  C   UNL     1       6.149   3.983  14.678  0.00  0.00    +0.000 A 
ATOM     10  C   UNL     1       6.866   5.079  15.141  0.00  0.00    +0.000 A 
ATOM     11  C   UNL     1       6.524   5.682  16.345  0.00  0.00    +0.000 A 
ATOM     12  C   UNL     1       5.459   5.205  17.102  0.00  0.00    +0.000 A 
BRANCH   9  13
ATOM     13  O   UNL     1       6.535   3.424  13.492  0.00  0.00    +0.000 OA
ATOM     14  H   UNL     1       5.780   2.927  13.129  0.00  0.00    +0.000 HD
ENDBRANCH   9  13
BRANCH  10  15
ATOM     15  O   UNL     1       7.924   5.571  14.426  0.00  0.00    +0.000 OA
ATOM     16  H   UNL     1       8.418   4.773  14.145  0.00  0.00    +0.000 HD
ENDBRANCH  10  15
BRANCH  11  17
ATOM     17  O   UNL     1       7.248   6.745  16.802  0.00  0.00    +0.000 OA
ATOM     18  H   UNL     1       7.467   6.514  17.730  0.00  0.00    +0.000 HD
ENDBRANCH  11  17
ENDBRANCH   4   7
ENDBRANCH   2   5
ENDBRANCH   1   2
BRANCH   1  19
ATOM     19  C   UNL     1       2.692   4.977  20.397  0.00  0.00    +0.000 C 
BRANCH  19  20
ATOM     20  N   UNL     1       2.082   6.224  20.824  0.00  0.00    +0.000 N 
ATOM     21  C   UNL     1       2.025   7.332  20.003  0.00  0.00    +0.000 C 
ATOM     22  O   UNL     1       2.509   7.366  18.878  0.00  0.00    +0.000 OA
ATOM     23  H   UNL     1       1.727   6.274  21.769  0.00  0.00    +0.000 HD
BRANCH  21  24
ATOM     24  C   UNL     1       1.352   8.544  20.552  0.00  0.00    +0.000 A 
ATOM     25  C   UNL     1       0.946   9.550  19.652  0.00  0.00    +0.000 A 
ATOM     26  C   UNL     1       0.281  10.674  20.133  0.00  0.00    +0.000 A 
ATOM     27  C   UNL     1       0.018  10.801  21.493  0.00  0.00    +0.000 A 
ATOM     28  C   UNL     1       0.416   9.807  22.376  0.00  0.00    +0.000 A 
ATOM     29  C   UNL     1       1.077   8.675  21.920  0.00  0.00    +0.000 A 
BRANCH  26  30
ATOM     30  O   UNL     1      -0.142  11.680  19.310  0.00  0.00    +0.000 OA
ATOM     31  H   UNL     1      -0.905  11.360  18.797  0.00  0.00    +0.000 HD
ENDBRANCH  26  30
BRANCH  27  32
ATOM     32  O   UNL     1      -0.647  11.894  21.977  0.00  0.00    +0.000 OA
ATOM     33  H   UNL     1       0.007  12.620  21.924  0.00  0.00    +0.000 HD
ENDBRANCH  27  32
BRANCH  28  34
ATOM     34  O   UNL     1       0.145   9.926  23.708  0.00  0.00    +0.000 OA
ATOM     35  H   UNL     1       0.793   9.334  24.145  0.00  0.00    +0.000 HD
ENDBRANCH  28  34
ENDBRANCH  21  24
ENDBRANCH  19  20
ENDBRANCH   1  19
TORSDOF 12
ENDMDL
MODEL 5
REMARK VINA RESULT:      -7.3      1.779      2.784
REMARK  Name = 
REMARK  12 active torsions:
REMARK  status: ('A' for Active; 'I' for Inactive)
REMARK    1  A    between atoms: C_2  and  C_19
REMARK    2  A    between atoms: N_3  and  C_4
REMARK    3  A    between atoms: C_4  and  C_5
REMARK    4  A    between atoms: C_5  and  C_6
REMARK    5  A    between atoms: C_6  and  N_7
REMARK    6  A    between atoms: C_8  and  C_10
REMARK    7  A    between atoms: C_12  and  O_13
REMARK    8  A    between atoms: C_14  and  O_15
REMARK    9  A    between atoms: C_16  and  O_17
REMARK   10  A    between atoms: C_21  and  O_22
REMARK   11  A    between atoms: C_23  and  O_24
REMARK   12  A    between atoms: C_25  and  O_26
REMARK                            x       y       z     vdW  Elec       q    Type
REMARK                         _______ _______ _______ _____ _____    ______ ____
ROOT
ATOM      1  C   UNL     1       1.290   3.698  19.447  0.00  0.00    +0.000 C 
ENDROOT
BRANCH   1   2
ATOM      2  C   UNL     1       2.232   2.635  18.889  0.00  0.00    +0.000 C 
BRANCH   2   5
ATOM      3  O   UNL     1       4.904   3.290  19.380  0.00  0.00    +0.000 OA
ATOM      4  C   UNL     1       4.454   3.466  18.253  0.00  0.00    +0.000 C 
ATOM      5  N   UNL     1       3.152   3.170  17.902  0.00  0.00    +0.000 N 
ATOM      6  H   UNL     1       2.877   3.187  16.928  0.00  0.00    +0.000 HD
BRANCH   4   7
ATOM      7  C   UNL     1       5.346   3.984  17.180  0.00  0.00    +0.000 A 
ATOM      8  C   UNL     1       6.117   5.127  17.463  0.00  0.00    +0.000 A 
ATOM      9  C   UNL     1       6.941   5.662  16.478  0.00  0.00    +0.000 A 
ATOM     10  C   UNL     1       6.991   5.077  15.219  0.00  0.00    +0.000 A 
ATOM     11  C   UNL     1       6.219   3.957  14.937  0.00  0.00    +0.000 A 
ATOM     12  C   UNL     1       5.394   3.399  15.906  0.00  0.00    +0.000 A 
BRANCH   9  13
ATOM     13  O   UNL     1       7.713   6.768  16.697  0.00  0.00    +0.000 OA
ATOM     14  H   UNL     1       8.622   6.568  16.407  0.00  0.00    +0.000 HD
ENDBRANCH   9  13
BRANCH  10  15
ATOM     15  O   UNL     1       7.786   5.603  14.238  0.00  0.00    +0.000 OA
ATOM     16  H   UNL     1       8.074   4.824  13.717  0.00  0.00    +0.000 HD
ENDBRANCH  10  15
BRANCH  11  17
ATOM     17  O   UNL     1       6.258   3.402  13.690  0.00  0.00    +0.000 OA
ATOM     18  H   UNL     1       6.826   4.007  13.168  0.00  0.00    +0.000 HD
ENDBRANCH  11  17
ENDBRANCH   4   7
ENDBRANCH   2   5
ENDBRANCH   1   2
BRANCH   1  19
ATOM     19  C   UNL     1       1.871   4.350  20.701  0.00  0.00    +0.000 C 
BRANCH  19  20
ATOM     20  N   UNL     1       1.478   5.745  20.802  0.00  0.00    +0.000 N 
ATOM     21  C   UNL     1       2.136   6.745  20.115  0.00  0.00    +0.000 C 
ATOM     22  O   UNL     1       3.114   6.547  19.403  0.00  0.00    +0.000 OA
ATOM     23  H   UNL     1       0.720   5.975  21.430  0.00  0.00    +0.000 HD
BRANCH  21  24
ATOM     24  C   UNL     1       1.620   8.134  20.287  0.00  0.00    +0.000 A 
ATOM     25  C   UNL     1       1.483   8.943  19.142  0.00  0.00    +0.000 A 
ATOM     26  C   UNL     1       0.967  10.230  19.268  0.00  0.00    +0.000 A 
ATOM     27  C   UNL     1       0.589  10.710  20.517  0.00  0.00    +0.000 A 
ATOM     28  C   UNL     1       0.722   9.910  21.642  0.00  0.00    +0.000 A 
ATOM     29  C   UNL     1       1.230   8.622  21.541  0.00  0.00    +0.000 A 
BRANCH  26  30
ATOM     30  O   UNL     1       0.806  11.060  18.194  0.00  0.00    +0.000 OA
ATOM     31  H   UNL     1       0.867  11.981  18.503  0.00  0.00    +0.000 HD
ENDBRANCH  26  30
BRANCH  27  32
ATOM     32  O   UNL     1       0.068  11.968  20.653  0.00  0.00    +0.000 OA
ATOM     33  H   UNL     1       0.658  12.535  20.117  0.00  0.00    +0.000 HD
ENDBRANCH  27  32
BRANCH  28  34
ATOM     34  O   UNL     1       0.337  10.378  22.865  0.00  0.00    +0.000 OA
ATOM     35  H   UNL     1       1.155  10.754  23.254  0.00  0.00    +0.000 HD
ENDBRANCH  28  34
ENDBRANCH  21  24
ENDBRANCH  19  20
ENDBRANCH   1  19
TORSDOF 12
ENDMDL
MODEL 6
REMARK VINA RESULT:      -7.3      1.829      3.316
REMARK  Name = 
REMARK  12 active torsions:
REMARK  status: ('A' for Active; 'I' for Inactive)
REMARK    1  A    between atoms: C_2  and  C_19
REMARK    2  A    between atoms: N_3  and  C_4
REMARK    3  A    between atoms: C_4  and  C_5
REMARK    4  A    between atoms: C_5  and  C_6
REMARK    5  A    between atoms: C_6  and  N_7
REMARK    6  A    between atoms: C_8  and  C_10
REMARK    7  A    between atoms: C_12  and  O_13
REMARK    8  A    between atoms: C_14  and  O_15
REMARK    9  A    between atoms: C_16  and  O_17
REMARK   10  A    between atoms: C_21  and  O_22
REMARK   11  A    between atoms: C_23  and  O_24
REMARK   12  A    between atoms: C_25  and  O_26
REMARK                            x       y       z     vdW  Elec       q    Type
REMARK                         _______ _______ _______ _____ _____    ______ ____
ROOT
ATOM      1  C   UNL     1       1.434   4.092  19.855  0.00  0.00    +0.000 C 
ENDROOT
BRANCH   1   2
ATOM      2  C   UNL     1       2.295   2.984  19.257  0.00  0.00    +0.000 C 
BRANCH   2   5
ATOM      3  O   UNL     1       5.052   3.333  19.557  0.00  0.00    +0.000 OA
ATOM      4  C   UNL     1       4.538   3.613  18.479  0.00  0.00    +0.000 C 
ATOM      5  N   UNL     1       3.189   3.472  18.222  0.00  0.00    +0.000 N 
ATOM      6  H   UNL     1       2.844   3.569  17.276  0.00  0.00    +0.000 HD
BRANCH   4   7
ATOM      7  C   UNL     1       5.397   4.092  17.361  0.00  0.00    +0.000 A 
ATOM      8  C   UNL     1       6.154   5.260  17.568  0.00  0.00    +0.000 A 
ATOM      9  C   UNL     1       6.945   5.758  16.539  0.00  0.00    +0.000 A 
ATOM     10  C   UNL     1       6.976   5.113  15.310  0.00  0.00    +0.000 A 
ATOM     11  C   UNL     1       6.218   3.967  15.101  0.00  0.00    +0.000 A 
ATOM     12  C   UNL     1       5.425   3.445  16.116  0.00  0.00    +0.000 A 
BRANCH   9  13
ATOM     13  O   UNL     1       7.703   6.886  16.685  0.00  0.00    +0.000 OA
ATOM     14  H   UNL     1       7.381   7.372  17.465  0.00  0.00    +0.000 HD
ENDBRANCH   9  13
BRANCH  10  15
ATOM     15  O   UNL     1       7.739   5.602  14.285  0.00  0.00    +0.000 OA
ATOM     16  H   UNL     1       7.135   6.199  13.796  0.00  0.00    +0.000 HD
ENDBRANCH  10  15
BRANCH  11  17
ATOM     17  O   UNL     1       6.237   3.352  13.882  0.00  0.00    +0.000 OA
ATOM     18  H   UNL     1       6.551   2.443  14.070  0.00  0.00    +0.000 HD
ENDBRANCH  11  17
ENDBRANCH   4   7
ENDBRANCH   2   5
ENDBRANCH   1   2
BRANCH   1  19
ATOM     19  C   UNL     1       2.226   4.930  20.859  0.00  0.00    +0.000 C 
BRANCH  19  20
ATOM     20  N   UNL     1       1.718   6.288  20.932  0.00  0.00    +0.000 N 
ATOM     21  C   UNL     1       2.019   7.237  19.976  0.00  0.00    +0.000 C 
ATOM     22  O   UNL     1       2.759   7.026  19.022  0.00  0.00    +0.000 OA
ATOM     23  H   UNL     1       1.157   6.537  21.736  0.00  0.00    +0.000 HD
BRANCH  21  24
ATOM     24  C   UNL     1       1.416   8.589  20.155  0.00  0.00    +0.000 A 
ATOM     25  C   UNL     1       1.008   8.975  21.448  0.00  0.00    +0.000 A 
ATOM     26  C   UNL     1       0.478  10.246  21.651  0.00  0.00    +0.000 A 
ATOM     27  C   UNL     1       0.352  11.128  20.583  0.00  0.00    +0.000 A 
ATOM     28  C   UNL     1       0.757  10.747  19.312  0.00  0.00    +0.000 A 
ATOM     29  C   UNL     1       1.293   9.486  19.085  0.00  0.00    +0.000 A 
BRANCH  26  30
ATOM     30  O   UNL     1       0.070  10.679  22.881  0.00  0.00    +0.000 OA
ATOM     31  H   UNL     1      -0.716  11.240  22.767  0.00  0.00    +0.000 HD
ENDBRANCH  26  30
BRANCH  27  32
ATOM     32  O   UNL     1      -0.154  12.384  20.771  0.00  0.00    +0.000 OA
ATOM     33  H   UNL     1       0.617  12.918  21.050  0.00  0.00    +0.000 HD
ENDBRANCH  27  32
BRANCH  28  34
ATOM     34  O   UNL     1       0.647  11.618  18.267  0.00  0.00    +0.000 OA
ATOM     35  H   UNL     1       0.853  12.494  18.655  0.00  0.00    +0.000 HD
ENDBRANCH  28  34
ENDBRANCH  21  24
ENDBRANCH  19  20
ENDBRANCH   1  19
TORSDOF 12
ENDMDL
MODEL 7
REMARK VINA RESULT:      -7.3      1.423      6.020
REMARK  Name = 
REMARK  12 active torsions:
REMARK  status: ('A' for Active; 'I' for Inactive)
REMARK    1  A    between atoms: C_2  and  C_19
REMARK    2  A    between atoms: N_3  and  C_4
REMARK    3  A    between atoms: C_4  and  C_5
REMARK    4  A    between atoms: C_5  and  C_6
REMARK    5  A    between atoms: C_6  and  N_7
REMARK    6  A    between atoms: C_8  and  C_10
REMARK    7  A    between atoms: C_12  and  O_13
REMARK    8  A    between atoms: C_14  and  O_15
REMARK    9  A    between atoms: C_16  and  O_17
REMARK   10  A    between atoms: C_21  and  O_22
REMARK   11  A    between atoms: C_23  and  O_24
REMARK   12  A    between atoms: C_25  and  O_26
REMARK                            x       y       z     vdW  Elec       q    Type
REMARK                         _______ _______ _______ _____ _____    ______ ____
ROOT
ATOM      1  C   UNL     1       0.992   2.476  19.621  0.00  0.00    +0.000 C 
ENDROOT
BRANCH   1   2
ATOM      2  C   UNL     1       1.299   3.363  20.824  0.00  0.00    +0.000 C 
BRANCH   2   5
ATOM      3  O   UNL     1       3.279   5.295  20.432  0.00  0.00    +0.000 OA
ATOM      4  C   UNL     1       2.104   5.641  20.385  0.00  0.00    +0.000 C 
ATOM      5  N   UNL     1       1.049   4.768  20.557  0.00  0.00    +0.000 N 
ATOM      6  H   UNL     1       0.105   5.073  20.355  0.00  0.00    +0.000 HD
BRANCH   4   7
ATOM      7  C   UNL     1       1.770   7.061  20.086  0.00  0.00    +0.000 A 
ATOM      8  C   UNL     1       2.086   7.554  18.806  0.00  0.00    +0.000 A 
ATOM      9  C   UNL     1       1.819   8.884  18.496  0.00  0.00    +0.000 A 
ATOM     10  C   UNL     1       1.257   9.721  19.451  0.00  0.00    +0.000 A 
ATOM     11  C   UNL     1       0.957   9.237  20.718  0.00  0.00    +0.000 A 
ATOM     12  C   UNL     1       1.207   7.911  21.050  0.00  0.00    +0.000 A 
BRANCH   9  13
ATOM     13  O   UNL     1       2.102   9.415  17.269  0.00  0.00    +0.000 OA
ATOM     14  H   UNL     1       1.264   9.528  16.785  0.00  0.00    +0.000 HD
ENDBRANCH   9  13
BRANCH  10  15
ATOM     15  O   UNL     1       1.003  11.035  19.162  0.00  0.00    +0.000 OA
ATOM     16  H   UNL     1       1.475  11.532  19.863  0.00  0.00    +0.000 HD
ENDBRANCH  10  15
BRANCH  11  17
ATOM     17  O   UNL     1       0.425  10.074  21.657  0.00  0.00    +0.000 OA
ATOM     18  H   UNL     1      -0.359  10.469  21.219  0.00  0.00    +0.000 HD
ENDBRANCH  11  17
ENDBRANCH   4   7
ENDBRANCH   2   5
ENDBRANCH   1   2
BRANCH   1  19
ATOM     19  C   UNL     1       2.228   1.694  19.178  0.00  0.00    +0.000 C 
BRANCH  19  20
ATOM     20  N   UNL     1       3.301   2.584  18.772  0.00  0.00    +0.000 N 
ATOM     21  C   UNL     1       3.230   3.340  17.619  0.00  0.00    +0.000 C 
ATOM     22  O   UNL     1       2.288   3.294  16.836  0.00  0.00    +0.000 OA
ATOM     23  H   UNL     1       4.133   2.610  19.345  0.00  0.00    +0.000 HD
BRANCH  21  24
ATOM     24  C   UNL     1       4.388   4.232  17.325  0.00  0.00    +0.000 A 
ATOM     25  C   UNL     1       5.616   3.968  17.965  0.00  0.00    +0.000 A 
ATOM     26  C   UNL     1       6.724   4.761  17.680  0.00  0.00    +0.000 A 
ATOM     27  C   UNL     1       6.618   5.805  16.768  0.00  0.00    +0.000 A 
ATOM     28  C   UNL     1       5.409   6.061  16.137  0.00  0.00    +0.000 A 
ATOM     29  C   UNL     1       4.291   5.281  16.401  0.00  0.00    +0.000 A 
BRANCH  26  30
ATOM     30  O   UNL     1       7.941   4.551  18.265  0.00  0.00    +0.000 OA
ATOM     31  H   UNL     1       8.626   4.596  17.576  0.00  0.00    +0.000 HD
ENDBRANCH  26  30
BRANCH  27  32
ATOM     32  O   UNL     1       7.702   6.583  16.469  0.00  0.00    +0.000 OA
ATOM     33  H   UNL     1       7.839   6.450  15.508  0.00  0.00    +0.000 HD
ENDBRANCH  27  32
BRANCH  28  34
ATOM     34  O   UNL     1       5.310   7.077  15.231  0.00  0.00    +0.000 OA
ATOM     35  H   UNL     1       5.567   6.672  14.377  0.00  0.00    +0.000 HD
ENDBRANCH  28  34
ENDBRANCH  21  24
ENDBRANCH  19  20
ENDBRANCH   1  19
TORSDOF 12
ENDMDL
MODEL 8
REMARK VINA RESULT:      -7.3      1.140      5.591
REMARK  Name = 
REMARK  12 active torsions:
REMARK  status: ('A' for Active; 'I' for Inactive)
REMARK    1  A    between atoms: C_2  and  C_19
REMARK    2  A    between atoms: N_3  and  C_4
REMARK    3  A    between atoms: C_4  and  C_5
REMARK    4  A    between atoms: C_5  and  C_6
REMARK    5  A    between atoms: C_6  and  N_7
REMARK    6  A    between atoms: C_8  and  C_10
REMARK    7  A    between atoms: C_12  and  O_13
REMARK    8  A    between atoms: C_14  and  O_15
REMARK    9  A    between atoms: C_16  and  O_17
REMARK   10  A    between atoms: C_21  and  O_22
REMARK   11  A    between atoms: C_23  and  O_24
REMARK   12  A    between atoms: C_25  and  O_26
REMARK                            x       y       z     vdW  Elec       q    Type
REMARK                         _______ _______ _______ _____ _____    ______ ____
ROOT
ATOM      1  C   UNL     1       1.778   1.871  18.514  0.00  0.00    +0.000 C 
ENDROOT
BRANCH   1   2
ATOM      2  C   UNL     1       1.479   2.671  19.778  0.00  0.00    +0.000 C 
BRANCH   2   5
ATOM      3  O   UNL     1       2.485   4.689  21.429  0.00  0.00    +0.000 OA
ATOM      4  C   UNL     1       1.888   5.010  20.407  0.00  0.00    +0.000 C 
ATOM      5  N   UNL     1       1.359   4.095  19.519  0.00  0.00    +0.000 N 
ATOM      6  H   UNL     1       1.015   4.406  18.620  0.00  0.00    +0.000 HD
BRANCH   4   7
ATOM      7  C   UNL     1       1.751   6.451  20.061  0.00  0.00    +0.000 A 
ATOM      8  C   UNL     1       2.209   6.869  18.797  0.00  0.00    +0.000 A 
ATOM      9  C   UNL     1       2.128   8.212  18.446  0.00  0.00    +0.000 A 
ATOM     10  C   UNL     1       1.610   9.136  19.344  0.00  0.00    +0.000 A 
ATOM     11  C   UNL     1       1.170   8.726  20.596  0.00  0.00    +0.000 A 
ATOM     12  C   UNL     1       1.233   7.388  20.968  0.00  0.00    +0.000 A 
BRANCH   9  13
ATOM     13  O   UNL     1       2.554   8.674  17.232  0.00  0.00    +0.000 OA
ATOM     14  H   UNL     1       3.321   8.141  16.955  0.00  0.00    +0.000 HD
ENDBRANCH   9  13
BRANCH  10  15
ATOM     15  O   UNL     1       1.539  10.463  19.015  0.00  0.00    +0.000 OA
ATOM     16  H   UNL     1       0.586  10.618  18.841  0.00  0.00    +0.000 HD
ENDBRANCH  10  15
BRANCH  11  17
ATOM     17  O   UNL     1       0.683   9.645  21.481  0.00  0.00    +0.000 OA
ATOM     18  H   UNL     1      -0.228   9.829  21.168  0.00  0.00    +0.000 HD
ENDBRANCH  11  17
ENDBRANCH   4   7
ENDBRANCH   2   5
ENDBRANCH   1   2
BRANCH   1  19
ATOM     19  C   UNL     1       3.270   1.563  18.392  0.00  0.00    +0.000 C 
BRANCH  19  20
ATOM     20  N   UNL     1       4.024   2.741  18.002  0.00  0.00    +0.000 N 
ATOM     21  C   UNL     1       4.887   3.381  18.868  0.00  0.00    +0.000 C 
ATOM     22  O   UNL     1       5.059   3.035  20.031  0.00  0.00    +0.000 OA
ATOM     23  H   UNL     1       3.870   3.112  17.074  0.00  0.00    +0.000 HD
BRANCH  21  24
ATOM     24  C   UNL     1       5.619   4.567  18.338  0.00  0.00    +0.000 A 
ATOM     25  C   UNL     1       5.149   5.168  17.153  0.00  0.00    +0.000 A 
ATOM     26  C   UNL     1       5.790   6.300  16.657  0.00  0.00    +0.000 A 
ATOM     27  C   UNL     1       6.885   6.833  17.328  0.00  0.00    +0.000 A 
ATOM     28  C   UNL     1       7.344   6.240  18.496  0.00  0.00    +0.000 A 
ATOM     29  C   UNL     1       6.719   5.113  19.013  0.00  0.00    +0.000 A 
BRANCH  26  30
ATOM     30  O   UNL     1       5.378   6.931  15.516  0.00  0.00    +0.000 OA
ATOM     31  H   UNL     1       5.302   6.269  14.807  0.00  0.00    +0.000 HD
ENDBRANCH  26  30
BRANCH  27  32
ATOM     32  O   UNL     1       7.515   7.953  16.859  0.00  0.00    +0.000 OA
ATOM     33  H   UNL     1       8.459   7.699  16.810  0.00  0.00    +0.000 HD
ENDBRANCH  27  32
BRANCH  28  34
ATOM     34  O   UNL     1       8.410   6.772  19.161  0.00  0.00    +0.000 OA
ATOM     35  H   UNL     1       8.970   7.162  18.458  0.00  0.00    +0.000 HD
ENDBRANCH  28  34
ENDBRANCH  21  24
ENDBRANCH  19  20
ENDBRANCH   1  19
TORSDOF 12
ENDMDL
MODEL 9
REMARK VINA RESULT:      -7.3      1.108      2.165
REMARK  Name = 
REMARK  12 active torsions:
REMARK  status: ('A' for Active; 'I' for Inactive)
REMARK    1  A    between atoms: C_2  and  C_19
REMARK    2  A    between atoms: N_3  and  C_4
REMARK    3  A    between atoms: C_4  and  C_5
REMARK    4  A    between atoms: C_5  and  C_6
REMARK    5  A    between atoms: C_6  and  N_7
REMARK    6  A    between atoms: C_8  and  C_10
REMARK    7  A    between atoms: C_12  and  O_13
REMARK    8  A    between atoms: C_14  and  O_15
REMARK    9  A    between atoms: C_16  and  O_17
REMARK   10  A    between atoms: C_21  and  O_22
REMARK   11  A    between atoms: C_23  and  O_24
REMARK   12  A    between atoms: C_25  and  O_26
REMARK                            x       y       z     vdW  Elec       q    Type
REMARK                         _______ _______ _______ _____ _____    ______ ____
ROOT
ATOM      1  C   UNL     1       1.899   1.803  18.329  0.00  0.00    +0.000 C 
ENDROOT
BRANCH   1   2
ATOM      2  C   UNL     1       3.413   1.622  18.364  0.00  0.00    +0.000 C 
BRANCH   2   5
ATOM      3  O   UNL     1       5.126   3.077  20.025  0.00  0.00    +0.000 OA
ATOM      4  C   UNL     1       4.945   3.471  18.878  0.00  0.00    +0.000 C 
ATOM      5  N   UNL     1       4.127   2.825  17.974  0.00  0.00    +0.000 N 
ATOM      6  H   UNL     1       4.134   3.102  17.001  0.00  0.00    +0.000 HD
BRANCH   4   7
ATOM      7  C   UNL     1       5.666   4.682  18.398  0.00  0.00    +0.000 A 
ATOM      8  C   UNL     1       5.250   5.255  17.182  0.00  0.00    +0.000 A 
ATOM      9  C   UNL     1       5.917   6.368  16.681  0.00  0.00    +0.000 A 
ATOM     10  C   UNL     1       6.996   6.901  17.373  0.00  0.00    +0.000 A 
ATOM     11  C   UNL     1       7.416   6.327  18.567  0.00  0.00    +0.000 A 
ATOM     12  C   UNL     1       6.761   5.219  19.092  0.00  0.00    +0.000 A 
BRANCH   9  13
ATOM     13  O   UNL     1       5.554   6.967  15.508  0.00  0.00    +0.000 OA
ATOM     14  H   UNL     1       4.629   7.261  15.589  0.00  0.00    +0.000 HD
ENDBRANCH   9  13
BRANCH  10  15
ATOM     15  O   UNL     1       7.670   7.987  16.884  0.00  0.00    +0.000 OA
ATOM     16  H   UNL     1       7.616   7.887  15.910  0.00  0.00    +0.000 HD
ENDBRANCH  10  15
BRANCH  11  17
ATOM     17  O   UNL     1       8.492   6.845  19.229  0.00  0.00    +0.000 OA
ATOM     18  H   UNL     1       8.662   7.705  18.789  0.00  0.00    +0.000 HD
ENDBRANCH  11  17
ENDBRANCH   4   7
ENDBRANCH   2   5
ENDBRANCH   1   2
BRANCH   1  19
ATOM     19  C   UNL     1       1.397   2.519  19.583  0.00  0.00    +0.000 C 
BRANCH  19  20
ATOM     20  N   UNL     1       1.333   3.956  19.383  0.00  0.00    +0.000 N 
ATOM     21  C   UNL     1       1.882   4.847  20.282  0.00  0.00    +0.000 C 
ATOM     22  O   UNL     1       2.427   4.507  21.326  0.00  0.00    +0.000 OA
ATOM     23  H   UNL     1       0.834   4.296  18.572  0.00  0.00    +0.000 HD
BRANCH  21  24
ATOM     24  C   UNL     1       1.769   6.297  19.949  0.00  0.00    +0.000 A 
ATOM     25  C   UNL     1       1.246   7.169  20.925  0.00  0.00    +0.000 A 
ATOM     26  C   UNL     1       1.165   8.532  20.655  0.00  0.00    +0.000 A 
ATOM     27  C   UNL     1       1.600   9.028  19.431  0.00  0.00    +0.000 A 
ATOM     28  C   UNL     1       2.118   8.167  18.473  0.00  0.00    +0.000 A 
ATOM     29  C   UNL     1       2.212   6.804  18.720  0.00  0.00    +0.000 A 
BRANCH  26  30
ATOM     30  O   UNL     1       0.672   9.427  21.562  0.00  0.00    +0.000 OA
ATOM     31  H   UNL     1      -0.041   9.936  21.139  0.00  0.00    +0.000 HD
ENDBRANCH  26  30
BRANCH  27  32
ATOM     32  O   UNL     1       1.539  10.367  19.159  0.00  0.00    +0.000 OA
ATOM     33  H   UNL     1       0.785  10.456  18.540  0.00  0.00    +0.000 HD
ENDBRANCH  27  32
BRANCH  28  34
ATOM     34  O   UNL     1       2.557   8.657  17.278  0.00  0.00    +0.000 OA
ATOM     35  H   UNL     1       1.813   8.503  16.659  0.00  0.00    +0.000 HD
ENDBRANCH  28  34
ENDBRANCH  21  24
ENDBRANCH  19  20
ENDBRANCH   1  19
TORSDOF 12
ENDMDL
