MODEL 1
REMARK VINA RESULT:      -8.6      0.000      0.000
REMARK  Name = 
REMARK  12 active torsions:
REMARK  status: ('A' for Active; 'I' for Inactive)
REMARK    1  A    between atoms: C_1  and  C_2
REMARK    2  A    between atoms: C_2  and  C_3
REMARK    3  A    between atoms: C_2  and  N_30
REMARK    4  A    between atoms: C_3  and  C_4
REMARK    5  A    between atoms: C_3  and  N_25
REMARK    6  A    between atoms: C_9  and  O_10
REMARK    7  A    between atoms: O_10  and  C_11
REMARK    8  A    between atoms: C_11  and  C_12
REMARK    9  A    between atoms: C_15  and  C_16
REMARK   10  A    between atoms: C_16  and  O_18
REMARK   11  A    between atoms: N_30  and  C_31
REMARK   12  A    between atoms: N_30  and  C_32
REMARK                            x       y       z     vdW  Elec       q    Type
REMARK                         _______ _______ _______ _____ _____    ______ ____
ROOT
ATOM      1  C   UNL     1       3.161   5.999  18.722  0.00  0.00    +0.000 A 
ATOM      2  C   UNL     1       3.179   6.889  17.640  0.00  0.00    +0.000 A 
ATOM      3  C   UNL     1       2.568   8.133  17.733  0.00  0.00    +0.000 A 
ATOM      4  C   UNL     1       1.928   8.519  18.911  0.00  0.00    +0.000 A 
ATOM      5  C   UNL     1       1.316   9.772  18.987  0.00  0.00    +0.000 A 
ATOM      6  C   UNL     1       0.618  10.158  20.129  0.00  0.00    +0.000 A 
ATOM      7  C   UNL     1       0.601   9.319  21.240  0.00  0.00    +0.000 A 
ATOM      8  C   UNL     1       1.226   8.068  21.187  0.00  0.00    +0.000 A 
ATOM      9  C   UNL     1       1.888   7.646  20.020  0.00  0.00    +0.000 A 
ATOM     10  C   UNL     1       2.504   6.387  19.906  0.00  0.00    +0.000 A 
ENDROOT
BRANCH   1  11
ATOM     11  C   UNL     1       3.820   4.626  18.607  0.00  0.00    +0.000 C 
BRANCH  11  12
ATOM     12  N   UNL     1       5.268   4.825  18.430  0.00  0.00    +0.000 N 
ATOM     13  C   UNL     1       6.157   5.424  19.285  0.00  0.00    +0.000 A 
ATOM     14  C   UNL     1       7.375   5.349  18.653  0.00  0.00    +0.000 A 
ATOM     15  N   UNL     1       7.252   4.740  17.434  0.00  0.00    +0.000 NA
ATOM     16  C   UNL     1       5.975   4.454  17.316  0.00  0.00    +0.000 A 
ENDBRANCH  11  12
BRANCH  11  18
ATOM     17  C   UNL     1       4.367   2.408  19.789  0.00  0.00    +0.000 C 
ATOM     18  C   UNL     1       3.434   3.637  19.781  0.00  0.00    +0.000 C 
BRANCH  18  19
ATOM     19  N   UNL     1       1.990   3.255  19.812  0.00  0.00    +0.000 NA
ATOM     20  C   UNL     1       1.613   2.199  18.876  0.00  0.00    +0.000 C 
ATOM     21  C   UNL     1       1.516   2.934  21.160  0.00  0.00    +0.000 C 
ENDBRANCH  18  19
ENDBRANCH  11  18
ENDBRANCH   1  11
BRANCH   6  22
ATOM     22  O   UNL     1      -0.077  11.334  20.240  0.00  0.00    +0.000 OA
BRANCH  22  23
ATOM     23  C   UNL     1      -0.449  11.917  18.987  0.00  0.00    +0.000 C 
BRANCH  23  24
ATOM     24  C   UNL     1      -1.918  11.698  18.748  0.00  0.00    +0.000 A 
ATOM     25  C   UNL     1      -2.874  12.323  19.562  0.00  0.00    +0.000 A 
ATOM     26  C   UNL     1      -4.231  12.156  19.299  0.00  0.00    +0.000 A 
ATOM     27  C   UNL     1      -4.650  11.368  18.220  0.00  0.00    +0.000 A 
ATOM     28  C   UNL     1      -3.699  10.767  17.386  0.00  0.00    +0.000 A 
ATOM     29  C   UNL     1      -2.340  10.928  17.656  0.00  0.00    +0.000 A 
BRANCH  27  30
ATOM     30  C   UNL     1      -6.106  11.241  17.973  0.00  0.00    +0.000 C 
ATOM     31  O   UNL     1      -6.840  10.547  18.654  0.00  0.00    +0.000 OA
BRANCH  30  32
ATOM     32  O   UNL     1      -6.539  11.930  16.892  0.00  0.00    +0.000 OA
ATOM     33  H   UNL     1      -7.166  11.449  16.323  0.00  0.00    +0.000 HD
ENDBRANCH  30  32
ENDBRANCH  27  30
ENDBRANCH  23  24
ENDBRANCH  22  23
ENDBRANCH   6  22
TORSDOF 9
ENDMDL
MODEL 2
REMARK VINA RESULT:      -8.5      0.902      3.021
REMARK  Name = 
REMARK  12 active torsions:
REMARK  status: ('A' for Active; 'I' for Inactive)
REMARK    1  A    between atoms: C_1  and  C_2
REMARK    2  A    between atoms: C_2  and  C_3
REMARK    3  A    between atoms: C_2  and  N_30
REMARK    4  A    between atoms: C_3  and  C_4
REMARK    5  A    between atoms: C_3  and  N_25
REMARK    6  A    between atoms: C_9  and  O_10
REMARK    7  A    between atoms: O_10  and  C_11
REMARK    8  A    between atoms: C_11  and  C_12
REMARK    9  A    between atoms: C_15  and  C_16
REMARK   10  A    between atoms: C_16  and  O_18
REMARK   11  A    between atoms: N_30  and  C_31
REMARK   12  A    between atoms: N_30  and  C_32
REMARK                            x       y       z     vdW  Elec       q    Type
REMARK                         _______ _______ _______ _____ _____    ______ ____
ROOT
ATOM      1  C   UNL     1       2.948   6.440  18.886  0.00  0.00    +0.000 A 
ATOM      2  C   UNL     1       2.868   7.358  17.830  0.00  0.00    +0.000 A 
ATOM      3  C   UNL     1       2.161   8.545  17.972  0.00  0.00    +0.000 A 
ATOM      4  C   UNL     1       1.521   8.847  19.174  0.00  0.00    +0.000 A 
ATOM      5  C   UNL     1       0.812  10.044  19.299  0.00  0.00    +0.000 A 
ATOM      6  C   UNL     1       0.114  10.341  20.467  0.00  0.00    +0.000 A 
ATOM      7  C   UNL     1       0.191   9.474  21.554  0.00  0.00    +0.000 A 
ATOM      8  C   UNL     1       0.913   8.280  21.452  0.00  0.00    +0.000 A 
ATOM      9  C   UNL     1       1.578   7.944  20.259  0.00  0.00    +0.000 A 
ATOM     10  C   UNL     1       2.290   6.742  20.095  0.00  0.00    +0.000 A 
ENDROOT
BRANCH   1  11
ATOM     11  C   UNL     1       3.712   5.129  18.718  0.00  0.00    +0.000 C 
BRANCH  11  12
ATOM     12  N   UNL     1       2.751   4.020  18.828  0.00  0.00    +0.000 N 
ATOM     13  C   UNL     1       1.632   3.783  18.071  0.00  0.00    +0.000 A 
ATOM     14  C   UNL     1       1.091   2.626  18.575  0.00  0.00    +0.000 A 
ATOM     15  N   UNL     1       1.834   2.161  19.627  0.00  0.00    +0.000 NA
ATOM     16  C   UNL     1       2.812   3.026  19.770  0.00  0.00    +0.000 A 
ENDBRANCH  11  12
BRANCH  11  18
ATOM     17  C   UNL     1       4.647   3.662  16.823  0.00  0.00    +0.000 C 
ATOM     18  C   UNL     1       4.617   5.085  17.420  0.00  0.00    +0.000 C 
BRANCH  18  19
ATOM     19  N   UNL     1       5.987   5.652  17.607  0.00  0.00    +0.000 NA
ATOM     20  C   UNL     1       6.540   5.494  18.949  0.00  0.00    +0.000 C 
ATOM     21  C   UNL     1       6.940   5.175  16.602  0.00  0.00    +0.000 C 
ENDBRANCH  18  19
ENDBRANCH  11  18
ENDBRANCH   1  11
BRANCH   6  22
ATOM     22  O   UNL     1      -0.671  11.453  20.628  0.00  0.00    +0.000 OA
BRANCH  22  23
ATOM     23  C   UNL     1      -1.024  12.104  19.403  0.00  0.00    +0.000 C 
BRANCH  23  24
ATOM     24  C   UNL     1      -2.485  11.880  19.119  0.00  0.00    +0.000 A 
ATOM     25  C   UNL     1      -3.467  12.549  19.864  0.00  0.00    +0.000 A 
ATOM     26  C   UNL     1      -4.814  12.375  19.559  0.00  0.00    +0.000 A 
ATOM     27  C   UNL     1      -5.197  11.537  18.505  0.00  0.00    +0.000 A 
ATOM     28  C   UNL     1      -4.219  10.891  17.738  0.00  0.00    +0.000 A 
ATOM     29  C   UNL     1      -2.870  11.059  18.051  0.00  0.00    +0.000 A 
BRANCH  27  30
ATOM     30  C   UNL     1      -6.643  11.404  18.209  0.00  0.00    +0.000 C 
ATOM     31  O   UNL     1      -7.306  12.295  17.707  0.00  0.00    +0.000 OA
BRANCH  30  32
ATOM     32  O   UNL     1      -7.173  10.219  18.590  0.00  0.00    +0.000 OA
ATOM     33  H   UNL     1      -8.143  10.207  18.662  0.00  0.00    +0.000 HD
ENDBRANCH  30  32
ENDBRANCH  27  30
ENDBRANCH  23  24
ENDBRANCH  22  23
ENDBRANCH   6  22
TORSDOF 9
ENDMDL
MODEL 3
REMARK VINA RESULT:      -8.5      2.482      2.917
REMARK  Name = 
REMARK  12 active torsions:
REMARK  status: ('A' for Active; 'I' for Inactive)
REMARK    1  A    between atoms: C_1  and  C_2
REMARK    2  A    between atoms: C_2  and  C_3
REMARK    3  A    between atoms: C_2  and  N_30
REMARK    4  A    between atoms: C_3  and  C_4
REMARK    5  A    between atoms: C_3  and  N_25
REMARK    6  A    between atoms: C_9  and  O_10
REMARK    7  A    between atoms: O_10  and  C_11
REMARK    8  A    between atoms: C_11  and  C_12
REMARK    9  A    between atoms: C_15  and  C_16
REMARK   10  A    between atoms: C_16  and  O_18
REMARK   11  A    between atoms: N_30  and  C_31
REMARK   12  A    between atoms: N_30  and  C_32
REMARK                            x       y       z     vdW  Elec       q    Type
REMARK                         _______ _______ _______ _____ _____    ______ ____
ROOT
ATOM      1  C   UNL     1       3.239   5.922  18.647  0.00  0.00    +0.000 A 
ATOM      2  C   UNL     1       3.288   6.765  17.529  0.00  0.00    +0.000 A 
ATOM      3  C   UNL     1       2.680   8.014  17.553  0.00  0.00    +0.000 A 
ATOM      4  C   UNL     1       2.013   8.453  18.697  0.00  0.00    +0.000 A 
ATOM      5  C   UNL     1       1.405   9.710  18.704  0.00  0.00    +0.000 A 
ATOM      6  C   UNL     1       0.681  10.146  19.811  0.00  0.00    +0.000 A 
ATOM      7  C   UNL     1       0.631   9.356  20.956  0.00  0.00    +0.000 A 
ATOM      8  C   UNL     1       1.252   8.102  20.972  0.00  0.00    +0.000 A 
ATOM      9  C   UNL     1       1.941   7.628  19.841  0.00  0.00    +0.000 A 
ATOM     10  C   UNL     1       2.554   6.363  19.796  0.00  0.00    +0.000 A 
ENDROOT
BRANCH   1  11
ATOM     11  C   UNL     1       3.895   4.543  18.608  0.00  0.00    +0.000 C 
BRANCH  11  12
ATOM     12  N   UNL     1       5.347   4.730  18.463  0.00  0.00    +0.000 N 
ATOM     13  C   UNL     1       6.153   4.363  17.416  0.00  0.00    +0.000 A 
ATOM     14  C   UNL     1       7.418   4.764  17.774  0.00  0.00    +0.000 A 
ATOM     15  N   UNL     1       7.410   5.346  19.013  0.00  0.00    +0.000 NA
ATOM     16  C   UNL     1       6.159   5.294  19.412  0.00  0.00    +0.000 A 
ENDBRANCH  11  12
BRANCH  11  18
ATOM     17  C   UNL     1       4.377   2.358  19.876  0.00  0.00    +0.000 C 
ATOM     18  C   UNL     1       3.471   3.605  19.810  0.00  0.00    +0.000 C 
BRANCH  18  19
ATOM     19  N   UNL     1       2.018   3.253  19.831  0.00  0.00    +0.000 NA
ATOM     20  C   UNL     1       1.628   2.195  18.904  0.00  0.00    +0.000 C 
ATOM     21  C   UNL     1       1.525   2.959  21.179  0.00  0.00    +0.000 C 
ENDBRANCH  18  19
ENDBRANCH  11  18
ENDBRANCH   1  11
BRANCH   6  22
ATOM     22  O   UNL     1      -0.012  11.328  19.854  0.00  0.00    +0.000 OA
BRANCH  22  23
ATOM     23  C   UNL     1       0.162  12.066  21.068  0.00  0.00    +0.000 C 
BRANCH  23  24
ATOM     24  C   UNL     1      -1.169  12.233  21.750  0.00  0.00    +0.000 A 
ATOM     25  C   UNL     1      -1.417  11.625  22.988  0.00  0.00    +0.000 A 
ATOM     26  C   UNL     1      -2.633  11.828  23.635  0.00  0.00    +0.000 A 
ATOM     27  C   UNL     1      -3.613  12.643  23.057  0.00  0.00    +0.000 A 
ATOM     28  C   UNL     1      -3.359  13.278  21.834  0.00  0.00    +0.000 A 
ATOM     29  C   UNL     1      -2.143  13.065  21.183  0.00  0.00    +0.000 A 
BRANCH  27  30
ATOM     30  C   UNL     1      -4.881  12.843  23.798  0.00  0.00    +0.000 C 
ATOM     31  O   UNL     1      -5.612  13.802  23.622  0.00  0.00    +0.000 OA
BRANCH  30  32
ATOM     32  O   UNL     1      -5.131  11.887  24.721  0.00  0.00    +0.000 OA
ATOM     33  H   UNL     1      -6.064  11.810  24.990  0.00  0.00    +0.000 HD
ENDBRANCH  30  32
ENDBRANCH  27  30
ENDBRANCH  23  24
ENDBRANCH  22  23
ENDBRANCH   6  22
TORSDOF 9
ENDMDL
MODEL 4
REMARK VINA RESULT:      -8.4      2.333      3.873
REMARK  Name = 
REMARK  12 active torsions:
REMARK  status: ('A' for Active; 'I' for Inactive)
REMARK    1  A    between atoms: C_1  and  C_2
REMARK    2  A    between atoms: C_2  and  C_3
REMARK    3  A    between atoms: C_2  and  N_30
REMARK    4  A    between atoms: C_3  and  C_4
REMARK    5  A    between atoms: C_3  and  N_25
REMARK    6  A    between atoms: C_9  and  O_10
REMARK    7  A    between atoms: O_10  and  C_11
REMARK    8  A    between atoms: C_11  and  C_12
REMARK    9  A    between atoms: C_15  and  C_16
REMARK   10  A    between atoms: C_16  and  O_18
REMARK   11  A    between atoms: N_30  and  C_31
REMARK   12  A    between atoms: N_30  and  C_32
REMARK                            x       y       z     vdW  Elec       q    Type
REMARK                         _______ _______ _______ _____ _____    ______ ____
ROOT
ATOM      1  C   UNL     1       3.316   6.224  18.865  0.00  0.00    +0.000 A 
ATOM      2  C   UNL     1       3.340   7.072  17.750  0.00  0.00    +0.000 A 
ATOM      3  C   UNL     1       2.605   8.251  17.739  0.00  0.00    +0.000 A 
ATOM      4  C   UNL     1       1.833   8.614  18.843  0.00  0.00    +0.000 A 
ATOM      5  C   UNL     1       1.099   9.801  18.813  0.00  0.00    +0.000 A 
ATOM      6  C   UNL     1       0.272  10.155  19.877  0.00  0.00    +0.000 A 
ATOM      7  C   UNL     1       0.241   9.359  21.019  0.00  0.00    +0.000 A 
ATOM      8  C   UNL     1       0.987   8.176  21.072  0.00  0.00    +0.000 A 
ATOM      9  C   UNL     1       1.783   7.781  19.982  0.00  0.00    +0.000 A 
ATOM     10  C   UNL     1       2.525   6.586  19.973  0.00  0.00    +0.000 A 
ENDROOT
BRANCH   1  11
ATOM     11  C   UNL     1       4.112   4.921  18.864  0.00  0.00    +0.000 C 
BRANCH  11  12
ATOM     12  N   UNL     1       3.162   3.803  18.745  0.00  0.00    +0.000 N 
ATOM     13  C   UNL     1       3.256   2.544  19.281  0.00  0.00    +0.000 A 
ATOM     14  C   UNL     1       2.116   1.891  18.878  0.00  0.00    +0.000 A 
ATOM     15  N   UNL     1       1.340   2.707  18.098  0.00  0.00    +0.000 NA
ATOM     16  C   UNL     1       2.000   3.840  18.018  0.00  0.00    +0.000 A 
ENDBRANCH  11  12
BRANCH  11  18
ATOM     17  C   UNL     1       4.950   3.949  16.636  0.00  0.00    +0.000 C 
ATOM     18  C   UNL     1       5.288   4.897  17.806  0.00  0.00    +0.000 C 
BRANCH  18  19
ATOM     19  N   UNL     1       6.635   4.621  18.390  0.00  0.00    +0.000 NA
ATOM     20  C   UNL     1       7.713   4.487  17.415  0.00  0.00    +0.000 C 
ATOM     21  C   UNL     1       7.008   5.578  19.435  0.00  0.00    +0.000 C 
ENDBRANCH  18  19
ENDBRANCH  11  18
ENDBRANCH   1  11
BRANCH   6  22
ATOM     22  O   UNL     1      -0.540  11.259  19.880  0.00  0.00    +0.000 OA
BRANCH  22  23
ATOM     23  C   UNL     1      -0.403  12.086  21.040  0.00  0.00    +0.000 C 
BRANCH  23  24
ATOM     24  C   UNL     1      -1.752  12.286  21.678  0.00  0.00    +0.000 A 
ATOM     25  C   UNL     1      -1.941  12.028  23.042  0.00  0.00    +0.000 A 
ATOM     26  C   UNL     1      -3.179  12.266  23.633  0.00  0.00    +0.000 A 
ATOM     27  C   UNL     1      -4.240  12.767  22.871  0.00  0.00    +0.000 A 
ATOM     28  C   UNL     1      -4.048  13.055  21.514  0.00  0.00    +0.000 A 
ATOM     29  C   UNL     1      -2.809  12.808  20.922  0.00  0.00    +0.000 A 
BRANCH  27  30
ATOM     30  C   UNL     1      -5.531  13.022  23.554  0.00  0.00    +0.000 C 
ATOM     31  O   UNL     1      -6.533  12.360  23.354  0.00  0.00    +0.000 OA
BRANCH  30  32
ATOM     32  O   UNL     1      -5.507  14.089  24.386  0.00  0.00    +0.000 OA
ATOM     33  H   UNL     1      -6.004  13.973  25.215  0.00  0.00    +0.000 HD
ENDBRANCH  30  32
ENDBRANCH  27  30
ENDBRANCH  23  24
ENDBRANCH  22  23
ENDBRANCH   6  22
TORSDOF 9
ENDMDL
MODEL 5
REMARK VINA RESULT:      -8.4      0.884      3.047
REMARK  Name = 
REMARK  12 active torsions:
REMARK  status: ('A' for Active; 'I' for Inactive)
REMARK    1  A    between atoms: C_1  and  C_2
REMARK    2  A    between atoms: C_2  and  C_3
REMARK    3  A    between atoms: C_2  and  N_30
REMARK    4  A    between atoms: C_3  and  C_4
REMARK    5  A    between atoms: C_3  and  N_25
REMARK    6  A    between atoms: C_9  and  O_10
REMARK    7  A    between atoms: O_10  and  C_11
REMARK    8  A    between atoms: C_11  and  C_12
REMARK    9  A    between atoms: C_15  and  C_16
REMARK   10  A    between atoms: C_16  and  O_18
REMARK   11  A    between atoms: N_30  and  C_31
REMARK   12  A    between atoms: N_30  and  C_32
REMARK                            x       y       z     vdW  Elec       q    Type
REMARK                         _______ _______ _______ _____ _____    ______ ____
ROOT
ATOM      1  C   UNL     1       3.050   6.427  18.926  0.00  0.00    +0.000 A 
ATOM      2  C   UNL     1       3.075   7.259  17.799  0.00  0.00    +0.000 A 
ATOM      3  C   UNL     1       2.396   8.471  17.795  0.00  0.00    +0.000 A 
ATOM      4  C   UNL     1       1.680   8.883  18.919  0.00  0.00    +0.000 A 
ATOM      5  C   UNL     1       1.001  10.103  18.898  0.00  0.00    +0.000 A 
ATOM      6  C   UNL     1       0.230  10.510  19.984  0.00  0.00    +0.000 A 
ATOM      7  C   UNL     1       0.201   9.731  21.137  0.00  0.00    +0.000 A 
ATOM      8  C   UNL     1       0.892   8.515  21.182  0.00  0.00    +0.000 A 
ATOM      9  C   UNL     1       1.631   8.069  20.072  0.00  0.00    +0.000 A 
ATOM     10  C   UNL     1       2.316   6.840  20.055  0.00  0.00    +0.000 A 
ENDROOT
BRANCH   1  11
ATOM     11  C   UNL     1       3.784   5.088  18.918  0.00  0.00    +0.000 C 
BRANCH  11  12
ATOM     12  N   UNL     1       2.786   4.016  19.058  0.00  0.00    +0.000 N 
ATOM     13  C   UNL     1       1.573   3.894  18.431  0.00  0.00    +0.000 A 
ATOM     14  C   UNL     1       1.035   2.722  18.904  0.00  0.00    +0.000 A 
ATOM     15  N   UNL     1       1.874   2.136  19.813  0.00  0.00    +0.000 NA
ATOM     16  C   UNL     1       2.907   2.943  19.902  0.00  0.00    +0.000 A 
ENDBRANCH  11  12
BRANCH  11  18
ATOM     17  C   UNL     1       4.224   3.855  16.704  0.00  0.00    +0.000 C 
ATOM     18  C   UNL     1       4.766   4.912  17.689  0.00  0.00    +0.000 C 
BRANCH  18  19
ATOM     19  N   UNL     1       6.188   4.655  18.071  0.00  0.00    +0.000 NA
ATOM     20  C   UNL     1       7.169   4.969  17.036  0.00  0.00    +0.000 C 
ATOM     21  C   UNL     1       6.560   5.292  19.336  0.00  0.00    +0.000 C 
ENDBRANCH  18  19
ENDBRANCH  11  18
ENDBRANCH   1  11
BRANCH   6  22
ATOM     22  O   UNL     1      -0.530  11.651  19.998  0.00  0.00    +0.000 OA
BRANCH  22  23
ATOM     23  C   UNL     1      -0.961  12.085  18.705  0.00  0.00    +0.000 C 
BRANCH  23  24
ATOM     24  C   UNL     1      -2.458  11.954  18.604  0.00  0.00    +0.000 A 
ATOM     25  C   UNL     1      -3.048  11.362  17.479  0.00  0.00    +0.000 A 
ATOM     26  C   UNL     1      -4.429  11.198  17.419  0.00  0.00    +0.000 A 
ATOM     27  C   UNL     1      -5.236  11.620  18.482  0.00  0.00    +0.000 A 
ATOM     28  C   UNL     1      -4.649  12.184  19.622  0.00  0.00    +0.000 A 
ATOM     29  C   UNL     1      -3.266  12.355  19.676  0.00  0.00    +0.000 A 
BRANCH  27  30
ATOM     30  C   UNL     1      -6.699  11.403  18.376  0.00  0.00    +0.000 C 
ATOM     31  O   UNL     1      -7.463  12.227  17.906  0.00  0.00    +0.000 OA
BRANCH  30  32
ATOM     32  O   UNL     1      -7.116  10.224  18.893  0.00  0.00    +0.000 OA
ATOM     33  H   UNL     1      -6.677   9.962  19.722  0.00  0.00    +0.000 HD
ENDBRANCH  30  32
ENDBRANCH  27  30
ENDBRANCH  23  24
ENDBRANCH  22  23
ENDBRANCH   6  22
TORSDOF 9
ENDMDL
MODEL 6
REMARK VINA RESULT:      -8.3      2.453      4.076
REMARK  Name = 
REMARK  12 active torsions:
REMARK  status: ('A' for Active; 'I' for Inactive)
REMARK    1  A    between atoms: C_1  and  C_2
REMARK    2  A    between atoms: C_2  and  C_3
REMARK    3  A    between atoms: C_2  and  N_30
REMARK    4  A    between atoms: C_3  and  C_4
REMARK    5  A    between atoms: C_3  and  N_25
REMARK    6  A    between atoms: C_9  and  O_10
REMARK    7  A    between atoms: O_10  and  C_11
REMARK    8  A    between atoms: C_11  and  C_12
REMARK    9  A    between atoms: C_15  and  C_16
REMARK   10  A    between atoms: C_16  and  O_18
REMARK   11  A    between atoms: N_30  and  C_31
REMARK   12  A    between atoms: N_30  and  C_32
REMARK                            x       y       z     vdW  Elec       q    Type
REMARK                         _______ _______ _______ _____ _____    ______ ____
ROOT
ATOM      1  C   UNL     1       2.932   6.568  18.888  0.00  0.00    +0.000 A 
ATOM      2  C   UNL     1       2.888   7.441  17.793  0.00  0.00    +0.000 A 
ATOM      3  C   UNL     1       2.159   8.622  17.855  0.00  0.00    +0.000 A 
ATOM      4  C   UNL     1       1.460   8.962  19.014  0.00  0.00    +0.000 A 
ATOM      5  C   UNL     1       0.730  10.151  19.058  0.00  0.00    +0.000 A 
ATOM      6  C   UNL     1      -0.025  10.483  20.180  0.00  0.00    +0.000 A 
ATOM      7  C   UNL     1       0.013   9.662  21.303  0.00  0.00    +0.000 A 
ATOM      8  C   UNL     1       0.756   8.476  21.282  0.00  0.00    +0.000 A 
ATOM      9  C   UNL     1       1.480   8.103  20.135  0.00  0.00    +0.000 A 
ATOM     10  C   UNL     1       2.215   6.907  20.052  0.00  0.00    +0.000 A 
ENDROOT
BRANCH   1  11
ATOM     11  C   UNL     1       3.721   5.263  18.808  0.00  0.00    +0.000 C 
BRANCH  11  12
ATOM     12  N   UNL     1       2.769   4.144  18.896  0.00  0.00    +0.000 N 
ATOM     13  C   UNL     1       1.640   3.925  18.148  0.00  0.00    +0.000 A 
ATOM     14  C   UNL     1       1.113   2.748  18.622  0.00  0.00    +0.000 A 
ATOM     15  N   UNL     1       1.875   2.254  19.647  0.00  0.00    +0.000 NA
ATOM     16  C   UNL     1       2.850   3.121  19.803  0.00  0.00    +0.000 A 
ENDBRANCH  11  12
BRANCH  11  18
ATOM     17  C   UNL     1       4.609   3.815  16.876  0.00  0.00    +0.000 C 
ATOM     18  C   UNL     1       4.702   5.192  17.568  0.00  0.00    +0.000 C 
BRANCH  18  19
ATOM     19  N   UNL     1       6.113   5.576  17.878  0.00  0.00    +0.000 NA
ATOM     20  C   UNL     1       6.490   5.448  19.283  0.00  0.00    +0.000 C 
ATOM     21  C   UNL     1       7.088   4.895  17.024  0.00  0.00    +0.000 C 
ENDBRANCH  18  19
ENDBRANCH  11  18
ENDBRANCH   1  11
BRANCH   6  22
ATOM     22  O   UNL     1      -0.831  11.589  20.260  0.00  0.00    +0.000 OA
BRANCH  22  23
ATOM     23  C   UNL     1      -0.706  12.320  21.483  0.00  0.00    +0.000 C 
BRANCH  23  24
ATOM     24  C   UNL     1      -2.069  12.529  22.086  0.00  0.00    +0.000 A 
ATOM     25  C   UNL     1      -3.132  12.998  21.301  0.00  0.00    +0.000 A 
ATOM     26  C   UNL     1      -4.401  13.138  21.855  0.00  0.00    +0.000 A 
ATOM     27  C   UNL     1      -4.626  12.808  23.196  0.00  0.00    +0.000 A 
ATOM     28  C   UNL     1      -3.575  12.310  23.977  0.00  0.00    +0.000 A 
ATOM     29  C   UNL     1      -2.302  12.179  23.422  0.00  0.00    +0.000 A 
BRANCH  27  30
ATOM     30  C   UNL     1      -6.001  12.955  23.731  0.00  0.00    +0.000 C 
ATOM     31  O   UNL     1      -6.832  12.065  23.689  0.00  0.00    +0.000 OA
BRANCH  30  32
ATOM     32  O   UNL     1      -6.266  14.185  24.227  0.00  0.00    +0.000 OA
ATOM     33  H   UNL     1      -6.137  14.276  25.188  0.00  0.00    +0.000 HD
ENDBRANCH  30  32
ENDBRANCH  27  30
ENDBRANCH  23  24
ENDBRANCH  22  23
ENDBRANCH   6  22
TORSDOF 9
ENDMDL
MODEL 7
REMARK VINA RESULT:      -8.3      2.278      3.129
REMARK  Name = 
REMARK  12 active torsions:
REMARK  status: ('A' for Active; 'I' for Inactive)
REMARK    1  A    between atoms: C_1  and  C_2
REMARK    2  A    between atoms: C_2  and  C_3
REMARK    3  A    between atoms: C_2  and  N_30
REMARK    4  A    between atoms: C_3  and  C_4
REMARK    5  A    between atoms: C_3  and  N_25
REMARK    6  A    between atoms: C_9  and  O_10
REMARK    7  A    between atoms: O_10  and  C_11
REMARK    8  A    between atoms: C_11  and  C_12
REMARK    9  A    between atoms: C_15  and  C_16
REMARK   10  A    between atoms: C_16  and  O_18
REMARK   11  A    between atoms: N_30  and  C_31
REMARK   12  A    between atoms: N_30  and  C_32
REMARK                            x       y       z     vdW  Elec       q    Type
REMARK                         _______ _______ _______ _____ _____    ______ ____
ROOT
ATOM      1  C   UNL     1       2.777   5.727  18.913  0.00  0.00    +0.000 A 
ATOM      2  C   UNL     1       2.384   5.785  20.257  0.00  0.00    +0.000 A 
ATOM      3  C   UNL     1       1.824   6.941  20.785  0.00  0.00    +0.000 A 
ATOM      4  C   UNL     1       1.638   8.067  19.981  0.00  0.00    +0.000 A 
ATOM      5  C   UNL     1       1.076   9.222  20.528  0.00  0.00    +0.000 A 
ATOM      6  C   UNL     1       0.936  10.378  19.764  0.00  0.00    +0.000 A 
ATOM      7  C   UNL     1       1.284  10.358  18.416  0.00  0.00    +0.000 A 
ATOM      8  C   UNL     1       1.830   9.202  17.848  0.00  0.00    +0.000 A 
ATOM      9  C   UNL     1       2.026   8.045  18.624  0.00  0.00    +0.000 A 
ATOM     10  C   UNL     1       2.600   6.869  18.108  0.00  0.00    +0.000 A 
ENDROOT
BRANCH   1  11
ATOM     11  C   UNL     1       3.408   4.458  18.344  0.00  0.00    +0.000 C 
BRANCH  11  12
ATOM     12  N   UNL     1       4.846   4.707  18.153  0.00  0.00    +0.000 N 
ATOM     13  C   UNL     1       5.538   4.846  16.977  0.00  0.00    +0.000 A 
ATOM     14  C   UNL     1       6.843   5.065  17.347  0.00  0.00    +0.000 A 
ATOM     15  N   UNL     1       6.970   5.046  18.710  0.00  0.00    +0.000 NA
ATOM     16  C   UNL     1       5.762   4.810  19.168  0.00  0.00    +0.000 A 
ENDBRANCH  11  12
BRANCH  11  18
ATOM     17  C   UNL     1       3.507   1.889  18.410  0.00  0.00    +0.000 C 
ATOM     18  C   UNL     1       3.074   3.156  19.178  0.00  0.00    +0.000 C 
BRANCH  18  19
ATOM     19  N   UNL     1       1.659   3.076  19.652  0.00  0.00    +0.000 NA
ATOM     20  C   UNL     1       0.743   2.395  18.741  0.00  0.00    +0.000 C 
ATOM     21  C   UNL     1       1.542   2.521  21.002  0.00  0.00    +0.000 C 
ENDBRANCH  18  19
ENDBRANCH  11  18
ENDBRANCH   1  11
BRANCH   6  22
ATOM     22  O   UNL     1       0.474  11.570  20.258  0.00  0.00    +0.000 OA
BRANCH  22  23
ATOM     23  C   UNL     1      -0.773  11.994  19.697  0.00  0.00    +0.000 C 
BRANCH  23  24
ATOM     24  C   UNL     1      -1.764  12.238  20.802  0.00  0.00    +0.000 A 
ATOM     25  C   UNL     1      -3.061  12.686  20.512  0.00  0.00    +0.000 A 
ATOM     26  C   UNL     1      -3.986  12.857  21.538  0.00  0.00    +0.000 A 
ATOM     27  C   UNL     1      -3.631  12.580  22.863  0.00  0.00    +0.000 A 
ATOM     28  C   UNL     1      -2.347  12.103  23.155  0.00  0.00    +0.000 A 
ATOM     29  C   UNL     1      -1.418  11.940  22.127  0.00  0.00    +0.000 A 
BRANCH  27  30
ATOM     30  C   UNL     1      -4.661  12.760  23.914  0.00  0.00    +0.000 C 
ATOM     31  O   UNL     1      -5.443  13.694  23.928  0.00  0.00    +0.000 OA
BRANCH  30  32
ATOM     32  O   UNL     1      -4.624  11.816  24.883  0.00  0.00    +0.000 OA
ATOM     33  H   UNL     1      -5.389  11.215  24.899  0.00  0.00    +0.000 HD
ENDBRANCH  30  32
ENDBRANCH  27  30
ENDBRANCH  23  24
ENDBRANCH  22  23
ENDBRANCH   6  22
TORSDOF 9
ENDMDL
MODEL 8
REMARK VINA RESULT:      -8.2      2.420      4.198
REMARK  Name = 
REMARK  12 active torsions:
REMARK  status: ('A' for Active; 'I' for Inactive)
REMARK    1  A    between atoms: C_1  and  C_2
REMARK    2  A    between atoms: C_2  and  C_3
REMARK    3  A    between atoms: C_2  and  N_30
REMARK    4  A    between atoms: C_3  and  C_4
REMARK    5  A    between atoms: C_3  and  N_25
REMARK    6  A    between atoms: C_9  and  O_10
REMARK    7  A    between atoms: O_10  and  C_11
REMARK    8  A    between atoms: C_11  and  C_12
REMARK    9  A    between atoms: C_15  and  C_16
REMARK   10  A    between atoms: C_16  and  O_18
REMARK   11  A    between atoms: N_30  and  C_31
REMARK   12  A    between atoms: N_30  and  C_32
REMARK                            x       y       z     vdW  Elec       q    Type
REMARK                         _______ _______ _______ _____ _____    ______ ____
ROOT
ATOM      1  C   UNL     1       2.806   6.228  19.280  0.00  0.00    +0.000 A 
ATOM      2  C   UNL     1       2.189   6.310  20.535  0.00  0.00    +0.000 A 
ATOM      3  C   UNL     1       1.494   7.453  20.911  0.00  0.00    +0.000 A 
ATOM      4  C   UNL     1       1.396   8.539  20.041  0.00  0.00    +0.000 A 
ATOM      5  C   UNL     1       0.696   9.681  20.437  0.00  0.00    +0.000 A 
ATOM      6  C   UNL     1       0.635  10.802  19.612  0.00  0.00    +0.000 A 
ATOM      7  C   UNL     1       1.208  10.755  18.344  0.00  0.00    +0.000 A 
ATOM      8  C   UNL     1       1.895   9.611  17.925  0.00  0.00    +0.000 A 
ATOM      9  C   UNL     1       2.009   8.492  18.770  0.00  0.00    +0.000 A 
ATOM     10  C   UNL     1       2.717   7.332  18.408  0.00  0.00    +0.000 A 
ENDROOT
BRANCH   1  11
ATOM     11  C   UNL     1       3.583   4.976  18.879  0.00  0.00    +0.000 C 
BRANCH  11  12
ATOM     12  N   UNL     1       2.653   3.836  18.890  0.00  0.00    +0.000 N 
ATOM     13  C   UNL     1       1.407   3.746  18.324  0.00  0.00    +0.000 A 
ATOM     14  C   UNL     1       0.965   2.479  18.618  0.00  0.00    +0.000 A 
ATOM     15  N   UNL     1       1.893   1.801  19.361  0.00  0.00    +0.000 NA
ATOM     16  C   UNL     1       2.888   2.644  19.526  0.00  0.00    +0.000 A 
ENDBRANCH  11  12
BRANCH  11  18
ATOM     17  C   UNL     1       4.271   3.878  16.657  0.00  0.00    +0.000 C 
ATOM     18  C   UNL     1       4.401   5.141  17.534  0.00  0.00    +0.000 C 
BRANCH  18  19
ATOM     19  N   UNL     1       5.824   5.554  17.727  0.00  0.00    +0.000 NA
ATOM     20  C   UNL     1       6.145   6.897  17.253  0.00  0.00    +0.000 C 
ATOM     21  C   UNL     1       6.284   5.377  19.106  0.00  0.00    +0.000 C 
ENDBRANCH  18  19
ENDBRANCH  11  18
ENDBRANCH   1  11
BRANCH   6  22
ATOM     22  O   UNL     1       0.041  11.984  19.970  0.00  0.00    +0.000 OA
BRANCH  22  23
ATOM     23  C   UNL     1      -1.318  12.112  19.541  0.00  0.00    +0.000 C 
BRANCH  23  24
ATOM     24  C   UNL     1      -2.201  12.362  20.735  0.00  0.00    +0.000 A 
ATOM     25  C   UNL     1      -3.518  12.810  20.566  0.00  0.00    +0.000 A 
ATOM     26  C   UNL     1      -4.342  12.989  21.674  0.00  0.00    +0.000 A 
ATOM     27  C   UNL     1      -3.863  12.718  22.961  0.00  0.00    +0.000 A 
ATOM     28  C   UNL     1      -2.558  12.241  23.133  0.00  0.00    +0.000 A 
ATOM     29  C   UNL     1      -1.730  12.071  22.022  0.00  0.00    +0.000 A 
BRANCH  27  30
ATOM     30  C   UNL     1      -4.789  12.904  24.104  0.00  0.00    +0.000 C 
ATOM     31  O   UNL     1      -5.166  11.988  24.813  0.00  0.00    +0.000 OA
BRANCH  30  32
ATOM     32  O   UNL     1      -5.214  14.179  24.260  0.00  0.00    +0.000 OA
ATOM     33  H   UNL     1      -4.962  14.787  23.543  0.00  0.00    +0.000 HD
ENDBRANCH  30  32
ENDBRANCH  27  30
ENDBRANCH  23  24
ENDBRANCH  22  23
ENDBRANCH   6  22
TORSDOF 9
ENDMDL
MODEL 9
REMARK VINA RESULT:      -8.2      2.473      4.078
REMARK  Name = 
REMARK  12 active torsions:
REMARK  status: ('A' for Active; 'I' for Inactive)
REMARK    1  A    between atoms: C_1  and  C_2
REMARK    2  A    between atoms: C_2  and  C_3
REMARK    3  A    between atoms: C_2  and  N_30
REMARK    4  A    between atoms: C_3  and  C_4
REMARK    5  A    between atoms: C_3  and  N_25
REMARK    6  A    between atoms: C_9  and  O_10
REMARK    7  A    between atoms: O_10  and  C_11
REMARK    8  A    between atoms: C_11  and  C_12
REMARK    9  A    between atoms: C_15  and  C_16
REMARK   10  A    between atoms: C_16  and  O_18
REMARK   11  A    between atoms: N_30  and  C_31
REMARK   12  A    between atoms: N_30  and  C_32
REMARK                            x       y       z     vdW  Elec       q    Type
REMARK                         _______ _______ _______ _____ _____    ______ ____
ROOT
ATOM      1  C   UNL     1       3.009   6.623  18.813  0.00  0.00    +0.000 A 
ATOM      2  C   UNL     1       2.982   7.512  17.730  0.00  0.00    +0.000 A 
ATOM      3  C   UNL     1       2.252   8.693  17.798  0.00  0.00    +0.000 A 
ATOM      4  C   UNL     1       1.537   9.016  18.952  0.00  0.00    +0.000 A 
ATOM      5  C   UNL     1       0.807  10.205  19.002  0.00  0.00    +0.000 A 
ATOM      6  C   UNL     1       0.035  10.522  20.118  0.00  0.00    +0.000 A 
ATOM      7  C   UNL     1       0.056   9.683  21.229  0.00  0.00    +0.000 A 
ATOM      8  C   UNL     1       0.798   8.498  21.202  0.00  0.00    +0.000 A 
ATOM      9  C   UNL     1       1.539   8.141  20.060  0.00  0.00    +0.000 A 
ATOM     10  C   UNL     1       2.275   6.946  19.971  0.00  0.00    +0.000 A 
ENDROOT
BRANCH   1  11
ATOM     11  C   UNL     1       3.798   5.319  18.725  0.00  0.00    +0.000 C 
BRANCH  11  12
ATOM     12  N   UNL     1       2.840   4.202  18.722  0.00  0.00    +0.000 N 
ATOM     13  C   UNL     1       2.821   3.094  19.531  0.00  0.00    +0.000 A 
ATOM     14  C   UNL     1       1.728   2.367  19.124  0.00  0.00    +0.000 A 
ATOM     15  N   UNL     1       1.093   2.988  18.082  0.00  0.00    +0.000 NA
ATOM     16  C   UNL     1       1.792   4.076  17.849  0.00  0.00    +0.000 A 
ENDBRANCH  11  12
BRANCH  11  18
ATOM     17  C   UNL     1       4.833   3.915  16.835  0.00  0.00    +0.000 C 
ATOM     18  C   UNL     1       4.843   5.289  17.537  0.00  0.00    +0.000 C 
BRANCH  18  19
ATOM     19  N   UNL     1       6.221   5.722  17.920  0.00  0.00    +0.000 NA
ATOM     20  C   UNL     1       7.253   4.702  17.758  0.00  0.00    +0.000 C 
ATOM     21  C   UNL     1       6.628   6.968  17.265  0.00  0.00    +0.000 C 
ENDBRANCH  18  19
ENDBRANCH  11  18
ENDBRANCH   1  11
BRANCH   6  22
ATOM     22  O   UNL     1      -0.772  11.627  20.201  0.00  0.00    +0.000 OA
BRANCH  22  23
ATOM     23  C   UNL     1      -0.643  12.357  21.425  0.00  0.00    +0.000 C 
BRANCH  23  24
ATOM     24  C   UNL     1      -2.007  12.589  22.018  0.00  0.00    +0.000 A 
ATOM     25  C   UNL     1      -3.016  13.206  21.265  0.00  0.00    +0.000 A 
ATOM     26  C   UNL     1      -4.289  13.369  21.804  0.00  0.00    +0.000 A 
ATOM     27  C   UNL     1      -4.571  12.915  23.098  0.00  0.00    +0.000 A 
ATOM     28  C   UNL     1      -3.575  12.271  23.843  0.00  0.00    +0.000 A 
ATOM     29  C   UNL     1      -2.297  12.117  23.304  0.00  0.00    +0.000 A 
BRANCH  27  30
ATOM     30  C   UNL     1      -5.948  13.095  23.616  0.00  0.00    +0.000 C 
ATOM     31  O   UNL     1      -6.524  14.169  23.622  0.00  0.00    +0.000 OA
BRANCH  30  32
ATOM     32  O   UNL     1      -6.492  11.966  24.126  0.00  0.00    +0.000 OA
ATOM     33  H   UNL     1      -7.009  11.438  23.493  0.00  0.00    +0.000 HD
ENDBRANCH  30  32
ENDBRANCH  27  30
ENDBRANCH  23  24
ENDBRANCH  22  23
ENDBRANCH   6  22
TORSDOF 9
ENDMDL
