MODEL 1
REMARK VINA RESULT:      -7.5      0.000      0.000
REMARK  Name = 
REMARK  16 active torsions:
REMARK  status: ('A' for Active; 'I' for Inactive)
REMARK    1  A    between atoms: C_1  and  O_2
REMARK    2  A    between atoms: O_2  and  C_3
REMARK    3  A    between atoms: C_6  and  C_7
REMARK    4  A    between atoms: C_7  and  C_8
REMARK    5  A    between atoms: C_8  and  N_9
REMARK    6  A    between atoms: N_9  and  C_10
REMARK    7  A    between atoms: N_9  and  C_11
REMARK    8  A    between atoms: C_11  and  C_12
REMARK    9  A    between atoms: C_12  and  C_13
REMARK   10  A    between atoms: C_13  and  N_14
REMARK   11  A    between atoms: C_18  and  O_19
REMARK   12  A    between atoms: O_19  and  C_20
REMARK   13  A    between atoms: C_23  and  O_24
REMARK   14  A    between atoms: O_24  and  C_25
REMARK   15  A    between atoms: C_31  and  O_32
REMARK   16  A    between atoms: O_32  and  C_33
REMARK                            x       y       z     vdW  Elec       q    Type
REMARK                         _______ _______ _______ _____ _____    ______ ____
ROOT
ATOM      1  C   UNL     1       2.617   6.641  20.123  0.00  0.00    +0.000 C 
ENDROOT
BRANCH   1   2
ATOM      2  N   UNL     1       1.767   7.768  19.706  0.00  0.00    +0.000 N 
ATOM      3  C   UNL     1       0.891   8.327  20.701  0.00  0.00    +0.000 C 
ATOM      4  C   UNL     1       1.203   9.820  20.844  0.00  0.00    +0.000 C 
ATOM      5  C   UNL     1       0.098  10.520  20.132  0.00  0.00    +0.000 A 
ATOM      6  C   UNL     1      -0.781  11.327  20.894  0.00  0.00    +0.000 A 
ATOM      7  C   UNL     1      -1.885  11.907  20.275  0.00  0.00    +0.000 A 
ATOM      8  C   UNL     1      -2.111  11.707  18.927  0.00  0.00    +0.000 A 
ATOM      9  C   UNL     1      -1.251  10.939  18.133  0.00  0.00    +0.000 A 
ATOM     10  C   UNL     1      -0.101  10.299  18.733  0.00  0.00    +0.000 A 
ATOM     11  C   UNL     1       0.905   9.449  17.905  0.00  0.00    +0.000 C 
ATOM     12  C   UNL     1       1.817   8.312  18.440  0.00  0.00    +0.000 C 
ATOM     13  O   UNL     1       2.607   7.848  17.630  0.00  0.00    +0.000 OA
BRANCH   6  14
ATOM     14  O   UNL     1      -0.544  11.510  22.225  0.00  0.00    +0.000 OA
ATOM     15  C   UNL     1      -1.466  11.396  23.247  0.00  0.00    +0.000 C 
ENDBRANCH   6  14
BRANCH   9  16
ATOM     16  O   UNL     1      -1.650  10.888  16.830  0.00  0.00    +0.000 OA
ATOM     17  C   UNL     1      -2.875  10.983  16.219  0.00  0.00    +0.000 C 
ENDBRANCH   9  16
ENDBRANCH   1   2
BRANCH   1  18
ATOM     18  C   UNL     1       1.782   5.456  20.701  0.00  0.00    +0.000 C 
BRANCH  18  19
ATOM     19  C   UNL     1       1.535   4.368  19.619  0.00  0.00    +0.000 C 
BRANCH  19  20
ATOM     20  N   UNL     1       1.809   2.960  20.041  0.00  0.00    +0.000 NA
ATOM     21  C   UNL     1       1.808   2.934  21.522  0.00  0.00    +0.000 C 
BRANCH  20  22
ATOM     22  C   UNL     1       3.112   2.477  19.508  0.00  0.00    +0.000 C 
BRANCH  22  23
ATOM     23  C   UNL     1       3.440   2.890  18.044  0.00  0.00    +0.000 C 
BRANCH  23  27
ATOM     24  C   UNL     1       6.712   5.730  17.554  0.00  0.00    +0.000 A 
ATOM     25  C   UNL     1       6.332   5.253  18.832  0.00  0.00    +0.000 A 
ATOM     26  C   UNL     1       5.279   4.347  18.986  0.00  0.00    +0.000 A 
ATOM     27  C   UNL     1       4.570   3.893  17.882  0.00  0.00    +0.000 A 
ATOM     28  C   UNL     1       4.928   4.356  16.606  0.00  0.00    +0.000 A 
ATOM     29  C   UNL     1       5.988   5.258  16.420  0.00  0.00    +0.000 A 
BRANCH  24  31
ATOM     30  C   UNL     1       7.732   7.994  17.522  0.00  0.00    +0.000 C 
ATOM     31  O   UNL     1       7.740   6.612  17.389  0.00  0.00    +0.000 OA
ENDBRANCH  24  31
BRANCH  29  32
ATOM     32  O   UNL     1       6.254   5.607  15.129  0.00  0.00    +0.000 OA
ATOM     33  C   UNL     1       7.004   4.943  14.184  0.00  0.00    +0.000 C 
ENDBRANCH  29  32
ENDBRANCH  23  27
ENDBRANCH  22  23
ENDBRANCH  20  22
ENDBRANCH  19  20
ENDBRANCH  18  19
ENDBRANCH   1  18
TORSDOF 11
ENDMDL
MODEL 2
REMARK VINA RESULT:      -7.0      1.141      2.838
REMARK  Name = 
REMARK  16 active torsions:
REMARK  status: ('A' for Active; 'I' for Inactive)
REMARK    1  A    between atoms: C_1  and  O_2
REMARK    2  A    between atoms: O_2  and  C_3
REMARK    3  A    between atoms: C_6  and  C_7
REMARK    4  A    between atoms: C_7  and  C_8
REMARK    5  A    between atoms: C_8  and  N_9
REMARK    6  A    between atoms: N_9  and  C_10
REMARK    7  A    between atoms: N_9  and  C_11
REMARK    8  A    between atoms: C_11  and  C_12
REMARK    9  A    between atoms: C_12  and  C_13
REMARK   10  A    between atoms: C_13  and  N_14
REMARK   11  A    between atoms: C_18  and  O_19
REMARK   12  A    between atoms: O_19  and  C_20
REMARK   13  A    between atoms: C_23  and  O_24
REMARK   14  A    between atoms: O_24  and  C_25
REMARK   15  A    between atoms: C_31  and  O_32
REMARK   16  A    between atoms: O_32  and  C_33
REMARK                            x       y       z     vdW  Elec       q    Type
REMARK                         _______ _______ _______ _____ _____    ______ ____
ROOT
ATOM      1  C   UNL     1       2.770   7.478  18.625  0.00  0.00    +0.000 C 
ENDROOT
BRANCH   1   2
ATOM      2  N   UNL     1       1.810   8.474  19.130  0.00  0.00    +0.000 N 
ATOM      3  C   UNL     1       1.319   9.442  18.186  0.00  0.00    +0.000 C 
ATOM      4  C   UNL     1      -0.209   9.354  18.145  0.00  0.00    +0.000 C 
ATOM      5  C   UNL     1      -0.690  10.534  18.916  0.00  0.00    +0.000 A 
ATOM      6  C   UNL     1      -1.409  11.537  18.222  0.00  0.00    +0.000 A 
ATOM      7  C   UNL     1      -1.777  12.701  18.892  0.00  0.00    +0.000 A 
ATOM      8  C   UNL     1      -1.456  12.867  20.225  0.00  0.00    +0.000 A 
ATOM      9  C   UNL     1      -0.770  11.888  20.954  0.00  0.00    +0.000 A 
ATOM     10  C   UNL     1      -0.348  10.670  20.298  0.00  0.00    +0.000 A 
ATOM     11  C   UNL     1       0.400   9.534  21.053  0.00  0.00    +0.000 C 
ATOM     12  C   UNL     1       1.352   8.477  20.430  0.00  0.00    +0.000 C 
ATOM     13  O   UNL     1       1.749   7.611  21.198  0.00  0.00    +0.000 OA
BRANCH   6  14
ATOM     14  O   UNL     1      -1.716  11.357  16.904  0.00  0.00    +0.000 OA
ATOM     15  C   UNL     1      -2.966  11.096  16.380  0.00  0.00    +0.000 C 
ENDBRANCH   6  14
BRANCH   9  16
ATOM     16  O   UNL     1      -0.572  12.248  22.254  0.00  0.00    +0.000 OA
ATOM     17  C   UNL     1      -1.402  12.751  23.225  0.00  0.00    +0.000 C 
ENDBRANCH   9  16
ENDBRANCH   1   2
BRANCH   1  18
ATOM     18  C   UNL     1       2.057   6.239  17.999  0.00  0.00    +0.000 C 
BRANCH  18  19
ATOM     19  C   UNL     1       1.981   5.066  19.016  0.00  0.00    +0.000 C 
BRANCH  19  20
ATOM     20  N   UNL     1       1.512   3.758  18.463  0.00  0.00    +0.000 NA
ATOM     21  C   UNL     1       1.228   2.868  19.611  0.00  0.00    +0.000 C 
BRANCH  20  22
ATOM     22  C   UNL     1       2.532   3.151  17.566  0.00  0.00    +0.000 C 
BRANCH  22  23
ATOM     23  C   UNL     1       3.948   2.960  18.181  0.00  0.00    +0.000 C 
BRANCH  23  27
ATOM     24  C   UNL     1       6.851   6.097  17.321  0.00  0.00    +0.000 A 
ATOM     25  C   UNL     1       6.463   5.793  18.648  0.00  0.00    +0.000 A 
ATOM     26  C   UNL     1       5.528   4.790  18.920  0.00  0.00    +0.000 A 
ATOM     27  C   UNL     1       4.948   4.067  17.887  0.00  0.00    +0.000 A 
ATOM     28  C   UNL     1       5.315   4.355  16.563  0.00  0.00    +0.000 A 
ATOM     29  C   UNL     1       6.260   5.349  16.261  0.00  0.00    +0.000 A 
BRANCH  24  31
ATOM     30  C   UNL     1       7.994   8.268  17.706  0.00  0.00    +0.000 C 
ATOM     31  O   UNL     1       7.765   7.072  17.041  0.00  0.00    +0.000 OA
ENDBRANCH  24  31
BRANCH  29  32
ATOM     32  O   UNL     1       6.552   5.512  14.939  0.00  0.00    +0.000 OA
ATOM     33  C   UNL     1       6.532   4.583  13.922  0.00  0.00    +0.000 C 
ENDBRANCH  29  32
ENDBRANCH  23  27
ENDBRANCH  22  23
ENDBRANCH  20  22
ENDBRANCH  19  20
ENDBRANCH  18  19
ENDBRANCH   1  18
TORSDOF 11
ENDMDL
MODEL 3
REMARK VINA RESULT:      -6.8      1.859      8.947
REMARK  Name = 
REMARK  16 active torsions:
REMARK  status: ('A' for Active; 'I' for Inactive)
REMARK    1  A    between atoms: C_1  and  O_2
REMARK    2  A    between atoms: O_2  and  C_3
REMARK    3  A    between atoms: C_6  and  C_7
REMARK    4  A    between atoms: C_7  and  C_8
REMARK    5  A    between atoms: C_8  and  N_9
REMARK    6  A    between atoms: N_9  and  C_10
REMARK    7  A    between atoms: N_9  and  C_11
REMARK    8  A    between atoms: C_11  and  C_12
REMARK    9  A    between atoms: C_12  and  C_13
REMARK   10  A    between atoms: C_13  and  N_14
REMARK   11  A    between atoms: C_18  and  O_19
REMARK   12  A    between atoms: O_19  and  C_20
REMARK   13  A    between atoms: C_23  and  O_24
REMARK   14  A    between atoms: O_24  and  C_25
REMARK   15  A    between atoms: C_31  and  O_32
REMARK   16  A    between atoms: O_32  and  C_33
REMARK                            x       y       z     vdW  Elec       q    Type
REMARK                         _______ _______ _______ _____ _____    ______ ____
ROOT
ATOM      1  C   UNL     1       1.166   7.318  20.953  0.00  0.00    +0.000 C 
ENDROOT
BRANCH   1   2
ATOM      2  N   UNL     1       2.087   6.944  19.867  0.00  0.00    +0.000 N 
ATOM      3  C   UNL     1       2.480   5.562  19.793  0.00  0.00    +0.000 C 
ATOM      4  C   UNL     1       2.105   5.020  18.411  0.00  0.00    +0.000 C 
ATOM      5  C   UNL     1       3.386   4.955  17.655  0.00  0.00    +0.000 A 
ATOM      6  C   UNL     1       3.870   3.680  17.271  0.00  0.00    +0.000 A 
ATOM      7  C   UNL     1       5.117   3.580  16.659  0.00  0.00    +0.000 A 
ATOM      8  C   UNL     1       5.866   4.714  16.417  0.00  0.00    +0.000 A 
ATOM      9  C   UNL     1       5.412   5.995  16.756  0.00  0.00    +0.000 A 
ATOM     10  C   UNL     1       4.132   6.150  17.412  0.00  0.00    +0.000 A 
ATOM     11  C   UNL     1       3.559   7.544  17.797  0.00  0.00    +0.000 C 
ATOM     12  C   UNL     1       2.534   7.845  18.924  0.00  0.00    +0.000 C 
ATOM     13  O   UNL     1       2.143   9.003  18.983  0.00  0.00    +0.000 OA
BRANCH   6  14
ATOM     14  O   UNL     1       3.118   2.570  17.522  0.00  0.00    +0.000 OA
ATOM     15  C   UNL     1       3.265   1.701  18.584  0.00  0.00    +0.000 C 
ENDBRANCH   6  14
BRANCH   9  16
ATOM     16  O   UNL     1       6.298   6.971  16.411  0.00  0.00    +0.000 OA
ATOM     17  C   UNL     1       7.309   7.604  17.092  0.00  0.00    +0.000 C 
ENDBRANCH   9  16
ENDBRANCH   1   2
BRANCH   1  18
ATOM     18  C   UNL     1       0.822   8.840  20.935  0.00  0.00    +0.000 C 
BRANCH  18  19
ATOM     19  C   UNL     1       0.801   9.423  22.376  0.00  0.00    +0.000 C 
BRANCH  19  20
ATOM     20  N   UNL     1       0.309  10.831  22.497  0.00  0.00    +0.000 NA
ATOM     21  C   UNL     1      -1.063  10.775  23.050  0.00  0.00    +0.000 C 
BRANCH  20  22
ATOM     22  C   UNL     1       0.318  11.524  21.180  0.00  0.00    +0.000 C 
BRANCH  22  23
ATOM     23  C   UNL     1      -1.059  12.052  20.683  0.00  0.00    +0.000 C 
BRANCH  23  27
ATOM     24  C   UNL     1      -2.591  10.197  17.046  0.00  0.00    +0.000 A 
ATOM     25  C   UNL     1      -1.223  10.112  17.399  0.00  0.00    +0.000 A 
ATOM     26  C   UNL     1      -0.734  10.712  18.563  0.00  0.00    +0.000 A 
ATOM     27  C   UNL     1      -1.583  11.418  19.405  0.00  0.00    +0.000 A 
ATOM     28  C   UNL     1      -2.943  11.518  19.071  0.00  0.00    +0.000 A 
ATOM     29  C   UNL     1      -3.464  10.916  17.914  0.00  0.00    +0.000 A 
BRANCH  24  31
ATOM     30  C   UNL     1      -3.176  10.139  14.633  0.00  0.00    +0.000 C 
ATOM     31  O   UNL     1      -3.082   9.614  15.914  0.00  0.00    +0.000 OA
ENDBRANCH  24  31
BRANCH  29  32
ATOM     32  O   UNL     1      -4.805  11.062  17.719  0.00  0.00    +0.000 OA
ATOM     33  C   UNL     1      -5.499  12.137  17.209  0.00  0.00    +0.000 C 
ENDBRANCH  29  32
ENDBRANCH  23  27
ENDBRANCH  22  23
ENDBRANCH  20  22
ENDBRANCH  19  20
ENDBRANCH  18  19
ENDBRANCH   1  18
TORSDOF 11
ENDMDL
MODEL 4
REMARK VINA RESULT:      -6.8      1.131      2.037
REMARK  Name = 
REMARK  16 active torsions:
REMARK  status: ('A' for Active; 'I' for Inactive)
REMARK    1  A    between atoms: C_1  and  O_2
REMARK    2  A    between atoms: O_2  and  C_3
REMARK    3  A    between atoms: C_6  and  C_7
REMARK    4  A    between atoms: C_7  and  C_8
REMARK    5  A    between atoms: C_8  and  N_9
REMARK    6  A    between atoms: N_9  and  C_10
REMARK    7  A    between atoms: N_9  and  C_11
REMARK    8  A    between atoms: C_11  and  C_12
REMARK    9  A    between atoms: C_12  and  C_13
REMARK   10  A    between atoms: C_13  and  N_14
REMARK   11  A    between atoms: C_18  and  O_19
REMARK   12  A    between atoms: O_19  and  C_20
REMARK   13  A    between atoms: C_23  and  O_24
REMARK   14  A    between atoms: O_24  and  C_25
REMARK   15  A    between atoms: C_31  and  O_32
REMARK   16  A    between atoms: O_32  and  C_33
REMARK                            x       y       z     vdW  Elec       q    Type
REMARK                         _______ _______ _______ _____ _____    ______ ____
ROOT
ATOM      1  C   UNL     1       2.358   7.358  19.823  0.00  0.00    +0.000 C 
ENDROOT
BRANCH   1   2
ATOM      2  N   UNL     1       1.440   8.465  19.503  0.00  0.00    +0.000 N 
ATOM      3  C   UNL     1       0.573   8.918  20.557  0.00  0.00    +0.000 C 
ATOM      4  C   UNL     1       0.817  10.413  20.783  0.00  0.00    +0.000 C 
ATOM      5  C   UNL     1      -0.344  11.099  20.150  0.00  0.00    +0.000 A 
ATOM      6  C   UNL     1      -1.234  11.813  20.988  0.00  0.00    +0.000 A 
ATOM      7  C   UNL     1      -2.386  12.372  20.440  0.00  0.00    +0.000 A 
ATOM      8  C   UNL     1      -2.647  12.243  19.090  0.00  0.00    +0.000 A 
ATOM      9  C   UNL     1      -1.779  11.569  18.223  0.00  0.00    +0.000 A 
ATOM     10  C   UNL     1      -0.579  10.953  18.747  0.00  0.00    +0.000 A 
ATOM     11  C   UNL     1       0.438  10.206  17.837  0.00  0.00    +0.000 C 
ATOM     12  C   UNL     1       1.421   9.086  18.272  0.00  0.00    +0.000 C 
ATOM     13  O   UNL     1       2.205   8.712  17.410  0.00  0.00    +0.000 OA
BRANCH   6  14
ATOM     14  O   UNL     1      -0.961  11.927  22.320  0.00  0.00    +0.000 OA
ATOM     15  C   UNL     1      -1.703  12.624  23.253  0.00  0.00    +0.000 C 
ENDBRANCH   6  14
BRANCH   9  16
ATOM     16  O   UNL     1      -2.219  11.577  16.933  0.00  0.00    +0.000 OA
ATOM     17  C   UNL     1      -3.101  10.788  16.237  0.00  0.00    +0.000 C 
ENDBRANCH   9  16
ENDBRANCH   1   2
BRANCH   1  18
ATOM     18  C   UNL     1       1.723   6.334  20.813  0.00  0.00    +0.000 C 
BRANCH  18  19
ATOM     19  C   UNL     1       2.160   4.882  20.470  0.00  0.00    +0.000 C 
BRANCH  19  20
ATOM     20  N   UNL     1       2.470   4.622  19.030  0.00  0.00    +0.000 NA
ATOM     21  C   UNL     1       1.299   3.932  18.443  0.00  0.00    +0.000 C 
BRANCH  20  22
ATOM     22  C   UNL     1       3.697   3.794  18.880  0.00  0.00    +0.000 C 
BRANCH  22  23
ATOM     23  C   UNL     1       3.916   3.153  17.480  0.00  0.00    +0.000 C 
BRANCH  23  27
ATOM     24  C   UNL     1       6.870   5.126  14.951  0.00  0.00    +0.000 A 
ATOM     25  C   UNL     1       6.339   3.857  14.615  0.00  0.00    +0.000 A 
ATOM     26  C   UNL     1       5.396   3.225  15.431  0.00  0.00    +0.000 A 
ATOM     27  C   UNL     1       4.958   3.827  16.603  0.00  0.00    +0.000 A 
ATOM     28  C   UNL     1       5.475   5.083  16.957  0.00  0.00    +0.000 A 
ATOM     29  C   UNL     1       6.415   5.747  16.151  0.00  0.00    +0.000 A 
BRANCH  24  31
ATOM     30  C   UNL     1       8.237   5.405  12.897  0.00  0.00    +0.000 C 
ATOM     31  O   UNL     1       7.789   5.755  14.162  0.00  0.00    +0.000 OA
ENDBRANCH  24  31
BRANCH  29  32
ATOM     32  O   UNL     1       6.816   6.973  16.590  0.00  0.00    +0.000 OA
ATOM     33  C   UNL     1       7.651   7.293  17.638  0.00  0.00    +0.000 C 
ENDBRANCH  29  32
ENDBRANCH  23  27
ENDBRANCH  22  23
ENDBRANCH  20  22
ENDBRANCH  19  20
ENDBRANCH  18  19
ENDBRANCH   1  18
TORSDOF 11
ENDMDL
MODEL 5
REMARK VINA RESULT:      -6.6      3.286     10.714
REMARK  Name = 
REMARK  16 active torsions:
REMARK  status: ('A' for Active; 'I' for Inactive)
REMARK    1  A    between atoms: C_1  and  O_2
REMARK    2  A    between atoms: O_2  and  C_3
REMARK    3  A    between atoms: C_6  and  C_7
REMARK    4  A    between atoms: C_7  and  C_8
REMARK    5  A    between atoms: C_8  and  N_9
REMARK    6  A    between atoms: N_9  and  C_10
REMARK    7  A    between atoms: N_9  and  C_11
REMARK    8  A    between atoms: C_11  and  C_12
REMARK    9  A    between atoms: C_12  and  C_13
REMARK   10  A    between atoms: C_13  and  N_14
REMARK   11  A    between atoms: C_18  and  O_19
REMARK   12  A    between atoms: O_19  and  C_20
REMARK   13  A    between atoms: C_23  and  O_24
REMARK   14  A    between atoms: O_24  and  C_25
REMARK   15  A    between atoms: C_31  and  O_32
REMARK   16  A    between atoms: O_32  and  C_33
REMARK                            x       y       z     vdW  Elec       q    Type
REMARK                         _______ _______ _______ _____ _____    ______ ____
ROOT
ATOM      1  C   UNL     1       1.231  10.066  18.926  0.00  0.00    +0.000 C 
ENDROOT
BRANCH   1   2
ATOM      2  N   UNL     1       1.580   8.641  19.055  0.00  0.00    +0.000 N 
ATOM      3  C   UNL     1       2.037   7.971  17.867  0.00  0.00    +0.000 C 
ATOM      4  C   UNL     1       3.425   7.383  18.140  0.00  0.00    +0.000 C 
ATOM      5  C   UNL     1       3.200   5.923  18.329  0.00  0.00    +0.000 A 
ATOM      6  C   UNL     1       3.759   5.034  17.379  0.00  0.00    +0.000 A 
ATOM      7  C   UNL     1       3.475   3.673  17.469  0.00  0.00    +0.000 A 
ATOM      8  C   UNL     1       2.669   3.196  18.483  0.00  0.00    +0.000 A 
ATOM      9  C   UNL     1       2.119   4.038  19.457  0.00  0.00    +0.000 A 
ATOM     10  C   UNL     1       2.367   5.462  19.396  0.00  0.00    +0.000 A 
ATOM     11  C   UNL     1       1.804   6.451  20.457  0.00  0.00    +0.000 C 
ATOM     12  C   UNL     1       1.523   7.965  20.255  0.00  0.00    +0.000 C 
ATOM     13  O   UNL     1       1.177   8.573  21.259  0.00  0.00    +0.000 OA
BRANCH   6  14
ATOM     14  O   UNL     1       4.551   5.523  16.382  0.00  0.00    +0.000 OA
ATOM     15  C   UNL     1       5.822   5.093  16.056  0.00  0.00    +0.000 C 
ENDBRANCH   6  14
BRANCH   9  16
ATOM     16  O   UNL     1       1.371   3.359  20.373  0.00  0.00    +0.000 OA
ATOM     17  C   UNL     1       1.672   2.757  21.569  0.00  0.00    +0.000 C 
ENDBRANCH   9  16
ENDBRANCH   1   2
BRANCH   1  18
ATOM     18  C   UNL     1      -0.311  10.289  18.845  0.00  0.00    +0.000 C 
BRANCH  18  19
ATOM     19  C   UNL     1      -0.866   9.850  17.461  0.00  0.00    +0.000 C 
BRANCH  19  20
ATOM     20  N   UNL     1      -2.352   9.920  17.307  0.00  0.00    +0.000 NA
ATOM     21  C   UNL     1      -2.642  10.048  15.861  0.00  0.00    +0.000 C 
BRANCH  20  22
ATOM     22  C   UNL     1      -2.922  11.070  18.061  0.00  0.00    +0.000 C 
BRANCH  22  23
ATOM     23  C   UNL     1      -4.275  11.625  17.530  0.00  0.00    +0.000 C 
BRANCH  23  27
ATOM     24  C   UNL     1      -7.046  13.039  20.585  0.00  0.00    +0.000 A 
ATOM     25  C   UNL     1      -7.353  13.136  19.206  0.00  0.00    +0.000 A 
ATOM     26  C   UNL     1      -6.460  12.687  18.230  0.00  0.00    +0.000 A 
ATOM     27  C   UNL     1      -5.238  12.136  18.589  0.00  0.00    +0.000 A 
ATOM     28  C   UNL     1      -4.911  12.034  19.950  0.00  0.00    +0.000 A 
ATOM     29  C   UNL     1      -5.793  12.467  20.954  0.00  0.00    +0.000 A 
BRANCH  24  31
ATOM     30  C   UNL     1      -7.887  14.655  22.273  0.00  0.00    +0.000 C 
ATOM     31  O   UNL     1      -7.909  13.471  21.550  0.00  0.00    +0.000 OA
ENDBRANCH  24  31
BRANCH  29  32
ATOM     32  O   UNL     1      -5.371  12.285  22.238  0.00  0.00    +0.000 OA
ATOM     33  C   UNL     1      -4.539  13.075  23.001  0.00  0.00    +0.000 C 
ENDBRANCH  29  32
ENDBRANCH  23  27
ENDBRANCH  22  23
ENDBRANCH  20  22
ENDBRANCH  19  20
ENDBRANCH  18  19
ENDBRANCH   1  18
TORSDOF 11
ENDMDL
MODEL 6
REMARK VINA RESULT:      -6.4      2.422      9.638
REMARK  Name = 
REMARK  16 active torsions:
REMARK  status: ('A' for Active; 'I' for Inactive)
REMARK    1  A    between atoms: C_1  and  O_2
REMARK    2  A    between atoms: O_2  and  C_3
REMARK    3  A    between atoms: C_6  and  C_7
REMARK    4  A    between atoms: C_7  and  C_8
REMARK    5  A    between atoms: C_8  and  N_9
REMARK    6  A    between atoms: N_9  and  C_10
REMARK    7  A    between atoms: N_9  and  C_11
REMARK    8  A    between atoms: C_11  and  C_12
REMARK    9  A    between atoms: C_12  and  C_13
REMARK   10  A    between atoms: C_13  and  N_14
REMARK   11  A    between atoms: C_18  and  O_19
REMARK   12  A    between atoms: O_19  and  C_20
REMARK   13  A    between atoms: C_23  and  O_24
REMARK   14  A    between atoms: O_24  and  C_25
REMARK   15  A    between atoms: C_31  and  O_32
REMARK   16  A    between atoms: O_32  and  C_33
REMARK                            x       y       z     vdW  Elec       q    Type
REMARK                         _______ _______ _______ _____ _____    ______ ____
ROOT
ATOM      1  C   UNL     1       1.526   8.438  21.275  0.00  0.00    +0.000 C 
ENDROOT
BRANCH   1   2
ATOM      2  N   UNL     1       1.957   7.403  20.321  0.00  0.00    +0.000 N 
ATOM      3  C   UNL     1       2.102   6.066  20.831  0.00  0.00    +0.000 C 
ATOM      4  C   UNL     1       1.203   5.132  20.016  0.00  0.00    +0.000 C 
ATOM      5  C   UNL     1       2.125   4.398  19.105  0.00  0.00    +0.000 A 
ATOM      6  C   UNL     1       2.263   2.999  19.281  0.00  0.00    +0.000 A 
ATOM      7  C   UNL     1       3.198   2.304  18.518  0.00  0.00    +0.000 A 
ATOM      8  C   UNL     1       3.971   2.972  17.589  0.00  0.00    +0.000 A 
ATOM      9  C   UNL     1       3.846   4.348  17.365  0.00  0.00    +0.000 A 
ATOM     10  C   UNL     1       2.904   5.119  18.147  0.00  0.00    +0.000 A 
ATOM     11  C   UNL     1       2.701   6.646  17.937  0.00  0.00    +0.000 C 
ATOM     12  C   UNL     1       2.177   7.665  18.985  0.00  0.00    +0.000 C 
ATOM     13  O   UNL     1       1.999   8.801  18.570  0.00  0.00    +0.000 OA
BRANCH   6  14
ATOM     14  O   UNL     1       1.493   2.357  20.206  0.00  0.00    +0.000 OA
ATOM     15  C   UNL     1       1.685   2.350  21.573  0.00  0.00    +0.000 C 
ENDBRANCH   6  14
BRANCH   9  16
ATOM     16  O   UNL     1       4.690   4.798  16.394  0.00  0.00    +0.000 OA
ATOM     17  C   UNL     1       5.509   4.163  15.493  0.00  0.00    +0.000 C 
ENDBRANCH   9  16
ENDBRANCH   1   2
BRANCH   1  18
ATOM     18  C   UNL     1      -0.025   8.488  21.429  0.00  0.00    +0.000 C 
BRANCH  18  19
ATOM     19  C   UNL     1      -0.599   9.822  20.873  0.00  0.00    +0.000 C 
BRANCH  19  20
ATOM     20  N   UNL     1      -0.182  11.059  21.602  0.00  0.00    +0.000 NA
ATOM     21  C   UNL     1      -1.055  11.189  22.790  0.00  0.00    +0.000 C 
BRANCH  20  22
ATOM     22  C   UNL     1      -0.292  12.263  20.734  0.00  0.00    +0.000 C 
BRANCH  22  23
ATOM     23  C   UNL     1      -0.577  11.991  19.229  0.00  0.00    +0.000 C 
BRANCH  23  27
ATOM     24  C   UNL     1      -4.792  11.590  18.185  0.00  0.00    +0.000 A 
ATOM     25  C   UNL     1      -3.774  11.016  17.385  0.00  0.00    +0.000 A 
ATOM     26  C   UNL     1      -2.424  11.150  17.720  0.00  0.00    +0.000 A 
ATOM     27  C   UNL     1      -2.044  11.862  18.850  0.00  0.00    +0.000 A 
ATOM     28  C   UNL     1      -3.036  12.443  19.654  0.00  0.00    +0.000 A 
ATOM     29  C   UNL     1      -4.401  12.315  19.348  0.00  0.00    +0.000 A 
BRANCH  24  31
ATOM     30  C   UNL     1      -7.046  12.458  17.608  0.00  0.00    +0.000 C 
ATOM     31  O   UNL     1      -6.114  11.464  17.871  0.00  0.00    +0.000 OA
ENDBRANCH  24  31
BRANCH  29  32
ATOM     32  O   UNL     1      -5.266  12.901  20.225  0.00  0.00    +0.000 OA
ATOM     33  C   UNL     1      -5.605  12.515  21.502  0.00  0.00    +0.000 C 
ENDBRANCH  29  32
ENDBRANCH  23  27
ENDBRANCH  22  23
ENDBRANCH  20  22
ENDBRANCH  19  20
ENDBRANCH  18  19
ENDBRANCH   1  18
TORSDOF 11
ENDMDL
MODEL 7
REMARK VINA RESULT:      -6.4      3.025     10.519
REMARK  Name = 
REMARK  16 active torsions:
REMARK  status: ('A' for Active; 'I' for Inactive)
REMARK    1  A    between atoms: C_1  and  O_2
REMARK    2  A    between atoms: O_2  and  C_3
REMARK    3  A    between atoms: C_6  and  C_7
REMARK    4  A    between atoms: C_7  and  C_8
REMARK    5  A    between atoms: C_8  and  N_9
REMARK    6  A    between atoms: N_9  and  C_10
REMARK    7  A    between atoms: N_9  and  C_11
REMARK    8  A    between atoms: C_11  and  C_12
REMARK    9  A    between atoms: C_12  and  C_13
REMARK   10  A    between atoms: C_13  and  N_14
REMARK   11  A    between atoms: C_18  and  O_19
REMARK   12  A    between atoms: O_19  and  C_20
REMARK   13  A    between atoms: C_23  and  O_24
REMARK   14  A    between atoms: O_24  and  C_25
REMARK   15  A    between atoms: C_31  and  O_32
REMARK   16  A    between atoms: O_32  and  C_33
REMARK                            x       y       z     vdW  Elec       q    Type
REMARK                         _______ _______ _______ _____ _____    ______ ____
ROOT
ATOM      1  C   UNL     1       0.659  10.698  18.613  0.00  0.00    +0.000 C 
ENDROOT
BRANCH   1   2
ATOM      2  N   UNL     1       1.173   9.353  18.921  0.00  0.00    +0.000 N 
ATOM      3  C   UNL     1       1.657   8.571  17.815  0.00  0.00    +0.000 C 
ATOM      4  C   UNL     1       3.112   8.181  18.091  0.00  0.00    +0.000 C 
ATOM      5  C   UNL     1       3.062   6.748  18.494  0.00  0.00    +0.000 A 
ATOM      6  C   UNL     1       3.681   5.796  17.648  0.00  0.00    +0.000 A 
ATOM      7  C   UNL     1       3.558   4.440  17.942  0.00  0.00    +0.000 A 
ATOM      8  C   UNL     1       2.852   4.031  19.056  0.00  0.00    +0.000 A 
ATOM      9  C   UNL     1       2.248   4.942  19.932  0.00  0.00    +0.000 A 
ATOM     10  C   UNL     1       2.330   6.360  19.659  0.00  0.00    +0.000 A 
ATOM     11  C   UNL     1       1.699   7.426  20.601  0.00  0.00    +0.000 C 
ATOM     12  C   UNL     1       1.240   8.856  20.205  0.00  0.00    +0.000 C 
ATOM     13  O   UNL     1       0.867   9.562  21.132  0.00  0.00    +0.000 OA
BRANCH   6  14
ATOM     14  O   UNL     1       4.373   6.217  16.550  0.00  0.00    +0.000 OA
ATOM     15  C   UNL     1       5.717   6.024  16.302  0.00  0.00    +0.000 C 
ENDBRANCH   6  14
BRANCH   9  16
ATOM     16  O   UNL     1       1.619   4.326  20.973  0.00  0.00    +0.000 OA
ATOM     17  C   UNL     1       1.708   3.067  21.511  0.00  0.00    +0.000 C 
ENDBRANCH   9  16
ENDBRANCH   1   2
BRANCH   1  18
ATOM     18  C   UNL     1       1.797  11.763  18.550  0.00  0.00    +0.000 C 
BRANCH  18  19
ATOM     19  C   UNL     1       1.517  12.937  19.529  0.00  0.00    +0.000 C 
BRANCH  19  20
ATOM     20  N   UNL     1       0.146  12.971  20.125  0.00  0.00    +0.000 NA
ATOM     21  C   UNL     1      -0.603  14.056  19.451  0.00  0.00    +0.000 C 
BRANCH  20  22
ATOM     22  C   UNL     1       0.199  13.203  21.594  0.00  0.00    +0.000 C 
BRANCH  22  23
ATOM     23  C   UNL     1      -0.725  12.295  22.457  0.00  0.00    +0.000 C 
BRANCH  23  27
ATOM     24  C   UNL     1      -4.506  14.104  23.659  0.00  0.00    +0.000 A 
ATOM     25  C   UNL     1      -3.264  14.628  24.094  0.00  0.00    +0.000 A 
ATOM     26  C   UNL     1      -2.055  14.042  23.711  0.00  0.00    +0.000 A 
ATOM     27  C   UNL     1      -2.040  12.920  22.894  0.00  0.00    +0.000 A 
ATOM     28  C   UNL     1      -3.259  12.382  22.454  0.00  0.00    +0.000 A 
ATOM     29  C   UNL     1      -4.490  12.956  22.814  0.00  0.00    +0.000 A 
BRANCH  24  31
ATOM     30  C   UNL     1      -6.285  15.834  23.555  0.00  0.00    +0.000 C 
ATOM     31  O   UNL     1      -5.694  14.668  24.022  0.00  0.00    +0.000 OA
ENDBRANCH  24  31
BRANCH  29  32
ATOM     32  O   UNL     1      -5.601  12.357  22.298  0.00  0.00    +0.000 OA
ATOM     33  C   UNL     1      -6.065  12.353  21.001  0.00  0.00    +0.000 C 
ENDBRANCH  29  32
ENDBRANCH  23  27
ENDBRANCH  22  23
ENDBRANCH  20  22
ENDBRANCH  19  20
ENDBRANCH  18  19
ENDBRANCH   1  18
TORSDOF 11
ENDMDL
MODEL 8
REMARK VINA RESULT:      -6.4      2.112      9.282
REMARK  Name = 
REMARK  16 active torsions:
REMARK  status: ('A' for Active; 'I' for Inactive)
REMARK    1  A    between atoms: C_1  and  O_2
REMARK    2  A    between atoms: O_2  and  C_3
REMARK    3  A    between atoms: C_6  and  C_7
REMARK    4  A    between atoms: C_7  and  C_8
REMARK    5  A    between atoms: C_8  and  N_9
REMARK    6  A    between atoms: N_9  and  C_10
REMARK    7  A    between atoms: N_9  and  C_11
REMARK    8  A    between atoms: C_11  and  C_12
REMARK    9  A    between atoms: C_12  and  C_13
REMARK   10  A    between atoms: C_13  and  N_14
REMARK   11  A    between atoms: C_18  and  O_19
REMARK   12  A    between atoms: O_19  and  C_20
REMARK   13  A    between atoms: C_23  and  O_24
REMARK   14  A    between atoms: O_24  and  C_25
REMARK   15  A    between atoms: C_31  and  O_32
REMARK   16  A    between atoms: O_32  and  C_33
REMARK                            x       y       z     vdW  Elec       q    Type
REMARK                         _______ _______ _______ _____ _____    ______ ____
ROOT
ATOM      1  C   UNL     1       1.852   5.904  20.118  0.00  0.00    +0.000 C 
ENDROOT
BRANCH   1   2
ATOM      2  N   UNL     1       2.782   5.429  19.080  0.00  0.00    +0.000 N 
ATOM      3  C   UNL     1       4.158   5.827  19.206  0.00  0.00    +0.000 C 
ATOM      4  C   UNL     1       5.029   4.569  19.255  0.00  0.00    +0.000 C 
ATOM      5  C   UNL     1       5.653   4.473  17.906  0.00  0.00    +0.000 A 
ATOM      6  C   UNL     1       7.059   4.616  17.810  0.00  0.00    +0.000 A 
ATOM      7  C   UNL     1       7.658   4.639  16.553  0.00  0.00    +0.000 A 
ATOM      8  C   UNL     1       6.889   4.508  15.414  0.00  0.00    +0.000 A 
ATOM      9  C   UNL     1       5.501   4.337  15.467  0.00  0.00    +0.000 A 
ATOM     10  C   UNL     1       4.828   4.327  16.747  0.00  0.00    +0.000 A 
ATOM     11  C   UNL     1       3.292   4.122  16.879  0.00  0.00    +0.000 C 
ATOM     12  C   UNL     1       2.389   4.604  18.047  0.00  0.00    +0.000 C 
ATOM     13  O   UNL     1       1.223   4.241  17.993  0.00  0.00    +0.000 OA
BRANCH   6  14
ATOM     14  O   UNL     1       7.803   4.747  18.946  0.00  0.00    +0.000 OA
ATOM     15  C   UNL     1       8.190   5.930  19.542  0.00  0.00    +0.000 C 
ENDBRANCH   6  14
BRANCH   9  16
ATOM     16  O   UNL     1       4.942   4.211  14.229  0.00  0.00    +0.000 OA
ATOM     17  C   UNL     1       5.436   3.811  13.013  0.00  0.00    +0.000 C 
ENDBRANCH   9  16
ENDBRANCH   1   2
BRANCH   1  18
ATOM     18  C   UNL     1       1.386   7.371  19.864  0.00  0.00    +0.000 C 
BRANCH  18  19
ATOM     19  C   UNL     1       1.851   8.310  21.013  0.00  0.00    +0.000 C 
BRANCH  19  20
ATOM     20  N   UNL     1       0.827   9.279  21.512  0.00  0.00    +0.000 NA
ATOM     21  C   UNL     1      -0.451   8.543  21.646  0.00  0.00    +0.000 C 
BRANCH  20  22
ATOM     22  C   UNL     1       0.674  10.433  20.585  0.00  0.00    +0.000 C 
BRANCH  22  23
ATOM     23  C   UNL     1      -0.735  11.091  20.549  0.00  0.00    +0.000 C 
BRANCH  23  27
ATOM     24  C   UNL     1      -3.000  10.535  16.864  0.00  0.00    +0.000 A 
ATOM     25  C   UNL     1      -1.660  10.091  16.983  0.00  0.00    +0.000 A 
ATOM     26  C   UNL     1      -0.936  10.276  18.164  0.00  0.00    +0.000 A 
ATOM     27  C   UNL     1      -1.513  10.910  19.256  0.00  0.00    +0.000 A 
ATOM     28  C   UNL     1      -2.839  11.361  19.158  0.00  0.00    +0.000 A 
ATOM     29  C   UNL     1      -3.594  11.179  17.988  0.00  0.00    +0.000 A 
BRANCH  24  31
ATOM     30  C   UNL     1      -3.262  10.204  14.417  0.00  0.00    +0.000 C 
ATOM     31  O   UNL     1      -3.719  10.358  15.718  0.00  0.00    +0.000 OA
ENDBRANCH  24  31
BRANCH  29  32
ATOM     32  O   UNL     1      -4.878  11.636  18.031  0.00  0.00    +0.000 OA
ATOM     33  C   UNL     1      -5.404  12.692  18.742  0.00  0.00    +0.000 C 
ENDBRANCH  29  32
ENDBRANCH  23  27
ENDBRANCH  22  23
ENDBRANCH  20  22
ENDBRANCH  19  20
ENDBRANCH  18  19
ENDBRANCH   1  18
TORSDOF 11
ENDMDL
MODEL 9
REMARK VINA RESULT:      -6.4      1.268      1.858
REMARK  Name = 
REMARK  16 active torsions:
REMARK  status: ('A' for Active; 'I' for Inactive)
REMARK    1  A    between atoms: C_1  and  O_2
REMARK    2  A    between atoms: O_2  and  C_3
REMARK    3  A    between atoms: C_6  and  C_7
REMARK    4  A    between atoms: C_7  and  C_8
REMARK    5  A    between atoms: C_8  and  N_9
REMARK    6  A    between atoms: N_9  and  C_10
REMARK    7  A    between atoms: N_9  and  C_11
REMARK    8  A    between atoms: C_11  and  C_12
REMARK    9  A    between atoms: C_12  and  C_13
REMARK   10  A    between atoms: C_13  and  N_14
REMARK   11  A    between atoms: C_18  and  O_19
REMARK   12  A    between atoms: O_19  and  C_20
REMARK   13  A    between atoms: C_23  and  O_24
REMARK   14  A    between atoms: O_24  and  C_25
REMARK   15  A    between atoms: C_31  and  O_32
REMARK   16  A    between atoms: O_32  and  C_33
REMARK                            x       y       z     vdW  Elec       q    Type
REMARK                         _______ _______ _______ _____ _____    ______ ____
ROOT
ATOM      1  C   UNL     1       2.085   7.533  20.833  0.00  0.00    +0.000 C 
ENDROOT
BRANCH   1   2
ATOM      2  N   UNL     1       1.203   8.499  20.156  0.00  0.00    +0.000 N 
ATOM      3  C   UNL     1       0.185   9.124  20.957  0.00  0.00    +0.000 C 
ATOM      4  C   UNL     1       0.366  10.643  20.881  0.00  0.00    +0.000 C 
ATOM      5  C   UNL     1      -0.705  11.118  19.961  0.00  0.00    +0.000 A 
ATOM      6  C   UNL     1      -1.719  11.950  20.493  0.00  0.00    +0.000 A 
ATOM      7  C   UNL     1      -2.791  12.322  19.684  0.00  0.00    +0.000 A 
ATOM      8  C   UNL     1      -2.853  11.894  18.373  0.00  0.00    +0.000 A 
ATOM      9  C   UNL     1      -1.857  11.093  17.801  0.00  0.00    +0.000 A 
ATOM     10  C   UNL     1      -0.734  10.664  18.606  0.00  0.00    +0.000 A 
ATOM     11  C   UNL     1       0.418   9.791  18.029  0.00  0.00    +0.000 C 
ATOM     12  C   UNL     1       1.349   8.840  18.829  0.00  0.00    +0.000 C 
ATOM     13  O   UNL     1       2.255   8.330  18.185  0.00  0.00    +0.000 OA
BRANCH   6  14
ATOM     14  O   UNL     1      -1.643  12.361  21.792  0.00  0.00    +0.000 OA
ATOM     15  C   UNL     1      -2.646  12.285  22.738  0.00  0.00    +0.000 C 
ENDBRANCH   6  14
BRANCH   9  16
ATOM     16  O   UNL     1      -2.107  10.803  16.493  0.00  0.00    +0.000 OA
ATOM     17  C   UNL     1      -3.237  10.866  15.717  0.00  0.00    +0.000 C 
ENDBRANCH   9  16
ENDBRANCH   1   2
BRANCH   1  18
ATOM     18  C   UNL     1       1.606   6.062  20.639  0.00  0.00    +0.000 C 
BRANCH  18  19
ATOM     19  C   UNL     1       2.742   5.178  20.051  0.00  0.00    +0.000 C 
BRANCH  19  20
ATOM     20  N   UNL     1       2.302   4.092  19.121  0.00  0.00    +0.000 NA
ATOM     21  C   UNL     1       1.046   3.526  19.664  0.00  0.00    +0.000 C 
BRANCH  20  22
ATOM     22  C   UNL     1       3.342   3.036  18.990  0.00  0.00    +0.000 C 
BRANCH  22  23
ATOM     23  C   UNL     1       4.213   3.098  17.702  0.00  0.00    +0.000 C 
BRANCH  23  27
ATOM     24  C   UNL     1       6.381   6.838  17.129  0.00  0.00    +0.000 A 
ATOM     25  C   UNL     1       5.313   6.464  16.277  0.00  0.00    +0.000 A 
ATOM     26  C   UNL     1       4.625   5.262  16.460  0.00  0.00    +0.000 A 
ATOM     27  C   UNL     1       4.976   4.395  17.486  0.00  0.00    +0.000 A 
ATOM     28  C   UNL     1       6.033   4.745  18.340  0.00  0.00    +0.000 A 
ATOM     29  C   UNL     1       6.737   5.951  18.187  0.00  0.00    +0.000 A 
BRANCH  24  31
ATOM     30  C   UNL     1       8.068   8.552  17.749  0.00  0.00    +0.000 C 
ATOM     31  O   UNL     1       7.060   8.010  16.964  0.00  0.00    +0.000 OA
ENDBRANCH  24  31
BRANCH  29  32
ATOM     32  O   UNL     1       7.723   6.186  19.099  0.00  0.00    +0.000 OA
ATOM     33  C   UNL     1       8.210   5.360  20.087  0.00  0.00    +0.000 C 
ENDBRANCH  29  32
ENDBRANCH  23  27
ENDBRANCH  22  23
ENDBRANCH  20  22
ENDBRANCH  19  20
ENDBRANCH  18  19
ENDBRANCH   1  18
TORSDOF 11
ENDMDL
