MODEL 1
REMARK VINA RESULT:      -7.3      0.000      0.000
REMARK  Name = 
REMARK  5 active torsions:
REMARK  status: ('A' for Active; 'I' for Inactive)
REMARK    1  A    between atoms: C_1  and  C_2
REMARK    2  A    between atoms: C_5  and  C_6
REMARK    3  A    between atoms: C_7  and  C_8
REMARK    4  A    between atoms: C_8  and  N_9
REMARK    5  A    between atoms: C_16  and  C_17
REMARK                            x       y       z     vdW  Elec       q    Type
REMARK                         _______ _______ _______ _____ _____    ______ ____
ROOT
ATOM      1  N   UNL     1       4.426   6.816  17.414  0.00  0.00    +0.000 NA
ATOM      2  C   UNL     1       4.176   6.074  18.666  0.00  0.00    +0.000 C 
ATOM      3  C   UNL     1       2.721   5.704  18.961  0.00  0.00    +0.000 C 
ATOM      4  C   UNL     1       2.002   6.837  19.646  0.00  0.00    +0.000 A 
ATOM      5  N   UNL     1       1.632   6.608  20.920  0.00  0.00    +0.000 NA
ATOM      6  C   UNL     1       1.027   7.613  21.548  0.00  0.00    +0.000 A 
ATOM      7  N   UNL     1       0.805   8.825  21.034  0.00  0.00    +0.000 NA
ATOM      8  C   UNL     1       1.168   9.048  19.746  0.00  0.00    +0.000 A 
ATOM      9  C   UNL     1       1.777   8.044  18.983  0.00  0.00    +0.000 A 
ATOM     10  C   UNL     1       2.128   8.098  17.519  0.00  0.00    +0.000 C 
ATOM     11  C   UNL     1       3.644   8.056  17.209  0.00  0.00    +0.000 C 
ENDROOT
BRANCH   8  12
ATOM     12  C   UNL     1       0.792  10.419  19.296  0.00  0.00    +0.000 A 
ATOM     13  C   UNL     1       1.695  11.491  19.205  0.00  0.00    +0.000 A 
ATOM     14  C   UNL     1       1.295  12.745  18.723  0.00  0.00    +0.000 A 
ATOM     15  C   UNL     1      -0.032  12.966  18.385  0.00  0.00    +0.000 A 
ATOM     16  F   UNL     1      -0.409  14.166  17.924  0.00  0.00    +0.000 F 
ATOM     17  C   UNL     1      -0.972  11.961  18.531  0.00  0.00    +0.000 A 
ATOM     18  C   UNL     1      -0.561  10.702  18.978  0.00  0.00    +0.000 A 
ENDBRANCH   8  12
BRANCH   1  19
ATOM     19  C   UNL     1       5.875   7.149  17.307  0.00  0.00    +0.000 C 
BRANCH  19  26
ATOM     20  C   UNL     1       7.869   5.800  19.497  0.00  0.00    +0.000 C 
ATOM     21  C   UNL     1       7.589   5.342  18.118  0.00  0.00    +0.000 A 
ATOM     22  N   UNL     1       8.161   4.226  17.653  0.00  0.00    +0.000 NA
ATOM     23  O   UNL     1       7.695   4.073  16.366  0.00  0.00    +0.000 OA
ATOM     24  C   UNL     1       6.845   5.089  16.063  0.00  0.00    +0.000 A 
ATOM     25  C   UNL     1       6.252   5.034  14.711  0.00  0.00    +0.000 C 
ATOM     26  C   UNL     1       6.732   5.938  17.150  0.00  0.00    +0.000 A 
ENDBRANCH  19  26
ENDBRANCH   1  19
TORSDOF 3
ENDMDL
MODEL 2
REMARK VINA RESULT:      -7.3      3.921      7.916
REMARK  Name = 
REMARK  5 active torsions:
REMARK  status: ('A' for Active; 'I' for Inactive)
REMARK    1  A    between atoms: C_1  and  C_2
REMARK    2  A    between atoms: C_5  and  C_6
REMARK    3  A    between atoms: C_7  and  C_8
REMARK    4  A    between atoms: C_8  and  N_9
REMARK    5  A    between atoms: C_16  and  C_17
REMARK                            x       y       z     vdW  Elec       q    Type
REMARK                         _______ _______ _______ _____ _____    ______ ____
ROOT
ATOM      1  N   UNL     1       1.935   7.041  20.218  0.00  0.00    +0.000 NA
ATOM      2  C   UNL     1       1.324   5.748  20.583  0.00  0.00    +0.000 C 
ATOM      3  C   UNL     1       2.275   4.666  21.101  0.00  0.00    +0.000 C 
ATOM      4  C   UNL     1       2.895   3.900  19.962  0.00  0.00    +0.000 A 
ATOM      5  N   UNL     1       2.530   2.607  19.862  0.00  0.00    +0.000 NA
ATOM      6  C   UNL     1       3.044   1.929  18.839  0.00  0.00    +0.000 A 
ATOM      7  N   UNL     1       3.842   2.435  17.897  0.00  0.00    +0.000 NA
ATOM      8  C   UNL     1       4.218   3.734  18.009  0.00  0.00    +0.000 A 
ATOM      9  C   UNL     1       3.765   4.527  19.069  0.00  0.00    +0.000 A 
ATOM     10  C   UNL     1       4.180   5.939  19.395  0.00  0.00    +0.000 C 
ATOM     11  C   UNL     1       3.060   6.997  19.257  0.00  0.00    +0.000 C 
ENDROOT
BRANCH   8  12
ATOM     12  C   UNL     1       5.162   4.131  16.925  0.00  0.00    +0.000 A 
ATOM     13  C   UNL     1       6.497   4.507  17.146  0.00  0.00    +0.000 A 
ATOM     14  C   UNL     1       7.355   4.819  16.081  0.00  0.00    +0.000 A 
ATOM     15  C   UNL     1       6.871   4.824  14.781  0.00  0.00    +0.000 A 
ATOM     16  F   UNL     1       7.695   5.122  13.768  0.00  0.00    +0.000 F 
ATOM     17  C   UNL     1       5.543   4.535  14.524  0.00  0.00    +0.000 A 
ATOM     18  C   UNL     1       4.701   4.190  15.585  0.00  0.00    +0.000 A 
ENDBRANCH   8  12
BRANCH   1  19
ATOM     19  C   UNL     1       0.890   7.958  19.679  0.00  0.00    +0.000 C 
BRANCH  19  26
ATOM     20  C   UNL     1       1.769  10.706  18.174  0.00  0.00    +0.000 C 
ATOM     21  C   UNL     1       1.350  10.535  19.584  0.00  0.00    +0.000 A 
ATOM     22  N   UNL     1       1.265  11.597  20.391  0.00  0.00    +0.000 NA
ATOM     23  O   UNL     1       0.845  11.110  21.609  0.00  0.00    +0.000 OA
ATOM     24  C   UNL     1       0.675   9.764  21.530  0.00  0.00    +0.000 A 
ATOM     25  C   UNL     1       0.203   9.114  22.770  0.00  0.00    +0.000 C 
ATOM     26  C   UNL     1       0.982   9.333  20.252  0.00  0.00    +0.000 A 
ENDBRANCH  19  26
ENDBRANCH   1  19
TORSDOF 3
ENDMDL
MODEL 3
REMARK VINA RESULT:      -7.2      1.666      2.300
REMARK  Name = 
REMARK  5 active torsions:
REMARK  status: ('A' for Active; 'I' for Inactive)
REMARK    1  A    between atoms: C_1  and  C_2
REMARK    2  A    between atoms: C_5  and  C_6
REMARK    3  A    between atoms: C_7  and  C_8
REMARK    4  A    between atoms: C_8  and  N_9
REMARK    5  A    between atoms: C_16  and  C_17
REMARK                            x       y       z     vdW  Elec       q    Type
REMARK                         _______ _______ _______ _____ _____    ______ ____
ROOT
ATOM      1  N   UNL     1       4.567   6.606  16.829  0.00  0.00    +0.000 NA
ATOM      2  C   UNL     1       4.420   5.268  17.435  0.00  0.00    +0.000 C 
ATOM      3  C   UNL     1       2.992   4.731  17.566  0.00  0.00    +0.000 C 
ATOM      4  C   UNL     1       2.341   5.229  18.830  0.00  0.00    +0.000 A 
ATOM      5  N   UNL     1       2.078   4.290  19.759  0.00  0.00    +0.000 NA
ATOM      6  C   UNL     1       1.534   4.722  20.894  0.00  0.00    +0.000 A 
ATOM      7  N   UNL     1       1.276   5.996  21.194  0.00  0.00    +0.000 NA
ATOM      8  C   UNL     1       1.530   6.938  20.250  0.00  0.00    +0.000 A 
ATOM      9  C   UNL     1       2.067   6.586  19.006  0.00  0.00    +0.000 A 
ATOM     10  C   UNL     1       2.294   7.490  17.821  0.00  0.00    +0.000 C 
ATOM     11  C   UNL     1       3.777   7.701  17.437  0.00  0.00    +0.000 C 
ENDROOT
BRANCH   8  12
ATOM     12  C   UNL     1       1.125   8.299  20.704  0.00  0.00    +0.000 A 
ATOM     13  C   UNL     1       1.146   9.439  19.885  0.00  0.00    +0.000 A 
ATOM     14  C   UNL     1       0.702  10.685  20.353  0.00  0.00    +0.000 A 
ATOM     15  C   UNL     1       0.291  10.823  21.670  0.00  0.00    +0.000 A 
ATOM     16  F   UNL     1      -0.133  12.014  22.111  0.00  0.00    +0.000 F 
ATOM     17  C   UNL     1       0.327   9.744  22.535  0.00  0.00    +0.000 A 
ATOM     18  C   UNL     1       0.736   8.497  22.054  0.00  0.00    +0.000 A 
ENDBRANCH   8  12
BRANCH   1  19
ATOM     19  C   UNL     1       6.004   7.004  16.831  0.00  0.00    +0.000 C 
BRANCH  19  26
ATOM     20  C   UNL     1       7.623   5.874  19.418  0.00  0.00    +0.000 C 
ATOM     21  C   UNL     1       7.615   5.330  18.041  0.00  0.00    +0.000 A 
ATOM     22  N   UNL     1       8.306   4.223  17.755  0.00  0.00    +0.000 NA
ATOM     23  O   UNL     1       8.087   3.978  16.417  0.00  0.00    +0.000 OA
ATOM     24  C   UNL     1       7.264   4.933  15.906  0.00  0.00    +0.000 A 
ATOM     25  C   UNL     1       6.928   4.777  14.477  0.00  0.00    +0.000 C 
ATOM     26  C   UNL     1       6.924   5.831  16.902  0.00  0.00    +0.000 A 
ENDBRANCH  19  26
ENDBRANCH   1  19
TORSDOF 3
ENDMDL
MODEL 4
REMARK VINA RESULT:      -7.2      0.435      1.600
REMARK  Name = 
REMARK  5 active torsions:
REMARK  status: ('A' for Active; 'I' for Inactive)
REMARK    1  A    between atoms: C_1  and  C_2
REMARK    2  A    between atoms: C_5  and  C_6
REMARK    3  A    between atoms: C_7  and  C_8
REMARK    4  A    between atoms: C_8  and  N_9
REMARK    5  A    between atoms: C_16  and  C_17
REMARK                            x       y       z     vdW  Elec       q    Type
REMARK                         _______ _______ _______ _____ _____    ______ ____
ROOT
ATOM      1  N   UNL     1       4.337   6.866  17.443  0.00  0.00    +0.000 NA
ATOM      2  C   UNL     1       4.091   6.145  18.707  0.00  0.00    +0.000 C 
ATOM      3  C   UNL     1       2.632   5.812  19.030  0.00  0.00    +0.000 C 
ATOM      4  C   UNL     1       1.951   6.970  19.713  0.00  0.00    +0.000 A 
ATOM      5  N   UNL     1       1.596   6.764  20.995  0.00  0.00    +0.000 NA
ATOM      6  C   UNL     1       1.025   7.790  21.620  0.00  0.00    +0.000 A 
ATOM      7  N   UNL     1       0.822   9.001  21.096  0.00  0.00    +0.000 NA
ATOM      8  C   UNL     1       1.169   9.200  19.799  0.00  0.00    +0.000 A 
ATOM      9  C   UNL     1       1.743   8.174  19.039  0.00  0.00    +0.000 A 
ATOM     10  C   UNL     1       2.072   8.203  17.568  0.00  0.00    +0.000 C 
ATOM     11  C   UNL     1       3.581   8.122  17.236  0.00  0.00    +0.000 C 
ENDROOT
BRANCH   8  12
ATOM     12  C   UNL     1       0.818  10.575  19.338  0.00  0.00    +0.000 A 
ATOM     13  C   UNL     1       1.763  11.542  18.959  0.00  0.00    +0.000 A 
ATOM     14  C   UNL     1       1.371  12.801  18.483  0.00  0.00    +0.000 A 
ATOM     15  C   UNL     1       0.025  13.136  18.439  0.00  0.00    +0.000 A 
ATOM     16  F   UNL     1      -0.344  14.340  17.982  0.00  0.00    +0.000 F 
ATOM     17  C   UNL     1      -0.937  12.243  18.875  0.00  0.00    +0.000 A 
ATOM     18  C   UNL     1      -0.542  10.976  19.315  0.00  0.00    +0.000 A 
ENDBRANCH   8  12
BRANCH   1  19
ATOM     19  C   UNL     1       5.792   7.165  17.310  0.00  0.00    +0.000 C 
BRANCH  19  26
ATOM     20  C   UNL     1       5.967   5.166  14.748  0.00  0.00    +0.000 C 
ATOM     21  C   UNL     1       6.705   5.071  16.028  0.00  0.00    +0.000 A 
ATOM     22  N   UNL     1       7.595   4.092  16.217  0.00  0.00    +0.000 NA
ATOM     23  O   UNL     1       8.106   4.288  17.481  0.00  0.00    +0.000 OA
ATOM     24  C   UNL     1       7.528   5.382  18.044  0.00  0.00    +0.000 A 
ATOM     25  C   UNL     1       8.005   5.720  19.401  0.00  0.00    +0.000 C 
ATOM     26  C   UNL     1       6.619   5.932  17.159  0.00  0.00    +0.000 A 
ENDBRANCH  19  26
ENDBRANCH   1  19
TORSDOF 3
ENDMDL
MODEL 5
REMARK VINA RESULT:      -7.1      3.854      7.839
REMARK  Name = 
REMARK  5 active torsions:
REMARK  status: ('A' for Active; 'I' for Inactive)
REMARK    1  A    between atoms: C_1  and  C_2
REMARK    2  A    between atoms: C_5  and  C_6
REMARK    3  A    between atoms: C_7  and  C_8
REMARK    4  A    between atoms: C_8  and  N_9
REMARK    5  A    between atoms: C_16  and  C_17
REMARK                            x       y       z     vdW  Elec       q    Type
REMARK                         _______ _______ _______ _____ _____    ______ ____
ROOT
ATOM      1  N   UNL     1       1.922   7.096  20.148  0.00  0.00    +0.000 NA
ATOM      2  C   UNL     1       1.330   5.813  20.572  0.00  0.00    +0.000 C 
ATOM      3  C   UNL     1       2.299   4.757  21.110  0.00  0.00    +0.000 C 
ATOM      4  C   UNL     1       2.902   3.954  19.987  0.00  0.00    +0.000 A 
ATOM      5  N   UNL     1       2.547   2.656  19.941  0.00  0.00    +0.000 NA
ATOM      6  C   UNL     1       3.045   1.945  18.934  0.00  0.00    +0.000 A 
ATOM      7  N   UNL     1       3.820   2.421  17.958  0.00  0.00    +0.000 NA
ATOM      8  C   UNL     1       4.187   3.727  18.014  0.00  0.00    +0.000 A 
ATOM      9  C   UNL     1       3.749   4.555  19.054  0.00  0.00    +0.000 A 
ATOM     10  C   UNL     1       4.159   5.981  19.319  0.00  0.00    +0.000 C 
ATOM     11  C   UNL     1       3.028   7.025  19.166  0.00  0.00    +0.000 C 
ENDROOT
BRANCH   8  12
ATOM     12  C   UNL     1       5.106   4.091  16.898  0.00  0.00    +0.000 A 
ATOM     13  C   UNL     1       4.739   4.079  15.542  0.00  0.00    +0.000 A 
ATOM     14  C   UNL     1       5.631   4.484  14.539  0.00  0.00    +0.000 A 
ATOM     15  C   UNL     1       6.928   4.846  14.871  0.00  0.00    +0.000 A 
ATOM     16  F   UNL     1       7.776   5.234  13.909  0.00  0.00    +0.000 F 
ATOM     17  C   UNL     1       7.357   4.800  16.186  0.00  0.00    +0.000 A 
ATOM     18  C   UNL     1       6.453   4.430  17.186  0.00  0.00    +0.000 A 
ENDBRANCH   8  12
BRANCH   1  19
ATOM     19  C   UNL     1       0.859   7.984  19.597  0.00  0.00    +0.000 C 
BRANCH  19  26
ATOM     20  C   UNL     1       0.127   9.031  22.590  0.00  0.00    +0.000 C 
ATOM     21  C   UNL     1       0.635   9.824  21.448  0.00  0.00    +0.000 A 
ATOM     22  N   UNL     1       0.881  11.130  21.595  0.00  0.00    +0.000 NA
ATOM     23  O   UNL     1       1.345  11.565  20.374  0.00  0.00    +0.000 OA
ATOM     24  C   UNL     1       1.382  10.523  19.500  0.00  0.00    +0.000 A 
ATOM     25  C   UNL     1       1.885  10.850  18.151  0.00  0.00    +0.000 C 
ATOM     26  C   UNL     1       0.939   9.375  20.132  0.00  0.00    +0.000 A 
ENDBRANCH  19  26
ENDBRANCH   1  19
TORSDOF 3
ENDMDL
MODEL 6
REMARK VINA RESULT:      -7.0      3.961      8.037
REMARK  Name = 
REMARK  5 active torsions:
REMARK  status: ('A' for Active; 'I' for Inactive)
REMARK    1  A    between atoms: C_1  and  C_2
REMARK    2  A    between atoms: C_5  and  C_6
REMARK    3  A    between atoms: C_7  and  C_8
REMARK    4  A    between atoms: C_8  and  N_9
REMARK    5  A    between atoms: C_16  and  C_17
REMARK                            x       y       z     vdW  Elec       q    Type
REMARK                         _______ _______ _______ _____ _____    ______ ____
ROOT
ATOM      1  N   UNL     1       2.694   7.731  18.776  0.00  0.00    +0.000 NA
ATOM      2  C   UNL     1       2.140   6.529  19.428  0.00  0.00    +0.000 C 
ATOM      3  C   UNL     1       3.152   5.527  19.989  0.00  0.00    +0.000 C 
ATOM      4  C   UNL     1       3.616   4.571  18.921  0.00  0.00    +0.000 A 
ATOM      5  N   UNL     1       3.244   3.288  19.086  0.00  0.00    +0.000 NA
ATOM      6  C   UNL     1       3.618   2.439  18.132  0.00  0.00    +0.000 A 
ATOM      7  N   UNL     1       4.282   2.766  17.021  0.00  0.00    +0.000 NA
ATOM      8  C   UNL     1       4.667   4.058  16.865  0.00  0.00    +0.000 A 
ATOM      9  C   UNL     1       4.358   5.024  17.829  0.00  0.00    +0.000 A 
ATOM     10  C   UNL     1       4.811   6.462  17.858  0.00  0.00    +0.000 C 
ATOM     11  C   UNL     1       3.681   7.506  17.695  0.00  0.00    +0.000 C 
ENDROOT
BRANCH   8  12
ATOM     12  C   UNL     1       5.458   4.252  15.616  0.00  0.00    +0.000 A 
ATOM     13  C   UNL     1       6.693   4.917  15.563  0.00  0.00    +0.000 A 
ATOM     14  C   UNL     1       7.418   5.022  14.367  0.00  0.00    +0.000 A 
ATOM     15  C   UNL     1       6.886   4.518  13.189  0.00  0.00    +0.000 A 
ATOM     16  F   UNL     1       7.582   4.620  12.050  0.00  0.00    +0.000 F 
ATOM     17  C   UNL     1       5.637   3.923  13.180  0.00  0.00    +0.000 A 
ATOM     18  C   UNL     1       4.935   3.789  14.381  0.00  0.00    +0.000 A 
ENDBRANCH   8  12
BRANCH   1  19
ATOM     19  C   UNL     1       1.585   8.568  18.234  0.00  0.00    +0.000 C 
BRANCH  19  26
ATOM     20  C   UNL     1       2.363  11.696  17.789  0.00  0.00    +0.000 C 
ATOM     21  C   UNL     1       1.590  11.100  18.903  0.00  0.00    +0.000 A 
ATOM     22  N   UNL     1       1.089  11.882  19.864  0.00  0.00    +0.000 NA
ATOM     23  O   UNL     1       0.426  11.038  20.727  0.00  0.00    +0.000 OA
ATOM     24  C   UNL     1       0.527   9.757  20.283  0.00  0.00    +0.000 A 
ATOM     25  C   UNL     1      -0.162   8.746  21.111  0.00  0.00    +0.000 C 
ATOM     26  C   UNL     1       1.263   9.730  19.112  0.00  0.00    +0.000 A 
ENDBRANCH  19  26
ENDBRANCH   1  19
TORSDOF 3
ENDMDL
MODEL 7
REMARK VINA RESULT:      -6.9      3.921      7.969
REMARK  Name = 
REMARK  5 active torsions:
REMARK  status: ('A' for Active; 'I' for Inactive)
REMARK    1  A    between atoms: C_1  and  C_2
REMARK    2  A    between atoms: C_5  and  C_6
REMARK    3  A    between atoms: C_7  and  C_8
REMARK    4  A    between atoms: C_8  and  N_9
REMARK    5  A    between atoms: C_16  and  C_17
REMARK                            x       y       z     vdW  Elec       q    Type
REMARK                         _______ _______ _______ _____ _____    ______ ____
ROOT
ATOM      1  N   UNL     1       2.689   7.818  18.694  0.00  0.00    +0.000 NA
ATOM      2  C   UNL     1       2.138   6.634  19.381  0.00  0.00    +0.000 C 
ATOM      3  C   UNL     1       3.155   5.649  19.965  0.00  0.00    +0.000 C 
ATOM      4  C   UNL     1       3.616   4.665  18.922  0.00  0.00    +0.000 A 
ATOM      5  N   UNL     1       3.246   3.386  19.123  0.00  0.00    +0.000 NA
ATOM      6  C   UNL     1       3.618   2.513  18.191  0.00  0.00    +0.000 A 
ATOM      7  N   UNL     1       4.277   2.810  17.069  0.00  0.00    +0.000 NA
ATOM      8  C   UNL     1       4.660   4.098  16.877  0.00  0.00    +0.000 A 
ATOM      9  C   UNL     1       4.353   5.090  17.815  0.00  0.00    +0.000 A 
ATOM     10  C   UNL     1       4.804   6.528  17.803  0.00  0.00    +0.000 C 
ATOM     11  C   UNL     1       3.671   7.565  17.617  0.00  0.00    +0.000 C 
ENDROOT
BRANCH   8  12
ATOM     12  C   UNL     1       5.445   4.259  15.619  0.00  0.00    +0.000 A 
ATOM     13  C   UNL     1       6.716   4.854  15.558  0.00  0.00    +0.000 A 
ATOM     14  C   UNL     1       7.431   4.929  14.354  0.00  0.00    +0.000 A 
ATOM     15  C   UNL     1       6.857   4.468  13.178  0.00  0.00    +0.000 A 
ATOM     16  F   UNL     1       7.545   4.541  12.031  0.00  0.00    +0.000 F 
ATOM     17  C   UNL     1       5.577   3.944  13.178  0.00  0.00    +0.000 A 
ATOM     18  C   UNL     1       4.883   3.839  14.387  0.00  0.00    +0.000 A 
ENDBRANCH   8  12
BRANCH   1  19
ATOM     19  C   UNL     1       1.576   8.638  18.135  0.00  0.00    +0.000 C 
BRANCH  19  26
ATOM     20  C   UNL     1      -0.125   8.774  20.906  0.00  0.00    +0.000 C 
ATOM     21  C   UNL     1       0.541   9.887  20.192  0.00  0.00    +0.000 A 
ATOM     22  N   UNL     1       0.513  11.122  20.702  0.00  0.00    +0.000 NA
ATOM     23  O   UNL     1       1.219  11.909  19.819  0.00  0.00    +0.000 OA
ATOM     24  C   UNL     1       1.672  11.147  18.788  0.00  0.00    +0.000 A 
ATOM     25  C   UNL     1       2.468  11.868  17.774  0.00  0.00    +0.000 C 
ATOM     26  C   UNL     1       1.270   9.836  18.970  0.00  0.00    +0.000 A 
ENDBRANCH  19  26
ENDBRANCH   1  19
TORSDOF 3
ENDMDL
MODEL 8
REMARK VINA RESULT:      -6.7      2.348      3.767
REMARK  Name = 
REMARK  5 active torsions:
REMARK  status: ('A' for Active; 'I' for Inactive)
REMARK    1  A    between atoms: C_1  and  C_2
REMARK    2  A    between atoms: C_5  and  C_6
REMARK    3  A    between atoms: C_7  and  C_8
REMARK    4  A    between atoms: C_8  and  N_9
REMARK    5  A    between atoms: C_16  and  C_17
REMARK                            x       y       z     vdW  Elec       q    Type
REMARK                         _______ _______ _______ _____ _____    ______ ____
ROOT
ATOM      1  N   UNL     1       4.253   2.958  16.772  0.00  0.00    +0.000 NA
ATOM      2  C   UNL     1       4.155   2.105  17.973  0.00  0.00    +0.000 C 
ATOM      3  C   UNL     1       2.761   1.941  18.582  0.00  0.00    +0.000 C 
ATOM      4  C   UNL     1       2.445   3.073  19.524  0.00  0.00    +0.000 A 
ATOM      5  N   UNL     1       2.335   2.737  20.824  0.00  0.00    +0.000 NA
ATOM      6  C   UNL     1       2.091   3.734  21.670  0.00  0.00    +0.000 A 
ATOM      7  N   UNL     1       1.994   5.024  21.342  0.00  0.00    +0.000 NA
ATOM      8  C   UNL     1       2.092   5.356  20.030  0.00  0.00    +0.000 A 
ATOM      9  C   UNL     1       2.310   4.379  19.052  0.00  0.00    +0.000 A 
ATOM     10  C   UNL     1       2.326   4.572  17.557  0.00  0.00    +0.000 C 
ATOM     11  C   UNL     1       3.696   4.325  16.881  0.00  0.00    +0.000 C 
ENDROOT
BRANCH   8  12
ATOM     12  C   UNL     1       1.893   6.819  19.814  0.00  0.00    +0.000 A 
ATOM     13  C   UNL     1       2.275   7.500  18.647  0.00  0.00    +0.000 A 
ATOM     14  C   UNL     1       2.013   8.867  18.479  0.00  0.00    +0.000 A 
ATOM     15  C   UNL     1       1.422   9.590  19.505  0.00  0.00    +0.000 A 
ATOM     16  F   UNL     1       1.173  10.896  19.339  0.00  0.00    +0.000 F 
ATOM     17  C   UNL     1       1.099   8.976  20.702  0.00  0.00    +0.000 A 
ATOM     18  C   UNL     1       1.329   7.606  20.851  0.00  0.00    +0.000 A 
ENDBRANCH   8  12
BRANCH   1  19
ATOM     19  C   UNL     1       5.677   3.062  16.343  0.00  0.00    +0.000 C 
BRANCH  19  26
ATOM     20  C   UNL     1       6.985   5.145  14.212  0.00  0.00    +0.000 C 
ATOM     21  C   UNL     1       6.814   5.324  15.671  0.00  0.00    +0.000 A 
ATOM     22  N   UNL     1       7.188   6.467  16.254  0.00  0.00    +0.000 NA
ATOM     23  O   UNL     1       6.891   6.322  17.591  0.00  0.00    +0.000 OA
ATOM     24  C   UNL     1       6.339   5.099  17.807  0.00  0.00    +0.000 A 
ATOM     25  C   UNL     1       5.951   4.820  19.205  0.00  0.00    +0.000 C 
ATOM     26  C   UNL     1       6.260   4.409  16.611  0.00  0.00    +0.000 A 
ENDBRANCH  19  26
ENDBRANCH   1  19
TORSDOF 3
ENDMDL
MODEL 9
REMARK VINA RESULT:      -6.6      2.369      3.537
REMARK  Name = 
REMARK  5 active torsions:
REMARK  status: ('A' for Active; 'I' for Inactive)
REMARK    1  A    between atoms: C_1  and  C_2
REMARK    2  A    between atoms: C_5  and  C_6
REMARK    3  A    between atoms: C_7  and  C_8
REMARK    4  A    between atoms: C_8  and  N_9
REMARK    5  A    between atoms: C_16  and  C_17
REMARK                            x       y       z     vdW  Elec       q    Type
REMARK                         _______ _______ _______ _____ _____    ______ ____
ROOT
ATOM      1  N   UNL     1       4.138   2.667  16.832  0.00  0.00    +0.000 NA
ATOM      2  C   UNL     1       4.024   1.935  18.108  0.00  0.00    +0.000 C 
ATOM      3  C   UNL     1       2.635   1.892  18.749  0.00  0.00    +0.000 C 
ATOM      4  C   UNL     1       2.386   3.120  19.585  0.00  0.00    +0.000 A 
ATOM      5  N   UNL     1       2.285   2.912  20.912  0.00  0.00    +0.000 NA
ATOM      6  C   UNL     1       2.100   3.993  21.665  0.00  0.00    +0.000 A 
ATOM      7  N   UNL     1       2.054   5.250  21.218  0.00  0.00    +0.000 NA
ATOM      8  C   UNL     1       2.144   5.454  19.879  0.00  0.00    +0.000 A 
ATOM      9  C   UNL     1       2.301   4.382  18.994  0.00  0.00    +0.000 A 
ATOM     10  C   UNL     1       2.299   4.434  17.488  0.00  0.00    +0.000 C 
ATOM     11  C   UNL     1       3.644   4.063  16.820  0.00  0.00    +0.000 C 
ENDROOT
BRANCH   8  12
ATOM     12  C   UNL     1       2.006   6.898  19.531  0.00  0.00    +0.000 A 
ATOM     13  C   UNL     1       2.463   7.463  18.329  0.00  0.00    +0.000 A 
ATOM     14  C   UNL     1       2.257   8.818  18.033  0.00  0.00    +0.000 A 
ATOM     15  C   UNL     1       1.647   9.645  18.964  0.00  0.00    +0.000 A 
ATOM     16  F   UNL     1       1.451  10.939  18.676  0.00  0.00    +0.000 F 
ATOM     17  C   UNL     1       1.249   9.148  20.192  0.00  0.00    +0.000 A 
ATOM     18  C   UNL     1       1.424   7.789  20.468  0.00  0.00    +0.000 A 
ENDBRANCH   8  12
BRANCH   1  19
ATOM     19  C   UNL     1       5.557   2.666  16.375  0.00  0.00    +0.000 C 
BRANCH  19  26
ATOM     20  C   UNL     1       6.999   5.004  18.119  0.00  0.00    +0.000 C 
ATOM     21  C   UNL     1       6.660   5.022  16.678  0.00  0.00    +0.000 A 
ATOM     22  N   UNL     1       6.984   6.079  15.927  0.00  0.00    +0.000 NA
ATOM     23  O   UNL     1       6.549   5.783  14.654  0.00  0.00    +0.000 OA
ATOM     24  C   UNL     1       5.971   4.552  14.643  0.00  0.00    +0.000 A 
ATOM     25  C   UNL     1       5.477   4.100  13.326  0.00  0.00    +0.000 C 
ATOM     26  C   UNL     1       6.013   4.010  15.914  0.00  0.00    +0.000 A 
ENDBRANCH  19  26
ENDBRANCH   1  19
TORSDOF 3
ENDMDL
