MODEL 1
REMARK VINA RESULT:      -7.6      0.000      0.000
REMARK  Name = 
REMARK  5 active torsions:
REMARK  status: ('A' for Active; 'I' for Inactive)
REMARK    1  A    between atoms: C_1  and  O_2
REMARK    2  A    between atoms: O_2  and  C_3
REMARK    3  A    between atoms: C_6  and  S_7
REMARK    4  A    between atoms: S_7  and  N_10
REMARK    5  A    between atoms: N_10  and  C_11
REMARK                            x       y       z     vdW  Elec       q    Type
REMARK                         _______ _______ _______ _____ _____    ______ ____
ROOT
ATOM      1  S   UNL     1       5.694   4.986  19.242  0.00  0.00    +0.000 S 
ATOM      2  O   UNL     1       6.944   5.300  19.902  0.00  0.00    +0.000 OA
ATOM      3  O   UNL     1       4.513   5.800  19.446  0.00  0.00    +0.000 OA
ENDROOT
BRANCH   1   7
ATOM      4  C   UNL     1       6.488   4.827  14.740  0.00  0.00    +0.000 A 
ATOM      5  C   UNL     1       7.510   4.542  15.650  0.00  0.00    +0.000 A 
ATOM      6  C   UNL     1       7.269   4.577  17.025  0.00  0.00    +0.000 A 
ATOM      7  C   UNL     1       5.997   4.922  17.489  0.00  0.00    +0.000 A 
ATOM      8  C   UNL     1       4.962   5.190  16.588  0.00  0.00    +0.000 A 
ATOM      9  C   UNL     1       5.214   5.154  15.212  0.00  0.00    +0.000 A 
BRANCH   4  11
ATOM     10  C   UNL     1       6.336   3.717  12.654  0.00  0.00    +0.000 C 
ATOM     11  O   UNL     1       6.862   4.791  13.425  0.00  0.00    +0.000 OA
ENDBRANCH   4  11
ENDBRANCH   1   7
BRANCH   1  12
ATOM     12  N   UNL     1       5.245   3.405  19.622  0.00  0.00    +0.000 N 
ATOM     13  H   UNL     1       5.715   3.045  20.449  0.00  0.00    +0.000 HD
BRANCH  12  14
ATOM     14  C   UNL     1       3.910   2.987  19.372  0.00  0.00    +0.000 A 
ATOM     15  C   UNL     1       3.568   2.547  18.092  0.00  0.00    +0.000 A 
ATOM     16  C   UNL     1       2.253   2.170  17.816  0.00  0.00    +0.000 A 
ATOM     17  C   UNL     1       1.291   2.263  18.816  0.00  0.00    +0.000 A 
ATOM     18  F   UNL     1       0.024   1.924  18.548  0.00  0.00    +0.000 F 
ATOM     19  C   UNL     1       1.624   2.710  20.092  0.00  0.00    +0.000 A 
ATOM     20  C   UNL     1       2.944   3.062  20.377  0.00  0.00    +0.000 A 
ENDBRANCH  12  14
ENDBRANCH   1  12
TORSDOF 4
ENDMDL
MODEL 2
REMARK VINA RESULT:      -7.4      0.294      1.115
REMARK  Name = 
REMARK  5 active torsions:
REMARK  status: ('A' for Active; 'I' for Inactive)
REMARK    1  A    between atoms: C_1  and  O_2
REMARK    2  A    between atoms: O_2  and  C_3
REMARK    3  A    between atoms: C_6  and  S_7
REMARK    4  A    between atoms: S_7  and  N_10
REMARK    5  A    between atoms: N_10  and  C_11
REMARK                            x       y       z     vdW  Elec       q    Type
REMARK                         _______ _______ _______ _____ _____    ______ ____
ROOT
ATOM      1  S   UNL     1       5.705   5.038  19.269  0.00  0.00    +0.000 S 
ATOM      2  O   UNL     1       6.931   5.366  19.967  0.00  0.00    +0.000 OA
ATOM      3  O   UNL     1       4.492   5.798  19.487  0.00  0.00    +0.000 OA
ENDROOT
BRANCH   1   7
ATOM      4  C   UNL     1       6.555   5.116  14.775  0.00  0.00    +0.000 A 
ATOM      5  C   UNL     1       5.453   5.796  15.300  0.00  0.00    +0.000 A 
ATOM      6  C   UNL     1       5.197   5.786  16.672  0.00  0.00    +0.000 A 
ATOM      7  C   UNL     1       6.042   5.068  17.522  0.00  0.00    +0.000 A 
ATOM      8  C   UNL     1       7.158   4.400  17.011  0.00  0.00    +0.000 A 
ATOM      9  C   UNL     1       7.406   4.414  15.633  0.00  0.00    +0.000 A 
BRANCH   4  11
ATOM     10  C   UNL     1       6.677   3.928  12.731  0.00  0.00    +0.000 C 
ATOM     11  O   UNL     1       6.675   5.176  13.414  0.00  0.00    +0.000 OA
ENDBRANCH   4  11
ENDBRANCH   1   7
BRANCH   1  12
ATOM     12  N   UNL     1       5.307   3.425  19.566  0.00  0.00    +0.000 N 
ATOM     13  H   UNL     1       5.813   3.030  20.355  0.00  0.00    +0.000 HD
BRANCH  12  14
ATOM     14  C   UNL     1       3.976   2.988  19.333  0.00  0.00    +0.000 A 
ATOM     15  C   UNL     1       3.574   2.719  18.023  0.00  0.00    +0.000 A 
ATOM     16  C   UNL     1       2.259   2.327  17.768  0.00  0.00    +0.000 A 
ATOM     17  C   UNL     1       1.357   2.234  18.823  0.00  0.00    +0.000 A 
ATOM     18  F   UNL     1       0.089   1.880  18.578  0.00  0.00    +0.000 F 
ATOM     19  C   UNL     1       1.750   2.509  20.129  0.00  0.00    +0.000 A 
ATOM     20  C   UNL     1       3.071   2.876  20.389  0.00  0.00    +0.000 A 
ENDBRANCH  12  14
ENDBRANCH   1  12
TORSDOF 4
ENDMDL
MODEL 3
REMARK VINA RESULT:      -7.4      0.123      1.575
REMARK  Name = 
REMARK  5 active torsions:
REMARK  status: ('A' for Active; 'I' for Inactive)
REMARK    1  A    between atoms: C_1  and  O_2
REMARK    2  A    between atoms: O_2  and  C_3
REMARK    3  A    between atoms: C_6  and  S_7
REMARK    4  A    between atoms: S_7  and  N_10
REMARK    5  A    between atoms: N_10  and  C_11
REMARK                            x       y       z     vdW  Elec       q    Type
REMARK                         _______ _______ _______ _____ _____    ______ ____
ROOT
ATOM      1  S   UNL     1       5.729   5.056  19.194  0.00  0.00    +0.000 S 
ATOM      2  O   UNL     1       6.963   5.354  19.889  0.00  0.00    +0.000 OA
ATOM      3  O   UNL     1       4.553   5.883  19.366  0.00  0.00    +0.000 OA
ENDROOT
BRANCH   1   7
ATOM      4  C   UNL     1       6.617   4.884  14.710  0.00  0.00    +0.000 A 
ATOM      5  C   UNL     1       5.367   5.309  15.169  0.00  0.00    +0.000 A 
ATOM      6  C   UNL     1       5.097   5.376  16.536  0.00  0.00    +0.000 A 
ATOM      7  C   UNL     1       6.080   4.990  17.450  0.00  0.00    +0.000 A 
ATOM      8  C   UNL     1       7.341   4.582  17.004  0.00  0.00    +0.000 A 
ATOM      9  C   UNL     1       7.603   4.517  15.630  0.00  0.00    +0.000 A 
BRANCH   4  11
ATOM     10  C   UNL     1       6.250   3.655  12.720  0.00  0.00    +0.000 C 
ATOM     11  O   UNL     1       6.744   4.832  13.349  0.00  0.00    +0.000 OA
ENDBRANCH   4  11
ENDBRANCH   1   7
BRANCH   1  12
ATOM     12  N   UNL     1       5.250   3.479  19.559  0.00  0.00    +0.000 N 
ATOM     13  H   UNL     1       5.705   3.108  20.389  0.00  0.00    +0.000 HD
BRANCH  12  14
ATOM     14  C   UNL     1       3.912   3.084  19.291  0.00  0.00    +0.000 A 
ATOM     15  C   UNL     1       2.976   3.125  20.326  0.00  0.00    +0.000 A 
ATOM     16  C   UNL     1       1.666   2.703  20.094  0.00  0.00    +0.000 A 
ATOM     17  C   UNL     1       1.316   2.222  18.837  0.00  0.00    +0.000 A 
ATOM     18  F   UNL     1       0.066   1.796  18.618  0.00  0.00    +0.000 F 
ATOM     19  C   UNL     1       2.246   2.171  17.804  0.00  0.00    +0.000 A 
ATOM     20  C   UNL     1       3.550   2.617  18.027  0.00  0.00    +0.000 A 
ENDBRANCH  12  14
ENDBRANCH   1  12
TORSDOF 4
ENDMDL
MODEL 4
REMARK VINA RESULT:      -7.1      0.378      1.154
REMARK  Name = 
REMARK  5 active torsions:
REMARK  status: ('A' for Active; 'I' for Inactive)
REMARK    1  A    between atoms: C_1  and  O_2
REMARK    2  A    between atoms: O_2  and  C_3
REMARK    3  A    between atoms: C_6  and  S_7
REMARK    4  A    between atoms: S_7  and  N_10
REMARK    5  A    between atoms: N_10  and  C_11
REMARK                            x       y       z     vdW  Elec       q    Type
REMARK                         _______ _______ _______ _____ _____    ______ ____
ROOT
ATOM      1  S   UNL     1       5.713   5.029  19.095  0.00  0.00    +0.000 S 
ATOM      2  O   UNL     1       6.969   5.290  19.768  0.00  0.00    +0.000 OA
ATOM      3  O   UNL     1       4.582   5.921  19.247  0.00  0.00    +0.000 OA
ENDROOT
BRANCH   1   7
ATOM      4  C   UNL     1       6.568   4.661  14.617  0.00  0.00    +0.000 A 
ATOM      5  C   UNL     1       7.608   4.898  15.520  0.00  0.00    +0.000 A 
ATOM      6  C   UNL     1       7.354   4.998  16.889  0.00  0.00    +0.000 A 
ATOM      7  C   UNL     1       6.041   4.882  17.352  0.00  0.00    +0.000 A 
ATOM      8  C   UNL     1       4.995   4.626  16.461  0.00  0.00    +0.000 A 
ATOM      9  C   UNL     1       5.260   4.529  15.090  0.00  0.00    +0.000 A 
BRANCH   4  11
ATOM     10  C   UNL     1       6.360   3.585  12.518  0.00  0.00    +0.000 C 
ATOM     11  O   UNL     1       6.944   4.618  13.303  0.00  0.00    +0.000 OA
ENDBRANCH   4  11
ENDBRANCH   1   7
BRANCH   1  12
ATOM     12  N   UNL     1       5.159   3.493  19.523  0.00  0.00    +0.000 N 
ATOM     13  H   UNL     1       5.642   3.108  20.331  0.00  0.00    +0.000 HD
BRANCH  12  14
ATOM     14  C   UNL     1       3.784   3.181  19.348  0.00  0.00    +0.000 A 
ATOM     15  C   UNL     1       2.871   3.583  20.325  0.00  0.00    +0.000 A 
ATOM     16  C   UNL     1       1.522   3.251  20.192  0.00  0.00    +0.000 A 
ATOM     17  C   UNL     1       1.108   2.501  19.097  0.00  0.00    +0.000 A 
ATOM     18  F   UNL     1      -0.182   2.162  18.979  0.00  0.00    +0.000 F 
ATOM     19  C   UNL     1       2.015   2.090  18.125  0.00  0.00    +0.000 A 
ATOM     20  C   UNL     1       3.360   2.443  18.243  0.00  0.00    +0.000 A 
ENDBRANCH  12  14
ENDBRANCH   1  12
TORSDOF 4
ENDMDL
MODEL 5
REMARK VINA RESULT:      -7.1      1.431      2.039
REMARK  Name = 
REMARK  5 active torsions:
REMARK  status: ('A' for Active; 'I' for Inactive)
REMARK    1  A    between atoms: C_1  and  O_2
REMARK    2  A    between atoms: O_2  and  C_3
REMARK    3  A    between atoms: C_6  and  S_7
REMARK    4  A    between atoms: S_7  and  N_10
REMARK    5  A    between atoms: N_10  and  C_11
REMARK                            x       y       z     vdW  Elec       q    Type
REMARK                         _______ _______ _______ _____ _____    ______ ____
ROOT
ATOM      1  S   UNL     1       5.782   4.709  19.077  0.00  0.00    +0.000 S 
ATOM      2  O   UNL     1       5.534   3.342  19.485  0.00  0.00    +0.000 OA
ATOM      3  O   UNL     1       6.794   5.514  19.728  0.00  0.00    +0.000 OA
ENDROOT
BRANCH   1   7
ATOM      4  C   UNL     1       6.714   4.688  14.599  0.00  0.00    +0.000 A 
ATOM      5  C   UNL     1       5.761   3.814  15.128  0.00  0.00    +0.000 A 
ATOM      6  C   UNL     1       5.463   3.826  16.492  0.00  0.00    +0.000 A 
ATOM      7  C   UNL     1       6.146   4.707  17.335  0.00  0.00    +0.000 A 
ATOM      8  C   UNL     1       7.087   5.599  16.814  0.00  0.00    +0.000 A 
ATOM      9  C   UNL     1       7.380   5.579  15.445  0.00  0.00    +0.000 A 
BRANCH   4  11
ATOM     10  C   UNL     1       6.222   3.510  12.605  0.00  0.00    +0.000 C 
ATOM     11  O   UNL     1       6.937   4.554  13.257  0.00  0.00    +0.000 OA
ENDBRANCH   4  11
ENDBRANCH   1   7
BRANCH   1  12
ATOM     12  N   UNL     1       4.346   5.590  19.179  0.00  0.00    +0.000 N 
ATOM     13  H   UNL     1       4.362   6.443  18.626  0.00  0.00    +0.000 HD
BRANCH  12  14
ATOM     14  C   UNL     1       3.114   4.891  19.301  0.00  0.00    +0.000 A 
ATOM     15  C   UNL     1       2.575   4.693  20.574  0.00  0.00    +0.000 A 
ATOM     16  C   UNL     1       1.387   3.974  20.719  0.00  0.00    +0.000 A 
ATOM     17  C   UNL     1       0.768   3.442  19.593  0.00  0.00    +0.000 A 
ATOM     18  F   UNL     1      -0.359   2.733  19.731  0.00  0.00    +0.000 F 
ATOM     19  C   UNL     1       1.306   3.629  18.323  0.00  0.00    +0.000 A 
ATOM     20  C   UNL     1       2.480   4.369  18.173  0.00  0.00    +0.000 A 
ENDBRANCH  12  14
ENDBRANCH   1  12
TORSDOF 4
ENDMDL
MODEL 6
REMARK VINA RESULT:      -7.0      1.517      1.935
REMARK  Name = 
REMARK  5 active torsions:
REMARK  status: ('A' for Active; 'I' for Inactive)
REMARK    1  A    between atoms: C_1  and  O_2
REMARK    2  A    between atoms: O_2  and  C_3
REMARK    3  A    between atoms: C_6  and  S_7
REMARK    4  A    between atoms: S_7  and  N_10
REMARK    5  A    between atoms: N_10  and  C_11
REMARK                            x       y       z     vdW  Elec       q    Type
REMARK                         _______ _______ _______ _____ _____    ______ ____
ROOT
ATOM      1  S   UNL     1       5.846   4.955  18.744  0.00  0.00    +0.000 S 
ATOM      2  O   UNL     1       5.697   3.654  19.363  0.00  0.00    +0.000 OA
ATOM      3  O   UNL     1       6.848   5.894  19.204  0.00  0.00    +0.000 OA
ENDROOT
BRANCH   1   7
ATOM      4  C   UNL     1       6.536   4.335  14.265  0.00  0.00    +0.000 A 
ATOM      5  C   UNL     1       7.324   5.237  14.985  0.00  0.00    +0.000 A 
ATOM      6  C   UNL     1       7.126   5.419  16.354  0.00  0.00    +0.000 A 
ATOM      7  C   UNL     1       6.113   4.708  17.001  0.00  0.00    +0.000 A 
ATOM      8  C   UNL     1       5.331   3.789  16.295  0.00  0.00    +0.000 A 
ATOM      9  C   UNL     1       5.536   3.614  14.922  0.00  0.00    +0.000 A 
BRANCH   4  11
ATOM     10  C   UNL     1       6.117   3.269  12.192  0.00  0.00    +0.000 C 
ATOM     11  O   UNL     1       6.808   4.274  12.926  0.00  0.00    +0.000 OA
ENDBRANCH   4  11
ENDBRANCH   1   7
BRANCH   1  12
ATOM     12  N   UNL     1       4.372   5.774  18.804  0.00  0.00    +0.000 N 
ATOM     13  H   UNL     1       4.328   6.561  18.162  0.00  0.00    +0.000 HD
BRANCH  12  14
ATOM     14  C   UNL     1       3.182   5.038  19.049  0.00  0.00    +0.000 A 
ATOM     15  C   UNL     1       2.738   4.891  20.365  0.00  0.00    +0.000 A 
ATOM     16  C   UNL     1       1.594   4.137  20.630  0.00  0.00    +0.000 A 
ATOM     17  C   UNL     1       0.924   3.520  19.580  0.00  0.00    +0.000 A 
ATOM     18  F   UNL     1      -0.161   2.777  19.834  0.00  0.00    +0.000 F 
ATOM     19  C   UNL     1       1.367   3.655  18.268  0.00  0.00    +0.000 A 
ATOM     20  C   UNL     1       2.496   4.430  17.998  0.00  0.00    +0.000 A 
ENDBRANCH  12  14
ENDBRANCH   1  12
TORSDOF 4
ENDMDL
MODEL 7
REMARK VINA RESULT:      -7.0      3.920      4.556
REMARK  Name = 
REMARK  5 active torsions:
REMARK  status: ('A' for Active; 'I' for Inactive)
REMARK    1  A    between atoms: C_1  and  O_2
REMARK    2  A    between atoms: O_2  and  C_3
REMARK    3  A    between atoms: C_6  and  S_7
REMARK    4  A    between atoms: S_7  and  N_10
REMARK    5  A    between atoms: N_10  and  C_11
REMARK                            x       y       z     vdW  Elec       q    Type
REMARK                         _______ _______ _______ _____ _____    ______ ____
ROOT
ATOM      1  S   UNL     1       2.845   4.579  19.441  0.00  0.00    +0.000 S 
ATOM      2  O   UNL     1       1.653   4.593  18.620  0.00  0.00    +0.000 OA
ATOM      3  O   UNL     1       3.070   3.533  20.418  0.00  0.00    +0.000 OA
ENDROOT
BRANCH   1   7
ATOM      4  C   UNL     1       6.472   4.641  16.655  0.00  0.00    +0.000 A 
ATOM      5  C   UNL     1       5.211   4.288  16.168  0.00  0.00    +0.000 A 
ATOM      6  C   UNL     1       4.099   4.281  17.011  0.00  0.00    +0.000 A 
ATOM      7  C   UNL     1       4.259   4.608  18.360  0.00  0.00    +0.000 A 
ATOM      8  C   UNL     1       5.512   4.981  18.854  0.00  0.00    +0.000 A 
ATOM      9  C   UNL     1       6.622   4.984  18.001  0.00  0.00    +0.000 A 
BRANCH   4  11
ATOM     10  C   UNL     1       7.121   4.846  14.387  0.00  0.00    +0.000 C 
ATOM     11  O   UNL     1       7.483   4.576  15.736  0.00  0.00    +0.000 OA
ENDBRANCH   4  11
ENDBRANCH   1   7
BRANCH   1  12
ATOM     12  N   UNL     1       2.961   6.038  20.281  0.00  0.00    +0.000 N 
ATOM     13  H   UNL     1       3.854   6.154  20.755  0.00  0.00    +0.000 HD
BRANCH  12  14
ATOM     14  C   UNL     1       2.326   7.193  19.751  0.00  0.00    +0.000 A 
ATOM     15  C   UNL     1       2.571   7.548  18.423  0.00  0.00    +0.000 A 
ATOM     16  C   UNL     1       1.988   8.701  17.895  0.00  0.00    +0.000 A 
ATOM     17  C   UNL     1       1.188   9.497  18.708  0.00  0.00    +0.000 A 
ATOM     18  F   UNL     1       0.646  10.615  18.211  0.00  0.00    +0.000 F 
ATOM     19  C   UNL     1       0.948   9.152  20.035  0.00  0.00    +0.000 A 
ATOM     20  C   UNL     1       1.509   7.986  20.557  0.00  0.00    +0.000 A 
ENDBRANCH  12  14
ENDBRANCH   1  12
TORSDOF 4
ENDMDL
MODEL 8
REMARK VINA RESULT:      -7.0      3.311      3.899
REMARK  Name = 
REMARK  5 active torsions:
REMARK  status: ('A' for Active; 'I' for Inactive)
REMARK    1  A    between atoms: C_1  and  O_2
REMARK    2  A    between atoms: O_2  and  C_3
REMARK    3  A    between atoms: C_6  and  S_7
REMARK    4  A    between atoms: S_7  and  N_10
REMARK    5  A    between atoms: N_10  and  C_11
REMARK                            x       y       z     vdW  Elec       q    Type
REMARK                         _______ _______ _______ _____ _____    ______ ____
ROOT
ATOM      1  S   UNL     1       3.681   2.653  18.756  0.00  0.00    +0.000 S 
ATOM      2  O   UNL     1       3.689   1.475  17.914  0.00  0.00    +0.000 OA
ATOM      3  O   UNL     1       3.938   2.560  20.178  0.00  0.00    +0.000 OA
ENDROOT
BRANCH   1   7
ATOM      4  C   UNL     1       6.667   5.662  17.036  0.00  0.00    +0.000 A 
ATOM      5  C   UNL     1       6.543   5.497  18.419  0.00  0.00    +0.000 A 
ATOM      6  C   UNL     1       5.643   4.570  18.947  0.00  0.00    +0.000 A 
ATOM      7  C   UNL     1       4.843   3.820  18.082  0.00  0.00    +0.000 A 
ATOM      8  C   UNL     1       4.972   3.963  16.697  0.00  0.00    +0.000 A 
ATOM      9  C   UNL     1       5.876   4.895  16.176  0.00  0.00    +0.000 A 
BRANCH   4  11
ATOM     10  C   UNL     1       7.683   7.746  17.512  0.00  0.00    +0.000 C 
ATOM     11  O   UNL     1       7.558   6.623  16.648  0.00  0.00    +0.000 OA
ENDBRANCH   4  11
ENDBRANCH   1   7
BRANCH   1  12
ATOM     12  N   UNL     1       2.196   3.440  18.599  0.00  0.00    +0.000 N 
ATOM     13  H   UNL     1       1.401   2.821  18.734  0.00  0.00    +0.000 HD
BRANCH  12  14
ATOM     14  C   UNL     1       2.080   4.788  19.032  0.00  0.00    +0.000 A 
ATOM     15  C   UNL     1       2.312   5.815  18.114  0.00  0.00    +0.000 A 
ATOM     16  C   UNL     1       2.242   7.145  18.530  0.00  0.00    +0.000 A 
ATOM     17  C   UNL     1       1.967   7.432  19.863  0.00  0.00    +0.000 A 
ATOM     18  F   UNL     1       1.923   8.707  20.269  0.00  0.00    +0.000 F 
ATOM     19  C   UNL     1       1.745   6.412  20.784  0.00  0.00    +0.000 A 
ATOM     20  C   UNL     1       1.788   5.082  20.364  0.00  0.00    +0.000 A 
ENDBRANCH  12  14
ENDBRANCH   1  12
TORSDOF 4
ENDMDL
MODEL 9
REMARK VINA RESULT:      -7.0      3.352      4.097
REMARK  Name = 
REMARK  5 active torsions:
REMARK  status: ('A' for Active; 'I' for Inactive)
REMARK    1  A    between atoms: C_1  and  O_2
REMARK    2  A    between atoms: O_2  and  C_3
REMARK    3  A    between atoms: C_6  and  S_7
REMARK    4  A    between atoms: S_7  and  N_10
REMARK    5  A    between atoms: N_10  and  C_11
REMARK                            x       y       z     vdW  Elec       q    Type
REMARK                         _______ _______ _______ _____ _____    ______ ____
ROOT
ATOM      1  S   UNL     1       3.671   2.748  18.866  0.00  0.00    +0.000 S 
ATOM      2  O   UNL     1       3.644   1.573  18.021  0.00  0.00    +0.000 OA
ATOM      3  O   UNL     1       3.950   2.647  20.283  0.00  0.00    +0.000 OA
ENDROOT
BRANCH   1   7
ATOM      4  C   UNL     1       6.685   5.705  17.106  0.00  0.00    +0.000 A 
ATOM      5  C   UNL     1       6.551   5.569  18.491  0.00  0.00    +0.000 A 
ATOM      6  C   UNL     1       5.642   4.659  19.032  0.00  0.00    +0.000 A 
ATOM      7  C   UNL     1       4.844   3.895  18.176  0.00  0.00    +0.000 A 
ATOM      8  C   UNL     1       4.983   4.009  16.790  0.00  0.00    +0.000 A 
ATOM      9  C   UNL     1       5.896   4.926  16.256  0.00  0.00    +0.000 A 
BRANCH   4  11
ATOM     10  C   UNL     1       7.735   7.777  17.565  0.00  0.00    +0.000 C 
ATOM     11  O   UNL     1       7.584   6.654  16.704  0.00  0.00    +0.000 OA
ENDBRANCH   4  11
ENDBRANCH   1   7
BRANCH   1  12
ATOM     12  N   UNL     1       2.199   3.564  18.735  0.00  0.00    +0.000 N 
ATOM     13  H   UNL     1       1.399   2.981  18.970  0.00  0.00    +0.000 HD
BRANCH  12  14
ATOM     14  C   UNL     1       2.144   4.946  19.060  0.00  0.00    +0.000 A 
ATOM     15  C   UNL     1       1.870   5.319  20.377  0.00  0.00    +0.000 A 
ATOM     16  C   UNL     1       1.771   6.671  20.709  0.00  0.00    +0.000 A 
ATOM     17  C   UNL     1       1.923   7.631  19.714  0.00  0.00    +0.000 A 
ATOM     18  F   UNL     1       1.807   8.928  20.025  0.00  0.00    +0.000 F 
ATOM     19  C   UNL     1       2.187   7.265  18.398  0.00  0.00    +0.000 A 
ATOM     20  C   UNL     1       2.312   5.914  18.070  0.00  0.00    +0.000 A 
ENDBRANCH  12  14
ENDBRANCH   1  12
TORSDOF 4
ENDMDL
