MODEL 1
REMARK VINA RESULT:      -7.5      0.000      0.000
REMARK  Name = 
REMARK  5 active torsions:
REMARK  status: ('A' for Active; 'I' for Inactive)
REMARK    1  A    between atoms: C_2  and  C_3
REMARK    2  A    between atoms: C_6  and  N_7
REMARK    3  A    between atoms: C_11  and  C_12
REMARK    4  A    between atoms: C_21  and  O_22
REMARK    5  A    between atoms: O_22  and  C_23
REMARK                            x       y       z     vdW  Elec       q    Type
REMARK                         _______ _______ _______ _____ _____    ______ ____
ROOT
ATOM      1  C   UNL     1       2.490   6.450  19.457  0.00  0.00    +0.000 A 
ATOM      2  N   UNL     1       1.770   7.196  20.338  0.00  0.00    +0.000 NA
ATOM      3  C   UNL     1       1.481   8.452  19.964  0.00  0.00    +0.000 A 
ATOM      4  C   UNL     1       1.873   9.001  18.748  0.00  0.00    +0.000 A 
ATOM      5  C   UNL     1       2.618   8.183  17.847  0.00  0.00    +0.000 A 
ATOM      6  C   UNL     1       2.965   6.877  18.208  0.00  0.00    +0.000 A 
ENDROOT
BRANCH   4   7
ATOM      7  N   UNL     1       1.453  10.308  18.425  0.00  0.00    +0.000 N 
ATOM      8  C   UNL     1       0.117  10.695  18.356  0.00  0.00    +0.000 A 
ATOM      9  N   UNL     1      -0.158  11.999  18.450  0.00  0.00    +0.000 NA
ATOM     10  C   UNL     1      -1.464  12.334  18.471  0.00  0.00    +0.000 A 
ATOM     11  C   UNL     1      -2.509  11.438  18.322  0.00  0.00    +0.000 A 
ATOM     12  C   UNL     1      -2.086  10.139  18.132  0.00  0.00    +0.000 A 
ATOM     13  N   UNL     1      -0.806   9.746  18.169  0.00  0.00    +0.000 NA
ATOM     14  H   UNL     1       1.883  10.693  17.589  0.00  0.00    +0.000 HD
BRANCH  11  15
ATOM     15  C   UNL     1      -3.928  11.804  18.368  0.00  0.00    +0.000 A 
ATOM     16  C   UNL     1      -4.510  12.344  19.519  0.00  0.00    +0.000 A 
ATOM     17  C   UNL     1      -5.854  12.679  19.501  0.00  0.00    +0.000 A 
ATOM     18  N   UNL     1      -6.653  12.523  18.427  0.00  0.00    +0.000 NA
ATOM     19  C   UNL     1      -6.086  12.004  17.323  0.00  0.00    +0.000 A 
ATOM     20  C   UNL     1      -4.755  11.629  17.251  0.00  0.00    +0.000 A 
ENDBRANCH  11  15
ENDBRANCH   4   7
BRANCH   1  22
ATOM     21  N   UNL     1       2.869   3.993  20.222  0.00  0.00    +0.000 NA
ATOM     22  C   UNL     1       2.717   5.097  19.896  0.00  0.00    +0.000 C 
ENDBRANCH   1  22
BRANCH   6  23
ATOM     23  O   UNL     1       3.663   5.939  17.491  0.00  0.00    +0.000 OA
BRANCH  23  24
ATOM     24  C   UNL     1       5.093   5.914  17.358  0.00  0.00    +0.000 C 
ATOM     25  C   UNL     1       5.475   6.292  15.905  0.00  0.00    +0.000 C 
ATOM     26  C   UNL     1       5.491   5.154  14.874  0.00  0.00    +0.000 C 
ATOM     27  C   UNL     1       5.931   3.790  15.390  0.00  0.00    +0.000 C 
ATOM     28  N   UNL     1       5.500   3.473  16.744  0.00  0.00    +0.000 NA
ATOM     29  C   UNL     1       5.704   4.548  17.719  0.00  0.00    +0.000 C 
ATOM     30  H   UNL     1       6.011   2.645  17.054  0.00  0.00    +0.000 HD
ENDBRANCH  23  24
ENDBRANCH   6  23
TORSDOF 5
ENDMDL
MODEL 2
REMARK VINA RESULT:      -7.4      1.784      3.036
REMARK  Name = 
REMARK  5 active torsions:
REMARK  status: ('A' for Active; 'I' for Inactive)
REMARK    1  A    between atoms: C_2  and  C_3
REMARK    2  A    between atoms: C_6  and  N_7
REMARK    3  A    between atoms: C_11  and  C_12
REMARK    4  A    between atoms: C_21  and  O_22
REMARK    5  A    between atoms: O_22  and  C_23
REMARK                            x       y       z     vdW  Elec       q    Type
REMARK                         _______ _______ _______ _____ _____    ______ ____
ROOT
ATOM      1  C   UNL     1       2.798   7.149  18.223  0.00  0.00    +0.000 A 
ATOM      2  N   UNL     1       2.685   8.233  17.410  0.00  0.00    +0.000 NA
ATOM      3  C   UNL     1       2.049   9.300  17.918  0.00  0.00    +0.000 A 
ATOM      4  C   UNL     1       1.521   9.339  19.205  0.00  0.00    +0.000 A 
ATOM      5  C   UNL     1       1.669   8.185  20.030  0.00  0.00    +0.000 A 
ATOM      6  C   UNL     1       2.301   7.041  19.531  0.00  0.00    +0.000 A 
ENDROOT
BRANCH   4   7
ATOM      7  N   UNL     1       0.937  10.538  19.663  0.00  0.00    +0.000 N 
ATOM      8  C   UNL     1      -0.377  10.910  19.393  0.00  0.00    +0.000 A 
ATOM      9  N   UNL     1      -0.940  11.824  20.188  0.00  0.00    +0.000 NA
ATOM     10  C   UNL     1      -2.241  12.097  19.957  0.00  0.00    +0.000 A 
ATOM     11  C   UNL     1      -2.985  11.561  18.920  0.00  0.00    +0.000 A 
ATOM     12  C   UNL     1      -2.257  10.711  18.113  0.00  0.00    +0.000 A 
ATOM     13  N   UNL     1      -0.985  10.358  18.338  0.00  0.00    +0.000 NA
ATOM     14  H   UNL     1       1.491  11.371  19.482  0.00  0.00    +0.000 HD
BRANCH  11  15
ATOM     15  C   UNL     1      -4.404  11.843  18.686  0.00  0.00    +0.000 A 
ATOM     16  C   UNL     1      -5.264  12.200  19.729  0.00  0.00    +0.000 A 
ATOM     17  C   UNL     1      -6.594  12.463  19.447  0.00  0.00    +0.000 A 
ATOM     18  N   UNL     1      -7.126  12.404  18.209  0.00  0.00    +0.000 NA
ATOM     19  C   UNL     1      -6.292  12.062  17.210  0.00  0.00    +0.000 A 
ATOM     20  C   UNL     1      -4.952  11.769  17.398  0.00  0.00    +0.000 A 
ENDBRANCH  11  15
ENDBRANCH   4   7
BRANCH   1  22
ATOM     21  N   UNL     1       4.151   5.212  17.135  0.00  0.00    +0.000 NA
ATOM     22  C   UNL     1       3.538   6.060  17.637  0.00  0.00    +0.000 C 
ENDBRANCH   1  22
BRANCH   6  23
ATOM     23  O   UNL     1       2.546   5.846  20.158  0.00  0.00    +0.000 OA
BRANCH  23  24
ATOM     24  C   UNL     1       1.552   4.841  20.411  0.00  0.00    +0.000 C 
ATOM     25  C   UNL     1       2.088   3.852  21.476  0.00  0.00    +0.000 C 
ATOM     26  C   UNL     1       2.949   2.686  20.969  0.00  0.00    +0.000 C 
ATOM     27  C   UNL     1       2.574   2.122  19.604  0.00  0.00    +0.000 C 
ATOM     28  N   UNL     1       2.124   3.107  18.631  0.00  0.00    +0.000 NA
ATOM     29  C   UNL     1       1.144   4.070  19.142  0.00  0.00    +0.000 C 
ATOM     30  H   UNL     1       1.714   2.608  17.840  0.00  0.00    +0.000 HD
ENDBRANCH  23  24
ENDBRANCH   6  23
TORSDOF 5
ENDMDL
MODEL 3
REMARK VINA RESULT:      -7.3      3.397      4.779
REMARK  Name = 
REMARK  5 active torsions:
REMARK  status: ('A' for Active; 'I' for Inactive)
REMARK    1  A    between atoms: C_2  and  C_3
REMARK    2  A    between atoms: C_6  and  N_7
REMARK    3  A    between atoms: C_11  and  C_12
REMARK    4  A    between atoms: C_21  and  O_22
REMARK    5  A    between atoms: O_22  and  C_23
REMARK                            x       y       z     vdW  Elec       q    Type
REMARK                         _______ _______ _______ _____ _____    ______ ____
ROOT
ATOM      1  C   UNL     1       6.196   5.394  17.564  0.00  0.00    +0.000 A 
ATOM      2  N   UNL     1       6.266   6.348  16.598  0.00  0.00    +0.000 NA
ATOM      3  C   UNL     1       5.170   7.101  16.418  0.00  0.00    +0.000 A 
ATOM      4  C   UNL     1       4.004   6.951  17.161  0.00  0.00    +0.000 A 
ATOM      5  C   UNL     1       3.974   5.945  18.173  0.00  0.00    +0.000 A 
ATOM      6  C   UNL     1       5.084   5.120  18.375  0.00  0.00    +0.000 A 
ENDROOT
BRANCH   4   7
ATOM      7  N   UNL     1       2.937   7.846  16.939  0.00  0.00    +0.000 N 
ATOM      8  C   UNL     1       2.206   8.446  17.961  0.00  0.00    +0.000 A 
ATOM      9  N   UNL     1       1.519   9.553  17.667  0.00  0.00    +0.000 NA
ATOM     10  C   UNL     1       0.895  10.161  18.697  0.00  0.00    +0.000 A 
ATOM     11  C   UNL     1       0.858   9.673  19.992  0.00  0.00    +0.000 A 
ATOM     12  C   UNL     1       1.521   8.472  20.139  0.00  0.00    +0.000 A 
ATOM     13  N   UNL     1       2.209   7.863  19.165  0.00  0.00    +0.000 NA
ATOM     14  H   UNL     1       2.242   7.513  16.277  0.00  0.00    +0.000 HD
BRANCH  11  15
ATOM     15  C   UNL     1       0.198  10.349  21.113  0.00  0.00    +0.000 A 
ATOM     16  C   UNL     1       0.009  11.734  21.128  0.00  0.00    +0.000 A 
ATOM     17  C   UNL     1      -0.628  12.317  22.211  0.00  0.00    +0.000 A 
ATOM     18  N   UNL     1      -1.095  11.625  23.269  0.00  0.00    +0.000 NA
ATOM     19  C   UNL     1      -0.911  10.292  23.248  0.00  0.00    +0.000 A 
ATOM     20  C   UNL     1      -0.275   9.624  22.216  0.00  0.00    +0.000 A 
ENDBRANCH  11  15
ENDBRANCH   4   7
BRANCH   1  22
ATOM     21  N   UNL     1       8.415   4.086  17.926  0.00  0.00    +0.000 NA
ATOM     22  C   UNL     1       7.422   4.659  17.743  0.00  0.00    +0.000 C 
ENDBRANCH   1  22
BRANCH   6  23
ATOM     23  O   UNL     1       5.255   4.110  19.289  0.00  0.00    +0.000 OA
BRANCH  23  24
ATOM     24  C   UNL     1       4.572   2.848  19.245  0.00  0.00    +0.000 C 
ATOM     25  C   UNL     1       4.027   2.615  17.812  0.00  0.00    +0.000 C 
ATOM     26  C   UNL     1       2.654   3.222  17.486  0.00  0.00    +0.000 C 
ATOM     27  C   UNL     1       1.648   3.255  18.629  0.00  0.00    +0.000 C 
ATOM     28  N   UNL     1       2.215   3.527  19.943  0.00  0.00    +0.000 NA
ATOM     29  C   UNL     1       3.420   2.755  20.262  0.00  0.00    +0.000 C 
ATOM     30  H   UNL     1       1.500   3.326  20.644  0.00  0.00    +0.000 HD
ENDBRANCH  23  24
ENDBRANCH   6  23
TORSDOF 5
ENDMDL
MODEL 4
REMARK VINA RESULT:      -7.3      3.309      4.924
REMARK  Name = 
REMARK  5 active torsions:
REMARK  status: ('A' for Active; 'I' for Inactive)
REMARK    1  A    between atoms: C_2  and  C_3
REMARK    2  A    between atoms: C_6  and  N_7
REMARK    3  A    between atoms: C_11  and  C_12
REMARK    4  A    between atoms: C_21  and  O_22
REMARK    5  A    between atoms: O_22  and  C_23
REMARK                            x       y       z     vdW  Elec       q    Type
REMARK                         _______ _______ _______ _____ _____    ______ ____
ROOT
ATOM      1  C   UNL     1       6.315   5.406  17.629  0.00  0.00    +0.000 A 
ATOM      2  N   UNL     1       6.421   6.401  16.708  0.00  0.00    +0.000 NA
ATOM      3  C   UNL     1       5.329   7.157  16.513  0.00  0.00    +0.000 A 
ATOM      4  C   UNL     1       4.133   6.970  17.198  0.00  0.00    +0.000 A 
ATOM      5  C   UNL     1       4.066   5.922  18.164  0.00  0.00    +0.000 A 
ATOM      6  C   UNL     1       5.171   5.093  18.379  0.00  0.00    +0.000 A 
ENDROOT
BRANCH   4   7
ATOM      7  N   UNL     1       3.071   7.869  16.969  0.00  0.00    +0.000 N 
ATOM      8  C   UNL     1       2.291   8.419  17.983  0.00  0.00    +0.000 A 
ATOM      9  N   UNL     1       1.610   9.534  17.708  0.00  0.00    +0.000 NA
ATOM     10  C   UNL     1       0.937  10.092  18.735  0.00  0.00    +0.000 A 
ATOM     11  C   UNL     1       0.844   9.546  20.004  0.00  0.00    +0.000 A 
ATOM     12  C   UNL     1       1.508   8.343  20.126  0.00  0.00    +0.000 A 
ATOM     13  N   UNL     1       2.244   7.782  19.158  0.00  0.00    +0.000 NA
ATOM     14  H   UNL     1       2.408   7.564  16.261  0.00  0.00    +0.000 HD
BRANCH  11  15
ATOM     15  C   UNL     1       0.130  10.167  21.123  0.00  0.00    +0.000 A 
ATOM     16  C   UNL     1      -0.077   9.490  22.329  0.00  0.00    +0.000 A 
ATOM     17  C   UNL     1      -0.752  10.131  23.355  0.00  0.00    +0.000 A 
ATOM     18  N   UNL     1      -1.225  11.390  23.272  0.00  0.00    +0.000 NA
ATOM     19  C   UNL     1      -1.021  12.036  22.109  0.00  0.00    +0.000 A 
ATOM     20  C   UNL     1      -0.369  11.474  21.026  0.00  0.00    +0.000 A 
ENDBRANCH  11  15
ENDBRANCH   4   7
BRANCH   1  22
ATOM     21  N   UNL     1       8.507   4.064  18.028  0.00  0.00    +0.000 NA
ATOM     22  C   UNL     1       7.537   4.670  17.828  0.00  0.00    +0.000 C 
ENDBRANCH   1  22
BRANCH   6  23
ATOM     23  O   UNL     1       5.310   4.046  19.255  0.00  0.00    +0.000 OA
BRANCH  23  24
ATOM     24  C   UNL     1       4.679   2.766  19.099  0.00  0.00    +0.000 C 
ATOM     25  C   UNL     1       3.293   2.960  18.433  0.00  0.00    +0.000 C 
ATOM     26  C   UNL     1       2.115   3.280  19.365  0.00  0.00    +0.000 C 
ATOM     27  C   UNL     1       2.154   2.629  20.742  0.00  0.00    +0.000 C 
ATOM     28  N   UNL     1       3.480   2.519  21.336  0.00  0.00    +0.000 NA
ATOM     29  C   UNL     1       4.516   2.012  20.432  0.00  0.00    +0.000 C 
ATOM     30  H   UNL     1       3.414   1.899  22.144  0.00  0.00    +0.000 HD
ENDBRANCH  23  24
ENDBRANCH   6  23
TORSDOF 5
ENDMDL
MODEL 5
REMARK VINA RESULT:      -7.3      1.368      2.049
REMARK  Name = 
REMARK  5 active torsions:
REMARK  status: ('A' for Active; 'I' for Inactive)
REMARK    1  A    between atoms: C_2  and  C_3
REMARK    2  A    between atoms: C_6  and  N_7
REMARK    3  A    between atoms: C_11  and  C_12
REMARK    4  A    between atoms: C_21  and  O_22
REMARK    5  A    between atoms: O_22  and  C_23
REMARK                            x       y       z     vdW  Elec       q    Type
REMARK                         _______ _______ _______ _____ _____    ______ ____
ROOT
ATOM      1  C   UNL     1       2.046   6.373  20.425  0.00  0.00    +0.000 A 
ATOM      2  N   UNL     1       1.286   7.254  21.129  0.00  0.00    +0.000 NA
ATOM      3  C   UNL     1       1.095   8.460  20.572  0.00  0.00    +0.000 A 
ATOM      4  C   UNL     1       1.624   8.830  19.339  0.00  0.00    +0.000 A 
ATOM      5  C   UNL     1       2.407   7.873  18.627  0.00  0.00    +0.000 A 
ATOM      6  C   UNL     1       2.654   6.614  19.184  0.00  0.00    +0.000 A 
ENDROOT
BRANCH   4   7
ATOM      7  N   UNL     1       1.300  10.097  18.813  0.00  0.00    +0.000 N 
ATOM      8  C   UNL     1      -0.005  10.546  18.627  0.00  0.00    +0.000 A 
ATOM      9  N   UNL     1      -0.201  11.863  18.520  0.00  0.00    +0.000 NA
ATOM     10  C   UNL     1      -1.483  12.271  18.431  0.00  0.00    +0.000 A 
ATOM     11  C   UNL     1      -2.576  11.425  18.363  0.00  0.00    +0.000 A 
ATOM     12  C   UNL     1      -2.229  10.089  18.381  0.00  0.00    +0.000 A 
ATOM     13  N   UNL     1      -0.979   9.634  18.534  0.00  0.00    +0.000 NA
ATOM     14  H   UNL     1       1.785  10.330  17.952  0.00  0.00    +0.000 HD
BRANCH  11  15
ATOM     15  C   UNL     1      -3.969  11.874  18.289  0.00  0.00    +0.000 A 
ATOM     16  C   UNL     1      -4.709  11.783  17.106  0.00  0.00    +0.000 A 
ATOM     17  C   UNL     1      -6.025  12.216  17.099  0.00  0.00    +0.000 A 
ATOM     18  N   UNL     1      -6.655  12.722  18.177  0.00  0.00    +0.000 NA
ATOM     19  C   UNL     1      -5.938  12.806  19.312  0.00  0.00    +0.000 A 
ATOM     20  C   UNL     1      -4.615  12.410  19.412  0.00  0.00    +0.000 A 
ENDBRANCH  11  15
ENDBRANCH   4   7
BRANCH   1  22
ATOM     21  N   UNL     1       2.223   4.029  21.540  0.00  0.00    +0.000 NA
ATOM     22  C   UNL     1       2.165   5.082  21.053  0.00  0.00    +0.000 C 
ENDBRANCH   1  22
BRANCH   6  23
ATOM     23  O   UNL     1       3.368   5.564  18.663  0.00  0.00    +0.000 OA
BRANCH  23  24
ATOM     24  C   UNL     1       3.038   4.880  17.445  0.00  0.00    +0.000 C 
ATOM     25  C   UNL     1       1.679   4.155  17.622  0.00  0.00    +0.000 C 
ATOM     26  C   UNL     1       1.717   2.752  18.246  0.00  0.00    +0.000 C 
ATOM     27  C   UNL     1       2.934   1.901  17.906  0.00  0.00    +0.000 C 
ATOM     28  N   UNL     1       4.190   2.632  17.802  0.00  0.00    +0.000 NA
ATOM     29  C   UNL     1       4.116   3.867  17.016  0.00  0.00    +0.000 C 
ATOM     30  H   UNL     1       4.883   2.013  17.379  0.00  0.00    +0.000 HD
ENDBRANCH  23  24
ENDBRANCH   6  23
TORSDOF 5
ENDMDL
MODEL 6
REMARK VINA RESULT:      -7.3      2.568      4.003
REMARK  Name = 
REMARK  5 active torsions:
REMARK  status: ('A' for Active; 'I' for Inactive)
REMARK    1  A    between atoms: C_2  and  C_3
REMARK    2  A    between atoms: C_6  and  N_7
REMARK    3  A    between atoms: C_11  and  C_12
REMARK    4  A    between atoms: C_21  and  O_22
REMARK    5  A    between atoms: O_22  and  C_23
REMARK                            x       y       z     vdW  Elec       q    Type
REMARK                         _______ _______ _______ _____ _____    ______ ____
ROOT
ATOM      1  C   UNL     1       3.158   3.135  19.070  0.00  0.00    +0.000 A 
ATOM      2  N   UNL     1       1.930   2.986  19.635  0.00  0.00    +0.000 NA
ATOM      3  C   UNL     1       1.495   4.000  20.400  0.00  0.00    +0.000 A 
ATOM      4  C   UNL     1       2.226   5.161  20.626  0.00  0.00    +0.000 A 
ATOM      5  C   UNL     1       3.506   5.283  20.007  0.00  0.00    +0.000 A 
ATOM      6  C   UNL     1       4.010   4.239  19.225  0.00  0.00    +0.000 A 
ENDROOT
BRANCH   4   7
ATOM      7  N   UNL     1       1.642   6.195  21.386  0.00  0.00    +0.000 N 
ATOM      8  C   UNL     1       1.343   7.456  20.876  0.00  0.00    +0.000 A 
ATOM      9  N   UNL     1       0.447   8.196  21.533  0.00  0.00    +0.000 NA
ATOM     10  C   UNL     1       0.112   9.373  20.965  0.00  0.00    +0.000 A 
ATOM     11  C   UNL     1       0.687   9.883  19.815  0.00  0.00    +0.000 A 
ATOM     12  C   UNL     1       1.669   9.067  19.292  0.00  0.00    +0.000 A 
ATOM     13  N   UNL     1       1.992   7.863  19.780  0.00  0.00    +0.000 NA
ATOM     14  H   UNL     1       2.101   6.372  22.276  0.00  0.00    +0.000 HD
BRANCH  11  15
ATOM     15  C   UNL     1       0.303  11.152  19.189  0.00  0.00    +0.000 A 
ATOM     16  C   UNL     1       1.201  12.218  19.079  0.00  0.00    +0.000 A 
ATOM     17  C   UNL     1       0.785  13.391  18.470  0.00  0.00    +0.000 A 
ATOM     18  N   UNL     1      -0.449  13.575  17.960  0.00  0.00    +0.000 NA
ATOM     19  C   UNL     1      -1.307  12.544  18.068  0.00  0.00    +0.000 A 
ATOM     20  C   UNL     1      -0.985  11.341  18.670  0.00  0.00    +0.000 A 
ENDBRANCH  11  15
ENDBRANCH   4   7
BRANCH   1  22
ATOM     21  N   UNL     1       3.853   1.127  17.570  0.00  0.00    +0.000 NA
ATOM     22  C   UNL     1       3.540   2.037  18.220  0.00  0.00    +0.000 C 
ENDBRANCH   1  22
BRANCH   6  23
ATOM     23  O   UNL     1       5.201   4.163  18.548  0.00  0.00    +0.000 OA
BRANCH  23  24
ATOM     24  C   UNL     1       5.928   5.298  18.050  0.00  0.00    +0.000 C 
ATOM     25  C   UNL     1       5.230   5.826  16.771  0.00  0.00    +0.000 C 
ATOM     26  C   UNL     1       5.619   5.160  15.443  0.00  0.00    +0.000 C 
ATOM     27  C   UNL     1       7.067   4.703  15.322  0.00  0.00    +0.000 C 
ATOM     28  N   UNL     1       7.652   4.171  16.546  0.00  0.00    +0.000 NA
ATOM     29  C   UNL     1       7.402   4.977  17.744  0.00  0.00    +0.000 C 
ATOM     30  H   UNL     1       8.660   4.090  16.406  0.00  0.00    +0.000 HD
ENDBRANCH  23  24
ENDBRANCH   6  23
TORSDOF 5
ENDMDL
MODEL 7
REMARK VINA RESULT:      -7.2      3.094      9.659
REMARK  Name = 
REMARK  5 active torsions:
REMARK  status: ('A' for Active; 'I' for Inactive)
REMARK    1  A    between atoms: C_2  and  C_3
REMARK    2  A    between atoms: C_6  and  N_7
REMARK    3  A    between atoms: C_11  and  C_12
REMARK    4  A    between atoms: C_21  and  O_22
REMARK    5  A    between atoms: O_22  and  C_23
REMARK                            x       y       z     vdW  Elec       q    Type
REMARK                         _______ _______ _______ _____ _____    ______ ____
ROOT
ATOM      1  C   UNL     1      -1.836  11.721  19.195  0.00  0.00    +0.000 A 
ATOM      2  N   UNL     1      -1.958  10.711  18.292  0.00  0.00    +0.000 NA
ATOM      3  C   UNL     1      -0.818  10.134  17.881  0.00  0.00    +0.000 A 
ATOM      4  C   UNL     1       0.442  10.514  18.331  0.00  0.00    +0.000 A 
ATOM      5  C   UNL     1       0.527  11.571  19.285  0.00  0.00    +0.000 A 
ATOM      6  C   UNL     1      -0.634  12.219  19.720  0.00  0.00    +0.000 A 
ENDROOT
BRANCH   4   7
ATOM      7  N   UNL     1       1.569   9.790  17.888  0.00  0.00    +0.000 N 
ATOM      8  C   UNL     1       1.968   8.573  18.433  0.00  0.00    +0.000 A 
ATOM      9  N   UNL     1       2.769   7.796  17.698  0.00  0.00    +0.000 NA
ATOM     10  C   UNL     1       3.065   6.586  18.215  0.00  0.00    +0.000 A 
ATOM     11  C   UNL     1       2.667   6.145  19.465  0.00  0.00    +0.000 A 
ATOM     12  C   UNL     1       1.931   7.082  20.161  0.00  0.00    +0.000 A 
ATOM     13  N   UNL     1       1.556   8.269  19.668  0.00  0.00    +0.000 NA
ATOM     14  H   UNL     1       2.420  10.341  17.818  0.00  0.00    +0.000 HD
BRANCH  11  15
ATOM     15  C   UNL     1       2.972   4.820  20.013  0.00  0.00    +0.000 A 
ATOM     16  C   UNL     1       4.020   4.042  19.513  0.00  0.00    +0.000 A 
ATOM     17  C   UNL     1       4.267   2.800  20.076  0.00  0.00    +0.000 A 
ATOM     18  N   UNL     1       3.556   2.284  21.098  0.00  0.00    +0.000 NA
ATOM     19  C   UNL     1       2.549   3.039  21.574  0.00  0.00    +0.000 A 
ATOM     20  C   UNL     1       2.221   4.284  21.068  0.00  0.00    +0.000 A 
ENDBRANCH  11  15
ENDBRANCH   4   7
BRANCH   1  22
ATOM     21  N   UNL     1      -4.094  12.730  19.999  0.00  0.00    +0.000 NA
ATOM     22  C   UNL     1      -3.098  12.258  19.635  0.00  0.00    +0.000 C 
ENDBRANCH   1  22
BRANCH   6  23
ATOM     23  O   UNL     1      -0.765  13.241  20.626  0.00  0.00    +0.000 OA
BRANCH  23  24
ATOM     24  C   UNL     1      -0.375  13.161  22.005  0.00  0.00    +0.000 C 
ATOM     25  C   UNL     1      -1.032  11.913  22.648  0.00  0.00    +0.000 C 
ATOM     26  C   UNL     1      -2.457  12.085  23.196  0.00  0.00    +0.000 C 
ATOM     27  C   UNL     1      -2.783  13.445  23.798  0.00  0.00    +0.000 C 
ATOM     28  N   UNL     1      -2.175  14.583  23.121  0.00  0.00    +0.000 NA
ATOM     29  C   UNL     1      -0.752  14.420  22.808  0.00  0.00    +0.000 C 
ATOM     30  H   UNL     1      -2.290  15.404  23.716  0.00  0.00    +0.000 HD
ENDBRANCH  23  24
ENDBRANCH   6  23
TORSDOF 5
ENDMDL
MODEL 8
REMARK VINA RESULT:      -7.2      2.721      9.651
REMARK  Name = 
REMARK  5 active torsions:
REMARK  status: ('A' for Active; 'I' for Inactive)
REMARK    1  A    between atoms: C_2  and  C_3
REMARK    2  A    between atoms: C_6  and  N_7
REMARK    3  A    between atoms: C_11  and  C_12
REMARK    4  A    between atoms: C_21  and  O_22
REMARK    5  A    between atoms: O_22  and  C_23
REMARK                            x       y       z     vdW  Elec       q    Type
REMARK                         _______ _______ _______ _____ _____    ______ ____
ROOT
ATOM      1  C   UNL     1      -1.854  12.958  19.948  0.00  0.00    +0.000 A 
ATOM      2  N   UNL     1      -0.547  13.293  20.121  0.00  0.00    +0.000 NA
ATOM      3  C   UNL     1       0.358  12.516  19.506  0.00  0.00    +0.000 A 
ATOM      4  C   UNL     1       0.021  11.420  18.718  0.00  0.00    +0.000 A 
ATOM      5  C   UNL     1      -1.362  11.108  18.553  0.00  0.00    +0.000 A 
ATOM      6  C   UNL     1      -2.337  11.875  19.199  0.00  0.00    +0.000 A 
ENDROOT
BRANCH   4   7
ATOM      7  N   UNL     1       1.049  10.716  18.057  0.00  0.00    +0.000 N 
ATOM      8  C   UNL     1       1.515   9.469  18.463  0.00  0.00    +0.000 A 
ATOM      9  N   UNL     1       2.172   8.729  17.565  0.00  0.00    +0.000 NA
ATOM     10  C   UNL     1       2.532   7.490  17.960  0.00  0.00    +0.000 A 
ATOM     11  C   UNL     1       2.339   6.983  19.234  0.00  0.00    +0.000 A 
ATOM     12  C   UNL     1       1.743   7.885  20.091  0.00  0.00    +0.000 A 
ATOM     13  N   UNL     1       1.308   9.099  19.731  0.00  0.00    +0.000 NA
ATOM     14  H   UNL     1       1.884  11.265  17.876  0.00  0.00    +0.000 HD
BRANCH  11  15
ATOM     15  C   UNL     1       2.712   5.629  19.652  0.00  0.00    +0.000 A 
ATOM     16  C   UNL     1       1.998   4.941  20.637  0.00  0.00    +0.000 A 
ATOM     17  C   UNL     1       2.391   3.660  20.986  0.00  0.00    +0.000 A 
ATOM     18  N   UNL     1       3.433   3.015  20.423  0.00  0.00    +0.000 NA
ATOM     19  C   UNL     1       4.115   3.682  19.475  0.00  0.00    +0.000 A 
ATOM     20  C   UNL     1       3.803   4.968  19.070  0.00  0.00    +0.000 A 
ENDBRANCH  11  15
ENDBRANCH   4   7
BRANCH   1  22
ATOM     21  N   UNL     1      -3.502  14.625  21.077  0.00  0.00    +0.000 NA
ATOM     22  C   UNL     1      -2.773  13.864  20.589  0.00  0.00    +0.000 C 
ENDBRANCH   1  22
BRANCH   6  23
ATOM     23  O   UNL     1      -3.702  11.744  19.164  0.00  0.00    +0.000 OA
BRANCH  23  24
ATOM     24  C   UNL     1      -4.423  10.997  18.172  0.00  0.00    +0.000 C 
ATOM     25  C   UNL     1      -4.707  11.913  16.954  0.00  0.00    +0.000 C 
ATOM     26  C   UNL     1      -5.967  12.787  17.022  0.00  0.00    +0.000 C 
ATOM     27  C   UNL     1      -7.163  12.183  17.747  0.00  0.00    +0.000 C 
ATOM     28  N   UNL     1      -6.834  11.373  18.912  0.00  0.00    +0.000 NA
ATOM     29  C   UNL     1      -5.745  10.415  18.704  0.00  0.00    +0.000 C 
ATOM     30  H   UNL     1      -7.674  10.863  19.190  0.00  0.00    +0.000 HD
ENDBRANCH  23  24
ENDBRANCH   6  23
TORSDOF 5
ENDMDL
MODEL 9
REMARK VINA RESULT:      -7.2      3.206      4.711
REMARK  Name = 
REMARK  5 active torsions:
REMARK  status: ('A' for Active; 'I' for Inactive)
REMARK    1  A    between atoms: C_2  and  C_3
REMARK    2  A    between atoms: C_6  and  N_7
REMARK    3  A    between atoms: C_11  and  C_12
REMARK    4  A    between atoms: C_21  and  O_22
REMARK    5  A    between atoms: O_22  and  C_23
REMARK                            x       y       z     vdW  Elec       q    Type
REMARK                         _______ _______ _______ _____ _____    ______ ____
ROOT
ATOM      1  C   UNL     1       5.066   5.909  18.292  0.00  0.00    +0.000 A 
ATOM      2  N   UNL     1       5.183   6.918  17.389  0.00  0.00    +0.000 NA
ATOM      3  C   UNL     1       4.081   7.651  17.163  0.00  0.00    +0.000 A 
ATOM      4  C   UNL     1       2.866   7.427  17.800  0.00  0.00    +0.000 A 
ATOM      5  C   UNL     1       2.787   6.364  18.749  0.00  0.00    +0.000 A 
ATOM      6  C   UNL     1       3.903   5.558  18.994  0.00  0.00    +0.000 A 
ENDROOT
BRANCH   4   7
ATOM      7  N   UNL     1       1.791   8.304  17.543  0.00  0.00    +0.000 N 
ATOM      8  C   UNL     1       1.268   9.183  18.488  0.00  0.00    +0.000 A 
ATOM      9  N   UNL     1       0.558  10.223  18.043  0.00  0.00    +0.000 NA
ATOM     10  C   UNL     1       0.142  11.105  18.975  0.00  0.00    +0.000 A 
ATOM     11  C   UNL     1       0.330  10.956  20.338  0.00  0.00    +0.000 A 
ATOM     12  C   UNL     1       0.987   9.790  20.670  0.00  0.00    +0.000 A 
ATOM     13  N   UNL     1       1.478   8.917  19.781  0.00  0.00    +0.000 NA
ATOM     14  H   UNL     1       0.983   7.863  17.115  0.00  0.00    +0.000 HD
BRANCH  11  15
ATOM     15  C   UNL     1      -0.105  11.928  21.346  0.00  0.00    +0.000 A 
ATOM     16  C   UNL     1      -1.017  11.588  22.349  0.00  0.00    +0.000 A 
ATOM     17  C   UNL     1      -1.386  12.546  23.279  0.00  0.00    +0.000 A 
ATOM     18  N   UNL     1      -0.909  13.807  23.287  0.00  0.00    +0.000 NA
ATOM     19  C   UNL     1      -0.031  14.127  22.320  0.00  0.00    +0.000 A 
ATOM     20  C   UNL     1       0.386  13.241  21.341  0.00  0.00    +0.000 A 
ENDBRANCH  11  15
ENDBRANCH   4   7
BRANCH   1  22
ATOM     21  N   UNL     1       7.311   4.664  18.712  0.00  0.00    +0.000 NA
ATOM     22  C   UNL     1       6.297   5.198  18.527  0.00  0.00    +0.000 C 
ENDBRANCH   1  22
BRANCH   6  23
ATOM     23  O   UNL     1       4.033   4.503  19.862  0.00  0.00    +0.000 OA
BRANCH  23  24
ATOM     24  C   UNL     1       3.471   3.200  19.647  0.00  0.00    +0.000 C 
ATOM     25  C   UNL     1       1.989   3.349  19.218  0.00  0.00    +0.000 C 
ATOM     26  C   UNL     1       0.951   3.468  20.343  0.00  0.00    +0.000 C 
ATOM     27  C   UNL     1       1.245   2.676  21.611  0.00  0.00    +0.000 C 
ATOM     28  N   UNL     1       2.650   2.613  21.989  0.00  0.00    +0.000 NA
ATOM     29  C   UNL     1       3.565   2.294  20.889  0.00  0.00    +0.000 C 
ATOM     30  H   UNL     1       2.751   1.904  22.717  0.00  0.00    +0.000 HD
ENDBRANCH  23  24
ENDBRANCH   6  23
TORSDOF 5
ENDMDL
