MODEL 1
REMARK VINA RESULT:      -7.7      0.000      0.000
REMARK  Name = 
REMARK  3 active torsions:
REMARK  status: ('A' for Active; 'I' for Inactive)
REMARK    1  A    between atoms: C_2  and  C_16
REMARK    2  A    between atoms: N_3  and  S_4
REMARK    3  A    between atoms: S_4  and  C_7
REMARK                            x       y       z     vdW  Elec       q    Type
REMARK                         _______ _______ _______ _____ _____    ______ ____
ROOT
ATOM      1  O   UNL     1       3.039   7.183  17.897  0.00  0.00    +0.000 OA
ATOM      2  C   UNL     1       2.536   6.921  18.978  0.00  0.00    +0.000 C 
ATOM      3  N   UNL     1       2.546   5.642  19.537  0.00  0.00    +0.000 N 
ATOM      4  H   UNL     1       2.162   5.444  20.456  0.00  0.00    +0.000 HD
ENDROOT
BRANCH   2   5
ATOM      5  C   UNL     1       1.849   7.992  19.748  0.00  0.00    +0.000 A 
ATOM      6  C   UNL     1       1.536   7.680  21.085  0.00  0.00    +0.000 A 
ATOM      7  C   UNL     1       0.843   8.586  21.891  0.00  0.00    +0.000 A 
ATOM      8  C   UNL     1       0.453   9.813  21.367  0.00  0.00    +0.000 A 
ATOM      9 CL   UNL     1      -0.436  10.916  22.341  0.00  0.00    +0.000 Cl
ATOM     10  C   UNL     1       0.767  10.148  20.050  0.00  0.00    +0.000 A 
ATOM     11  C   UNL     1       1.470   9.243  19.240  0.00  0.00    +0.000 A 
ATOM     12 CL   UNL     1       1.766   9.736  17.611  0.00  0.00    +0.000 Cl
ENDBRANCH   2   5
BRANCH   3  13
ATOM     13  S   UNL     1       3.150   4.290  18.775  0.00  0.00    +0.000 S 
ATOM     14  O   UNL     1       3.181   3.250  19.785  0.00  0.00    +0.000 OA
ATOM     15  O   UNL     1       2.420   4.083  17.543  0.00  0.00    +0.000 OA
BRANCH  13  16
ATOM     16  C   UNL     1       4.838   4.716  18.400  0.00  0.00    +0.000 A 
ATOM     17  C   UNL     1       5.649   5.197  19.443  0.00  0.00    +0.000 A 
ATOM     18  C   UNL     1       6.955   5.595  19.192  0.00  0.00    +0.000 A 
ATOM     19  C   UNL     1       7.480   5.521  17.903  0.00  0.00    +0.000 A 
ATOM     20  C   UNL     1       6.667   5.037  16.858  0.00  0.00    +0.000 A 
ATOM     21  S   UNL     1       7.129   4.871  15.204  0.00  0.00    +0.000 S 
ATOM     22  C   UNL     1       5.594   4.289  14.759  0.00  0.00    +0.000 A 
ATOM     23  C   UNL     1       4.743   4.210  15.835  0.00  0.00    +0.000 A 
ATOM     24  C   UNL     1       5.344   4.632  17.073  0.00  0.00    +0.000 A 
ENDBRANCH  13  16
ENDBRANCH   3  13
TORSDOF 3
ENDMDL
MODEL 2
REMARK VINA RESULT:      -7.6      3.930      8.040
REMARK  Name = 
REMARK  3 active torsions:
REMARK  status: ('A' for Active; 'I' for Inactive)
REMARK    1  A    between atoms: C_2  and  C_16
REMARK    2  A    between atoms: N_3  and  S_4
REMARK    3  A    between atoms: S_4  and  C_7
REMARK                            x       y       z     vdW  Elec       q    Type
REMARK                         _______ _______ _______ _____ _____    ______ ____
ROOT
ATOM      1  O   UNL     1       2.512   8.577  17.112  0.00  0.00    +0.000 OA
ATOM      2  C   UNL     1       2.267   8.033  18.177  0.00  0.00    +0.000 C 
ATOM      3  N   UNL     1       1.448   8.601  19.155  0.00  0.00    +0.000 N 
ATOM      4  H   UNL     1       1.217   8.120  20.019  0.00  0.00    +0.000 HD
ENDROOT
BRANCH   2   5
ATOM      5  C   UNL     1       2.879   6.714  18.486  0.00  0.00    +0.000 A 
ATOM      6  C   UNL     1       2.345   6.039  19.601  0.00  0.00    +0.000 A 
ATOM      7  C   UNL     1       2.875   4.816  20.021  0.00  0.00    +0.000 A 
ATOM      8  C   UNL     1       3.945   4.258  19.331  0.00  0.00    +0.000 A 
ATOM      9 CL   UNL     1       4.628   2.774  19.868  0.00  0.00    +0.000 Cl
ATOM     10  C   UNL     1       4.477   4.903  18.215  0.00  0.00    +0.000 A 
ATOM     11  C   UNL     1       3.943   6.127  17.786  0.00  0.00    +0.000 A 
ATOM     12 CL   UNL     1       4.706   6.865  16.424  0.00  0.00    +0.000 Cl
ENDBRANCH   2   5
BRANCH   3  13
ATOM     13  S   UNL     1       0.777  10.121  19.051  0.00  0.00    +0.000 S 
ATOM     14  O   UNL     1       1.895  11.035  18.913  0.00  0.00    +0.000 OA
ATOM     15  O   UNL     1      -0.271  10.101  18.053  0.00  0.00    +0.000 OA
BRANCH  13  16
ATOM     16  C   UNL     1       0.062  10.396  20.658  0.00  0.00    +0.000 A 
ATOM     17  C   UNL     1       0.164   9.370  21.614  0.00  0.00    +0.000 A 
ATOM     18  C   UNL     1      -0.424   9.513  22.864  0.00  0.00    +0.000 A 
ATOM     19  C   UNL     1      -1.121  10.676  23.188  0.00  0.00    +0.000 A 
ATOM     20  C   UNL     1      -1.221  11.704  22.229  0.00  0.00    +0.000 A 
ATOM     21  S   UNL     1      -2.037  13.210  22.435  0.00  0.00    +0.000 S 
ATOM     22  C   UNL     1      -1.660  13.714  20.855  0.00  0.00    +0.000 A 
ATOM     23  C   UNL     1      -0.923  12.772  20.179  0.00  0.00    +0.000 A 
ATOM     24  C   UNL     1      -0.645  11.593  20.957  0.00  0.00    +0.000 A 
ENDBRANCH  13  16
ENDBRANCH   3  13
TORSDOF 3
ENDMDL
MODEL 3
REMARK VINA RESULT:      -7.5      3.219      7.490
REMARK  Name = 
REMARK  3 active torsions:
REMARK  status: ('A' for Active; 'I' for Inactive)
REMARK    1  A    between atoms: C_2  and  C_16
REMARK    2  A    between atoms: N_3  and  S_4
REMARK    3  A    between atoms: S_4  and  C_7
REMARK                            x       y       z     vdW  Elec       q    Type
REMARK                         _______ _______ _______ _____ _____    ______ ____
ROOT
ATOM      1  O   UNL     1       4.582   3.833  18.218  0.00  0.00    +0.000 OA
ATOM      2  C   UNL     1       4.559   4.817  17.496  0.00  0.00    +0.000 C 
ATOM      3  N   UNL     1       3.784   5.946  17.766  0.00  0.00    +0.000 N 
ATOM      4  H   UNL     1       3.806   6.776  17.181  0.00  0.00    +0.000 HD
ENDROOT
BRANCH   2   5
ATOM      5  C   UNL     1       5.366   4.831  16.247  0.00  0.00    +0.000 A 
ATOM      6  C   UNL     1       4.798   4.164  15.144  0.00  0.00    +0.000 A 
ATOM      7  C   UNL     1       5.486   4.065  13.932  0.00  0.00    +0.000 A 
ATOM      8  C   UNL     1       6.750   4.630  13.812  0.00  0.00    +0.000 A 
ATOM      9 CL   UNL     1       7.619   4.476  12.336  0.00  0.00    +0.000 Cl
ATOM     10  C   UNL     1       7.323   5.309  14.887  0.00  0.00    +0.000 A 
ATOM     11  C   UNL     1       6.632   5.417  16.103  0.00  0.00    +0.000 A 
ATOM     12 CL   UNL     1       7.451   6.235  17.385  0.00  0.00    +0.000 Cl
ENDBRANCH   2   5
BRANCH   3  13
ATOM     13  S   UNL     1       2.720   6.070  19.041  0.00  0.00    +0.000 S 
ATOM     14  O   UNL     1       1.616   5.186  18.719  0.00  0.00    +0.000 OA
ATOM     15  O   UNL     1       3.452   5.897  20.278  0.00  0.00    +0.000 OA
BRANCH  13  16
ATOM     16  C   UNL     1       2.110   7.740  18.941  0.00  0.00    +0.000 A 
ATOM     17  C   UNL     1       2.374   8.475  17.772  0.00  0.00    +0.000 A 
ATOM     18  C   UNL     1       1.968   9.798  17.667  0.00  0.00    +0.000 A 
ATOM     19  C   UNL     1       1.290  10.415  18.717  0.00  0.00    +0.000 A 
ATOM     20  C   UNL     1       1.024   9.676  19.888  0.00  0.00    +0.000 A 
ATOM     21  S   UNL     1       0.204  10.257  21.291  0.00  0.00    +0.000 S 
ATOM     22  C   UNL     1       0.387   8.772  22.101  0.00  0.00    +0.000 A 
ATOM     23  C   UNL     1       1.047   7.845  21.330  0.00  0.00    +0.000 A 
ATOM     24  C   UNL     1       1.424   8.342  20.032  0.00  0.00    +0.000 A 
ENDBRANCH  13  16
ENDBRANCH   3  13
TORSDOF 3
ENDMDL
MODEL 4
REMARK VINA RESULT:      -7.4      4.196      8.419
REMARK  Name = 
REMARK  3 active torsions:
REMARK  status: ('A' for Active; 'I' for Inactive)
REMARK    1  A    between atoms: C_2  and  C_16
REMARK    2  A    between atoms: N_3  and  S_4
REMARK    3  A    between atoms: S_4  and  C_7
REMARK                            x       y       z     vdW  Elec       q    Type
REMARK                         _______ _______ _______ _____ _____    ______ ____
ROOT
ATOM      1  O   UNL     1       2.177   9.188  17.156  0.00  0.00    +0.000 OA
ATOM      2  C   UNL     1       2.004   8.656  18.241  0.00  0.00    +0.000 C 
ATOM      3  N   UNL     1       1.180   9.192  19.233  0.00  0.00    +0.000 N 
ATOM      4  H   UNL     1       1.009   8.719  20.115  0.00  0.00    +0.000 HD
ENDROOT
BRANCH   2   5
ATOM      5  C   UNL     1       2.714   7.390  18.561  0.00  0.00    +0.000 A 
ATOM      6  C   UNL     1       3.687   6.981  17.628  0.00  0.00    +0.000 A 
ATOM      7  C   UNL     1       4.382   5.780  17.793  0.00  0.00    +0.000 A 
ATOM      8  C   UNL     1       4.108   4.975  18.893  0.00  0.00    +0.000 A 
ATOM      9 CL   UNL     1       4.930   3.476  19.081  0.00  0.00    +0.000 Cl
ATOM     10  C   UNL     1       3.161   5.369  19.837  0.00  0.00    +0.000 A 
ATOM     11  C   UNL     1       2.467   6.578  19.678  0.00  0.00    +0.000 A 
ATOM     12 CL   UNL     1       1.281   6.950  20.877  0.00  0.00    +0.000 Cl
ENDBRANCH   2   5
BRANCH   3  13
ATOM     13  S   UNL     1       0.404  10.661  19.115  0.00  0.00    +0.000 S 
ATOM     14  O   UNL     1       1.454  11.648  18.964  0.00  0.00    +0.000 OA
ATOM     15  O   UNL     1      -0.644  10.557  18.122  0.00  0.00    +0.000 OA
BRANCH  13  16
ATOM     16  C   UNL     1      -0.324  10.901  20.723  0.00  0.00    +0.000 A 
ATOM     17  C   UNL     1      -0.007   9.983  21.739  0.00  0.00    +0.000 A 
ATOM     18  C   UNL     1      -0.590  10.094  22.994  0.00  0.00    +0.000 A 
ATOM     19  C   UNL     1      -1.496  11.120  23.264  0.00  0.00    +0.000 A 
ATOM     20  C   UNL     1      -1.811  12.041  22.244  0.00  0.00    +0.000 A 
ATOM     21  S   UNL     1      -2.902  13.371  22.378  0.00  0.00    +0.000 S 
ATOM     22  C   UNL     1      -2.656  13.829  20.759  0.00  0.00    +0.000 A 
ATOM     23  C   UNL     1      -1.761  13.003  20.122  0.00  0.00    +0.000 A 
ATOM     24  C   UNL     1      -1.246  11.956  20.965  0.00  0.00    +0.000 A 
ENDBRANCH  13  16
ENDBRANCH   3  13
TORSDOF 3
ENDMDL
MODEL 5
REMARK VINA RESULT:      -7.2      4.607      8.514
REMARK  Name = 
REMARK  3 active torsions:
REMARK  status: ('A' for Active; 'I' for Inactive)
REMARK    1  A    between atoms: C_2  and  C_16
REMARK    2  A    between atoms: N_3  and  S_4
REMARK    3  A    between atoms: S_4  and  C_7
REMARK                            x       y       z     vdW  Elec       q    Type
REMARK                         _______ _______ _______ _____ _____    ______ ____
ROOT
ATOM      1  O   UNL     1       1.723   8.232  21.071  0.00  0.00    +0.000 OA
ATOM      2  C   UNL     1       1.758   8.267  19.851  0.00  0.00    +0.000 C 
ATOM      3  N   UNL     1       1.150   9.272  19.097  0.00  0.00    +0.000 N 
ATOM      4  H   UNL     1       1.222   9.314  18.085  0.00  0.00    +0.000 HD
ENDROOT
BRANCH   2   5
ATOM      5  C   UNL     1       2.451   7.184  19.104  0.00  0.00    +0.000 A 
ATOM      6  C   UNL     1       3.232   7.599  18.009  0.00  0.00    +0.000 A 
ATOM      7  C   UNL     1       3.888   6.668  17.199  0.00  0.00    +0.000 A 
ATOM      8  C   UNL     1       3.765   5.312  17.476  0.00  0.00    +0.000 A 
ATOM      9 CL   UNL     1       4.536   4.159  16.459  0.00  0.00    +0.000 Cl
ATOM     10  C   UNL     1       3.009   4.880  18.566  0.00  0.00    +0.000 A 
ATOM     11  C   UNL     1       2.357   5.813  19.386  0.00  0.00    +0.000 A 
ATOM     12 CL   UNL     1       1.408   5.172  20.678  0.00  0.00    +0.000 Cl
ENDBRANCH   2   5
BRANCH   3  13
ATOM     13  S   UNL     1       0.221  10.496  19.741  0.00  0.00    +0.000 S 
ATOM     14  O   UNL     1      -0.193  10.028  21.049  0.00  0.00    +0.000 OA
ATOM     15  O   UNL     1       0.941  11.745  19.611  0.00  0.00    +0.000 OA
BRANCH  13  16
ATOM     16  C   UNL     1      -1.228  10.536  18.706  0.00  0.00    +0.000 A 
ATOM     17  C   UNL     1      -1.201   9.818  17.498  0.00  0.00    +0.000 A 
ATOM     18  C   UNL     1      -2.284   9.862  16.631  0.00  0.00    +0.000 A 
ATOM     19  C   UNL     1      -3.414  10.615  16.948  0.00  0.00    +0.000 A 
ATOM     20  C   UNL     1      -3.440  11.333  18.162  0.00  0.00    +0.000 A 
ATOM     21  S   UNL     1      -4.736  12.318  18.731  0.00  0.00    +0.000 S 
ATOM     22  C   UNL     1      -3.887  12.745  20.142  0.00  0.00    +0.000 A 
ATOM     23  C   UNL     1      -2.649  12.152  20.195  0.00  0.00    +0.000 A 
ATOM     24  C   UNL     1      -2.364  11.316  19.058  0.00  0.00    +0.000 A 
ENDBRANCH  13  16
ENDBRANCH   3  13
TORSDOF 3
ENDMDL
MODEL 6
REMARK VINA RESULT:      -7.2      0.982      1.082
REMARK  Name = 
REMARK  3 active torsions:
REMARK  status: ('A' for Active; 'I' for Inactive)
REMARK    1  A    between atoms: C_2  and  C_16
REMARK    2  A    between atoms: N_3  and  S_4
REMARK    3  A    between atoms: S_4  and  C_7
REMARK                            x       y       z     vdW  Elec       q    Type
REMARK                         _______ _______ _______ _____ _____    ______ ____
ROOT
ATOM      1  O   UNL     1       1.265   5.662  20.846  0.00  0.00    +0.000 OA
ATOM      2  C   UNL     1       1.828   6.504  20.165  0.00  0.00    +0.000 C 
ATOM      3  N   UNL     1       2.798   6.191  19.210  0.00  0.00    +0.000 N 
ATOM      4  H   UNL     1       3.228   6.896  18.619  0.00  0.00    +0.000 HD
ENDROOT
BRANCH   2   5
ATOM      5  C   UNL     1       1.506   7.942  20.358  0.00  0.00    +0.000 A 
ATOM      6  C   UNL     1       1.209   8.331  21.679  0.00  0.00    +0.000 A 
ATOM      7  C   UNL     1       0.840   9.645  21.976  0.00  0.00    +0.000 A 
ATOM      8  C   UNL     1       0.761  10.584  20.954  0.00  0.00    +0.000 A 
ATOM      9 CL   UNL     1       0.267  12.192  21.306  0.00  0.00    +0.000 Cl
ATOM     10  C   UNL     1       1.067  10.223  19.641  0.00  0.00    +0.000 A 
ATOM     11  C   UNL     1       1.445   8.906  19.341  0.00  0.00    +0.000 A 
ATOM     12 CL   UNL     1       1.755   8.553  17.679  0.00  0.00    +0.000 Cl
ENDBRANCH   2   5
BRANCH   3  13
ATOM     13  S   UNL     1       3.386   4.657  18.937  0.00  0.00    +0.000 S 
ATOM     14  O   UNL     1       3.430   4.017  20.238  0.00  0.00    +0.000 OA
ATOM     15  O   UNL     1       2.635   4.055  17.857  0.00  0.00    +0.000 OA
BRANCH  13  16
ATOM     16  C   UNL     1       5.069   4.919  18.417  0.00  0.00    +0.000 A 
ATOM     17  C   UNL     1       6.002   5.346  19.378  0.00  0.00    +0.000 A 
ATOM     18  C   UNL     1       7.313   5.617  19.012  0.00  0.00    +0.000 A 
ATOM     19  C   UNL     1       7.722   5.468  17.687  0.00  0.00    +0.000 A 
ATOM     20  C   UNL     1       6.786   5.039  16.725  0.00  0.00    +0.000 A 
ATOM     21  S   UNL     1       7.093   4.796  15.045  0.00  0.00    +0.000 S 
ATOM     22  C   UNL     1       5.481   4.348  14.740  0.00  0.00    +0.000 A 
ATOM     23  C   UNL     1       4.718   4.370  15.883  0.00  0.00    +0.000 A 
ATOM     24  C   UNL     1       5.454   4.761  17.057  0.00  0.00    +0.000 A 
ENDBRANCH  13  16
ENDBRANCH   3  13
TORSDOF 3
ENDMDL
MODEL 7
REMARK VINA RESULT:      -7.2      1.238      1.722
REMARK  Name = 
REMARK  3 active torsions:
REMARK  status: ('A' for Active; 'I' for Inactive)
REMARK    1  A    between atoms: C_2  and  C_16
REMARK    2  A    between atoms: N_3  and  S_4
REMARK    3  A    between atoms: S_4  and  C_7
REMARK                            x       y       z     vdW  Elec       q    Type
REMARK                         _______ _______ _______ _____ _____    ______ ____
ROOT
ATOM      1  O   UNL     1       3.441   7.242  17.368  0.00  0.00    +0.000 OA
ATOM      2  C   UNL     1       2.715   7.188  18.347  0.00  0.00    +0.000 C 
ATOM      3  N   UNL     1       2.487   6.013  19.067  0.00  0.00    +0.000 N 
ATOM      4  H   UNL     1       1.915   5.989  19.906  0.00  0.00    +0.000 HD
ENDROOT
BRANCH   2   5
ATOM      5  C   UNL     1       2.003   8.411  18.804  0.00  0.00    +0.000 A 
ATOM      6  C   UNL     1       2.023   9.499  17.910  0.00  0.00    +0.000 A 
ATOM      7  C   UNL     1       1.434  10.720  18.251  0.00  0.00    +0.000 A 
ATOM      8  C   UNL     1       0.822  10.864  19.490  0.00  0.00    +0.000 A 
ATOM      9 CL   UNL     1       0.131  12.375  19.932  0.00  0.00    +0.000 Cl
ATOM     10  C   UNL     1       0.776   9.793  20.383  0.00  0.00    +0.000 A 
ATOM     11  C   UNL     1       1.360   8.564  20.040  0.00  0.00    +0.000 A 
ATOM     12 CL   UNL     1       1.291   7.319  21.235  0.00  0.00    +0.000 Cl
ENDBRANCH   2   5
BRANCH   3  13
ATOM     13  S   UNL     1       3.087   4.519  18.639  0.00  0.00    +0.000 S 
ATOM     14  O   UNL     1       3.008   3.707  19.838  0.00  0.00    +0.000 OA
ATOM     15  O   UNL     1       2.434   4.085  17.423  0.00  0.00    +0.000 OA
BRANCH  13  16
ATOM     16  C   UNL     1       4.812   4.818  18.314  0.00  0.00    +0.000 A 
ATOM     17  C   UNL     1       5.627   5.236  19.381  0.00  0.00    +0.000 A 
ATOM     18  C   UNL     1       6.965   5.534  19.168  0.00  0.00    +0.000 A 
ATOM     19  C   UNL     1       7.521   5.422  17.894  0.00  0.00    +0.000 A 
ATOM     20  C   UNL     1       6.703   5.001  16.825  0.00  0.00    +0.000 A 
ATOM     21  S   UNL     1       7.198   4.801  15.185  0.00  0.00    +0.000 S 
ATOM     22  C   UNL     1       5.637   4.337  14.694  0.00  0.00    +0.000 A 
ATOM     23  C   UNL     1       4.753   4.321  15.746  0.00  0.00    +0.000 A 
ATOM     24  C   UNL     1       5.348   4.696  17.002  0.00  0.00    +0.000 A 
ENDBRANCH  13  16
ENDBRANCH   3  13
TORSDOF 3
ENDMDL
MODEL 8
REMARK VINA RESULT:      -7.1      4.505      7.756
REMARK  Name = 
REMARK  3 active torsions:
REMARK  status: ('A' for Active; 'I' for Inactive)
REMARK    1  A    between atoms: C_2  and  C_16
REMARK    2  A    between atoms: N_3  and  S_4
REMARK    3  A    between atoms: S_4  and  C_7
REMARK                            x       y       z     vdW  Elec       q    Type
REMARK                         _______ _______ _______ _____ _____    ______ ____
ROOT
ATOM      1  O   UNL     1       5.523   6.540  15.037  0.00  0.00    +0.000 OA
ATOM      2  C   UNL     1       6.062   5.450  15.144  0.00  0.00    +0.000 C 
ATOM      3  N   UNL     1       6.537   4.947  16.357  0.00  0.00    +0.000 N 
ATOM      4  H   UNL     1       6.945   4.021  16.441  0.00  0.00    +0.000 HD
ENDROOT
BRANCH   2   5
ATOM      5  C   UNL     1       6.260   4.606  13.936  0.00  0.00    +0.000 A 
ATOM      6  C   UNL     1       5.292   3.607  13.722  0.00  0.00    +0.000 A 
ATOM      7  C   UNL     1       5.401   2.718  12.649  0.00  0.00    +0.000 A 
ATOM      8  C   UNL     1       6.482   2.819  11.781  0.00  0.00    +0.000 A 
ATOM      9 CL   UNL     1       6.644   1.703  10.484  0.00  0.00    +0.000 Cl
ATOM     10  C   UNL     1       7.443   3.813  11.966  0.00  0.00    +0.000 A 
ATOM     11  C   UNL     1       7.332   4.711  13.038  0.00  0.00    +0.000 A 
ATOM     12 CL   UNL     1       8.601   5.871  13.205  0.00  0.00    +0.000 Cl
ENDBRANCH   2   5
BRANCH   3  13
ATOM     13  S   UNL     1       6.525   5.792  17.792  0.00  0.00    +0.000 S 
ATOM     14  O   UNL     1       7.261   4.973  18.736  0.00  0.00    +0.000 OA
ATOM     15  O   UNL     1       6.939   7.154  17.535  0.00  0.00    +0.000 OA
BRANCH  13  16
ATOM     16  C   UNL     1       4.816   5.775  18.295  0.00  0.00    +0.000 A 
ATOM     17  C   UNL     1       4.044   6.925  18.059  0.00  0.00    +0.000 A 
ATOM     18  C   UNL     1       2.723   6.983  18.481  0.00  0.00    +0.000 A 
ATOM     19  C   UNL     1       2.144   5.900  19.142  0.00  0.00    +0.000 A 
ATOM     20  C   UNL     1       2.920   4.747  19.376  0.00  0.00    +0.000 A 
ATOM     21  S   UNL     1       2.391   3.312  20.174  0.00  0.00    +0.000 S 
ATOM     22  C   UNL     1       3.914   2.573  20.011  0.00  0.00    +0.000 A 
ATOM     23  C   UNL     1       4.811   3.385  19.358  0.00  0.00    +0.000 A 
ATOM     24  C   UNL     1       4.257   4.655  18.970  0.00  0.00    +0.000 A 
ENDBRANCH  13  16
ENDBRANCH   3  13
TORSDOF 3
ENDMDL
MODEL 9
REMARK VINA RESULT:      -7.1      2.244      3.871
REMARK  Name = 
REMARK  3 active torsions:
REMARK  status: ('A' for Active; 'I' for Inactive)
REMARK    1  A    between atoms: C_2  and  C_16
REMARK    2  A    between atoms: N_3  and  S_4
REMARK    3  A    between atoms: S_4  and  C_7
REMARK                            x       y       z     vdW  Elec       q    Type
REMARK                         _______ _______ _______ _____ _____    ______ ____
ROOT
ATOM      1  O   UNL     1       2.049   6.665  17.909  0.00  0.00    +0.000 OA
ATOM      2  C   UNL     1       2.553   7.170  18.899  0.00  0.00    +0.000 C 
ATOM      3  N   UNL     1       3.832   6.844  19.356  0.00  0.00    +0.000 N 
ATOM      4  H   UNL     1       4.258   7.302  20.156  0.00  0.00    +0.000 HD
ENDROOT
BRANCH   2   5
ATOM      5  C   UNL     1       1.782   8.163  19.693  0.00  0.00    +0.000 A 
ATOM      6  C   UNL     1       1.375   7.739  20.972  0.00  0.00    +0.000 A 
ATOM      7  C   UNL     1       0.599   8.566  21.790  0.00  0.00    +0.000 A 
ATOM      8  C   UNL     1       0.221   9.823  21.333  0.00  0.00    +0.000 A 
ATOM      9 CL   UNL     1      -0.768  10.828  22.317  0.00  0.00    +0.000 Cl
ATOM     10  C   UNL     1       0.628  10.268  20.075  0.00  0.00    +0.000 A 
ATOM     11  C   UNL     1       1.413   9.443  19.256  0.00  0.00    +0.000 A 
ATOM     12 CL   UNL     1       1.822  10.070  17.699  0.00  0.00    +0.000 Cl
ENDBRANCH   2   5
BRANCH   3  13
ATOM     13  S   UNL     1       4.798   5.667  18.682  0.00  0.00    +0.000 S 
ATOM     14  O   UNL     1       5.076   6.114  17.331  0.00  0.00    +0.000 OA
ATOM     15  O   UNL     1       5.887   5.380  19.590  0.00  0.00    +0.000 OA
BRANCH  13  16
ATOM     16  C   UNL     1       3.734   4.243  18.562  0.00  0.00    +0.000 A 
ATOM     17  C   UNL     1       3.612   3.608  17.314  0.00  0.00    +0.000 A 
ATOM     18  C   UNL     1       2.754   2.529  17.156  0.00  0.00    +0.000 A 
ATOM     19  C   UNL     1       2.003   2.059  18.232  0.00  0.00    +0.000 A 
ATOM     20  C   UNL     1       2.128   2.696  19.484  0.00  0.00    +0.000 A 
ATOM     21  S   UNL     1       1.289   2.268  20.930  0.00  0.00    +0.000 S 
ATOM     22  C   UNL     1       2.019   3.525  21.812  0.00  0.00    +0.000 A 
ATOM     23  C   UNL     1       2.889   4.256  21.039  0.00  0.00    +0.000 A 
ATOM     24  C   UNL     1       2.979   3.790  19.679  0.00  0.00    +0.000 A 
ENDBRANCH  13  16
ENDBRANCH   3  13
TORSDOF 3
ENDMDL
