MODEL 1
REMARK VINA RESULT:      -8.0      0.000      0.000
REMARK  Name = 
REMARK  10 active torsions:
REMARK  status: ('A' for Active; 'I' for Inactive)
REMARK    1  A    between atoms: C_1  and  C_2
REMARK    2  A    between atoms: C_2  and  C_3
REMARK    3  A    between atoms: C_2  and  C_4
REMARK    4  A    between atoms: C_2  and  C_5
REMARK    5  A    between atoms: C_8  and  S_9
REMARK    6  A    between atoms: S_9  and  N_12
REMARK    7  A    between atoms: N_12  and  C_13
REMARK    8  A    between atoms: C_13  and  C_14
REMARK    9  A    between atoms: N_22  and  C_23
REMARK   10  A    between atoms: C_23  and  C_24
REMARK                            x       y       z     vdW  Elec       q    Type
REMARK                         _______ _______ _______ _____ _____    ______ ____
ROOT
ATOM      1  C   UNL     1       2.663   6.080  19.150  0.00  0.00    +0.000 A 
ATOM      2  N   UNL     1       1.910   5.851  20.216  0.00  0.00    +0.000 NA
ATOM      3  C   UNL     1       2.210   4.572  20.609  0.00  0.00    +0.000 A 
ATOM      4  C   UNL     1       1.663   3.765  21.612  0.00  0.00    +0.000 A 
ATOM      5  C   UNL     1       2.178   2.473  21.744  0.00  0.00    +0.000 A 
ATOM      6  C   UNL     1       3.205   2.063  20.899  0.00  0.00    +0.000 A 
ATOM      7  N   UNL     1       3.762   2.803  19.909  0.00  0.00    +0.000 NA
ATOM      8  C   UNL     1       3.216   4.032  19.818  0.00  0.00    +0.000 A 
ATOM      9  N   UNL     1       3.469   4.991  18.870  0.00  0.00    +0.000 N 
ENDROOT
BRANCH   1  10
ATOM     10  C   UNL     1       2.632   7.330  18.329  0.00  0.00    +0.000 C 
BRANCH  10  11
ATOM     11  N   UNL     1       1.906   8.349  19.087  0.00  0.00    +0.000 NA
ATOM     12  H   UNL     1       1.261   7.964  19.779  0.00  0.00    +0.000 HD
BRANCH  11  13
ATOM     13  S   UNL     1       1.196   9.574  18.168  0.00  0.00    +0.000 S 
ATOM     14  O   UNL     1       0.321   8.944  17.200  0.00  0.00    +0.000 OA
ATOM     15  O   UNL     1       2.255  10.475  17.774  0.00  0.00    +0.000 OA
BRANCH  13  19
ATOM     16  C   UNL     1      -1.264  11.907  21.271  0.00  0.00    +0.000 A 
ATOM     17  C   UNL     1      -0.153  11.120  21.636  0.00  0.00    +0.000 A 
ATOM     18  C   UNL     1       0.587  10.409  20.691  0.00  0.00    +0.000 A 
ATOM     19  C   UNL     1       0.197  10.431  19.354  0.00  0.00    +0.000 A 
ATOM     20  C   UNL     1      -0.938  11.140  18.965  0.00  0.00    +0.000 A 
ATOM     21  C   UNL     1      -1.661  11.866  19.922  0.00  0.00    +0.000 A 
BRANCH  16  23
ATOM     22  C   UNL     1      -3.044  13.688  21.654  0.00  0.00    +0.000 C 
ATOM     23  C   UNL     1      -1.979  12.784  22.319  0.00  0.00    +0.000 C 
ATOM     24  C   UNL     1      -0.958  13.683  23.049  0.00  0.00    +0.000 C 
ATOM     25  C   UNL     1      -2.726  11.957  23.393  0.00  0.00    +0.000 C 
ENDBRANCH  16  23
ENDBRANCH  13  19
ENDBRANCH  11  13
ENDBRANCH  10  11
ENDBRANCH   1  10
BRANCH   9  26
ATOM     26  C   UNL     1       4.383   4.841  17.742  0.00  0.00    +0.000 C 
BRANCH  26  27
ATOM     27  C   UNL     1       5.690   5.593  17.928  0.00  0.00    +0.000 A 
ATOM     28  C   UNL     1       6.514   5.357  19.047  0.00  0.00    +0.000 A 
ATOM     29  C   UNL     1       7.714   6.049  19.233  0.00  0.00    +0.000 A 
ATOM     30  C   UNL     1       8.114   7.007  18.311  0.00  0.00    +0.000 A 
ATOM     31  C   UNL     1       7.301   7.289  17.216  0.00  0.00    +0.000 A 
ATOM     32  C   UNL     1       6.092   6.602  17.034  0.00  0.00    +0.000 A 
ATOM     33 CL   UNL     1       5.116   7.074  15.687  0.00  0.00    +0.000 Cl
ENDBRANCH  26  27
ENDBRANCH   9  26
TORSDOF 7
ENDMDL
MODEL 2
REMARK VINA RESULT:      -8.0      3.927      9.195
REMARK  Name = 
REMARK  10 active torsions:
REMARK  status: ('A' for Active; 'I' for Inactive)
REMARK    1  A    between atoms: C_1  and  C_2
REMARK    2  A    between atoms: C_2  and  C_3
REMARK    3  A    between atoms: C_2  and  C_4
REMARK    4  A    between atoms: C_2  and  C_5
REMARK    5  A    between atoms: C_8  and  S_9
REMARK    6  A    between atoms: S_9  and  N_12
REMARK    7  A    between atoms: N_12  and  C_13
REMARK    8  A    between atoms: C_13  and  C_14
REMARK    9  A    between atoms: N_22  and  C_23
REMARK   10  A    between atoms: C_23  and  C_24
REMARK                            x       y       z     vdW  Elec       q    Type
REMARK                         _______ _______ _______ _____ _____    ______ ____
ROOT
ATOM      1  C   UNL     1       3.237   7.340  18.026  0.00  0.00    +0.000 A 
ATOM      2  N   UNL     1       2.749   8.472  17.542  0.00  0.00    +0.000 NA
ATOM      3  C   UNL     1       1.850   8.915  18.478  0.00  0.00    +0.000 A 
ATOM      4  C   UNL     1       0.970  10.002  18.468  0.00  0.00    +0.000 A 
ATOM      5  C   UNL     1       0.147  10.169  19.585  0.00  0.00    +0.000 A 
ATOM      6  C   UNL     1       0.252   9.271  20.644  0.00  0.00    +0.000 A 
ATOM      7  N   UNL     1       1.080   8.199  20.697  0.00  0.00    +0.000 NA
ATOM      8  C   UNL     1       1.838   8.080  19.588  0.00  0.00    +0.000 A 
ATOM      9  N   UNL     1       2.700   7.061  19.270  0.00  0.00    +0.000 N 
ENDROOT
BRANCH   1  10
ATOM     10  C   UNL     1       4.212   6.452  17.319  0.00  0.00    +0.000 C 
BRANCH  10  11
ATOM     11  N   UNL     1       5.504   6.576  17.995  0.00  0.00    +0.000 NA
ATOM     12  H   UNL     1       6.046   7.390  17.698  0.00  0.00    +0.000 HD
BRANCH  11  13
ATOM     13  S   UNL     1       6.440   5.172  18.041  0.00  0.00    +0.000 S 
ATOM     14  O   UNL     1       5.719   4.192  18.828  0.00  0.00    +0.000 OA
ATOM     15  O   UNL     1       7.789   5.574  18.364  0.00  0.00    +0.000 OA
BRANCH  13  19
ATOM     16  C   UNL     1       6.291   3.865  13.638  0.00  0.00    +0.000 A 
ATOM     17  C   UNL     1       5.496   3.252  14.627  0.00  0.00    +0.000 A 
ATOM     18  C   UNL     1       5.549   3.649  15.964  0.00  0.00    +0.000 A 
ATOM     19  C   UNL     1       6.444   4.643  16.350  0.00  0.00    +0.000 A 
ATOM     20  C   UNL     1       7.297   5.224  15.414  0.00  0.00    +0.000 A 
ATOM     21  C   UNL     1       7.220   4.829  14.071  0.00  0.00    +0.000 A 
BRANCH  16  23
ATOM     22  C   UNL     1       4.648   3.695  11.699  0.00  0.00    +0.000 C 
ATOM     23  C   UNL     1       6.114   3.495  12.151  0.00  0.00    +0.000 C 
ATOM     24  C   UNL     1       6.501   2.017  11.918  0.00  0.00    +0.000 C 
ATOM     25  C   UNL     1       6.979   4.359  11.204  0.00  0.00    +0.000 C 
ENDBRANCH  16  23
ENDBRANCH  13  19
ENDBRANCH  11  13
ENDBRANCH  10  11
ENDBRANCH   1  10
BRANCH   9  26
ATOM     26  C   UNL     1       2.941   5.876  20.087  0.00  0.00    +0.000 C 
BRANCH  26  27
ATOM     27  C   UNL     1       2.213   4.642  19.579  0.00  0.00    +0.000 A 
ATOM     28  C   UNL     1       1.723   4.577  18.259  0.00  0.00    +0.000 A 
ATOM     29  C   UNL     1       1.044   3.451  17.784  0.00  0.00    +0.000 A 
ATOM     30  C   UNL     1       0.823   2.367  18.623  0.00  0.00    +0.000 A 
ATOM     31  C   UNL     1       1.261   2.420  19.944  0.00  0.00    +0.000 A 
ATOM     32  C   UNL     1       1.933   3.553  20.424  0.00  0.00    +0.000 A 
ATOM     33 CL   UNL     1       2.371   3.555  22.096  0.00  0.00    +0.000 Cl
ENDBRANCH  26  27
ENDBRANCH   9  26
TORSDOF 7
ENDMDL
MODEL 3
REMARK VINA RESULT:      -8.0      4.062      8.848
REMARK  Name = 
REMARK  10 active torsions:
REMARK  status: ('A' for Active; 'I' for Inactive)
REMARK    1  A    between atoms: C_1  and  C_2
REMARK    2  A    between atoms: C_2  and  C_3
REMARK    3  A    between atoms: C_2  and  C_4
REMARK    4  A    between atoms: C_2  and  C_5
REMARK    5  A    between atoms: C_8  and  S_9
REMARK    6  A    between atoms: S_9  and  N_12
REMARK    7  A    between atoms: N_12  and  C_13
REMARK    8  A    between atoms: C_13  and  C_14
REMARK    9  A    between atoms: N_22  and  C_23
REMARK   10  A    between atoms: C_23  and  C_24
REMARK                            x       y       z     vdW  Elec       q    Type
REMARK                         _______ _______ _______ _____ _____    ______ ____
ROOT
ATOM      1  C   UNL     1       4.231   4.758  19.173  0.00  0.00    +0.000 A 
ATOM      2  N   UNL     1       4.213   3.592  18.546  0.00  0.00    +0.000 NA
ATOM      3  C   UNL     1       2.942   3.105  18.715  0.00  0.00    +0.000 A 
ATOM      4  C   UNL     1       2.370   1.880  18.354  0.00  0.00    +0.000 A 
ATOM      5  C   UNL     1       1.032   1.672  18.701  0.00  0.00    +0.000 A 
ATOM      6  C   UNL     1       0.338   2.683  19.362  0.00  0.00    +0.000 A 
ATOM      7  N   UNL     1       0.850   3.880  19.741  0.00  0.00    +0.000 NA
ATOM      8  C   UNL     1       2.145   4.018  19.394  0.00  0.00    +0.000 A 
ATOM      9  N   UNL     1       2.990   5.051  19.711  0.00  0.00    +0.000 N 
ENDROOT
BRANCH   1  10
ATOM     10  C   UNL     1       5.433   5.637  19.319  0.00  0.00    +0.000 C 
BRANCH  10  11
ATOM     11  N   UNL     1       5.734   6.209  18.006  0.00  0.00    +0.000 NA
ATOM     12  H   UNL     1       4.966   6.130  17.338  0.00  0.00    +0.000 HD
BRANCH  11  13
ATOM     13  S   UNL     1       7.212   5.749  17.333  0.00  0.00    +0.000 S 
ATOM     14  O   UNL     1       7.738   4.662  18.133  0.00  0.00    +0.000 OA
ATOM     15  O   UNL     1       7.963   6.961  17.094  0.00  0.00    +0.000 OA
BRANCH  13  19
ATOM     16  C   UNL     1       6.131   3.972  13.235  0.00  0.00    +0.000 A 
ATOM     17  C   UNL     1       7.279   4.768  13.426  0.00  0.00    +0.000 A 
ATOM     18  C   UNL     1       7.600   5.309  14.671  0.00  0.00    +0.000 A 
ATOM     19  C   UNL     1       6.744   5.106  15.750  0.00  0.00    +0.000 A 
ATOM     20  C   UNL     1       5.563   4.384  15.585  0.00  0.00    +0.000 A 
ATOM     21  C   UNL     1       5.262   3.829  14.333  0.00  0.00    +0.000 A 
BRANCH  16  23
ATOM     22  C   UNL     1       6.300   1.793  11.927  0.00  0.00    +0.000 C 
ATOM     23  C   UNL     1       5.875   3.280  11.881  0.00  0.00    +0.000 C 
ATOM     24  C   UNL     1       6.674   3.984  10.762  0.00  0.00    +0.000 C 
ATOM     25  C   UNL     1       4.385   3.290  11.467  0.00  0.00    +0.000 C 
ENDBRANCH  16  23
ENDBRANCH  13  19
ENDBRANCH  11  13
ENDBRANCH  10  11
ENDBRANCH   1  10
BRANCH   9  26
ATOM     26  C   UNL     1       2.636   6.210  20.525  0.00  0.00    +0.000 C 
BRANCH  26  27
ATOM     27  C   UNL     1       2.164   7.396  19.701  0.00  0.00    +0.000 A 
ATOM     28  C   UNL     1       2.485   7.508  18.334  0.00  0.00    +0.000 A 
ATOM     29  C   UNL     1       2.063   8.599  17.568  0.00  0.00    +0.000 A 
ATOM     30  C   UNL     1       1.323   9.616  18.156  0.00  0.00    +0.000 A 
ATOM     31  C   UNL     1       1.025   9.552  19.515  0.00  0.00    +0.000 A 
ATOM     32  C   UNL     1       1.455   8.463  20.286  0.00  0.00    +0.000 A 
ATOM     33 CL   UNL     1       1.101   8.509  21.977  0.00  0.00    +0.000 Cl
ENDBRANCH  26  27
ENDBRANCH   9  26
TORSDOF 7
ENDMDL
MODEL 4
REMARK VINA RESULT:      -7.9      1.175      1.268
REMARK  Name = 
REMARK  10 active torsions:
REMARK  status: ('A' for Active; 'I' for Inactive)
REMARK    1  A    between atoms: C_1  and  C_2
REMARK    2  A    between atoms: C_2  and  C_3
REMARK    3  A    between atoms: C_2  and  C_4
REMARK    4  A    between atoms: C_2  and  C_5
REMARK    5  A    between atoms: C_8  and  S_9
REMARK    6  A    between atoms: S_9  and  N_12
REMARK    7  A    between atoms: N_12  and  C_13
REMARK    8  A    between atoms: C_13  and  C_14
REMARK    9  A    between atoms: N_22  and  C_23
REMARK   10  A    between atoms: C_23  and  C_24
REMARK                            x       y       z     vdW  Elec       q    Type
REMARK                         _______ _______ _______ _____ _____    ______ ____
ROOT
ATOM      1  C   UNL     1       2.345   6.640  19.446  0.00  0.00    +0.000 A 
ATOM      2  N   UNL     1       1.657   6.102  20.442  0.00  0.00    +0.000 NA
ATOM      3  C   UNL     1       1.803   4.746  20.297  0.00  0.00    +0.000 A 
ATOM      4  C   UNL     1       1.229   3.679  20.997  0.00  0.00    +0.000 A 
ATOM      5  C   UNL     1       1.564   2.387  20.578  0.00  0.00    +0.000 A 
ATOM      6  C   UNL     1       2.449   2.227  19.516  0.00  0.00    +0.000 A 
ATOM      7  N   UNL     1       3.023   3.227  18.803  0.00  0.00    +0.000 NA
ATOM      8  C   UNL     1       2.653   4.448  19.240  0.00  0.00    +0.000 A 
ATOM      9  N   UNL     1       2.961   5.664  18.685  0.00  0.00    +0.000 N 
ENDROOT
BRANCH   1  10
ATOM     10  C   UNL     1       2.426   8.105  19.151  0.00  0.00    +0.000 C 
BRANCH  10  11
ATOM     11  N   UNL     1       1.209   8.735  19.665  0.00  0.00    +0.000 NA
ATOM     12  H   UNL     1       0.463   8.072  19.880  0.00  0.00    +0.000 HD
BRANCH  11  13
ATOM     13  S   UNL     1       0.648  10.062  18.785  0.00  0.00    +0.000 S 
ATOM     14  O   UNL     1      -0.197   9.556  17.723  0.00  0.00    +0.000 OA
ATOM     15  O   UNL     1       1.790  10.908  18.522  0.00  0.00    +0.000 OA
BRANCH  13  19
ATOM     16  C   UNL     1      -1.865  12.377  21.858  0.00  0.00    +0.000 A 
ATOM     17  C   UNL     1      -0.770  11.575  22.240  0.00  0.00    +0.000 A 
ATOM     18  C   UNL     1      -0.014  10.869  21.303  0.00  0.00    +0.000 A 
ATOM     19  C   UNL     1      -0.371  10.912  19.958  0.00  0.00    +0.000 A 
ATOM     20  C   UNL     1      -1.489  11.638  19.551  0.00  0.00    +0.000 A 
ATOM     21  C   UNL     1      -2.229  12.358  20.499  0.00  0.00    +0.000 A 
BRANCH  16  23
ATOM     22  C   UNL     1      -3.584  14.222  22.216  0.00  0.00    +0.000 C 
ATOM     23  C   UNL     1      -2.597  13.247  22.900  0.00  0.00    +0.000 C 
ATOM     24  C   UNL     1      -1.579  14.074  23.717  0.00  0.00    +0.000 C 
ATOM     25  C   UNL     1      -3.435  12.417  23.902  0.00  0.00    +0.000 C 
ENDBRANCH  16  23
ENDBRANCH  13  19
ENDBRANCH  11  13
ENDBRANCH  10  11
ENDBRANCH   1  10
BRANCH   9  26
ATOM     26  C   UNL     1       3.748   5.861  17.472  0.00  0.00    +0.000 C 
BRANCH  26  27
ATOM     27  C   UNL     1       5.205   5.459  17.633  0.00  0.00    +0.000 A 
ATOM     28  C   UNL     1       5.934   5.808  18.788  0.00  0.00    +0.000 A 
ATOM     29  C   UNL     1       7.276   5.450  18.943  0.00  0.00    +0.000 A 
ATOM     30  C   UNL     1       7.930   4.748  17.939  0.00  0.00    +0.000 A 
ATOM     31  C   UNL     1       7.246   4.426  16.770  0.00  0.00    +0.000 A 
ATOM     32  C   UNL     1       5.902   4.791  16.609  0.00  0.00    +0.000 A 
ATOM     33 CL   UNL     1       5.161   4.412  15.094  0.00  0.00    +0.000 Cl
ENDBRANCH  26  27
ENDBRANCH   9  26
TORSDOF 7
ENDMDL
MODEL 5
REMARK VINA RESULT:      -7.9      2.293      3.193
REMARK  Name = 
REMARK  10 active torsions:
REMARK  status: ('A' for Active; 'I' for Inactive)
REMARK    1  A    between atoms: C_1  and  C_2
REMARK    2  A    between atoms: C_2  and  C_3
REMARK    3  A    between atoms: C_2  and  C_4
REMARK    4  A    between atoms: C_2  and  C_5
REMARK    5  A    between atoms: C_8  and  S_9
REMARK    6  A    between atoms: S_9  and  N_12
REMARK    7  A    between atoms: N_12  and  C_13
REMARK    8  A    between atoms: C_13  and  C_14
REMARK    9  A    between atoms: N_22  and  C_23
REMARK   10  A    between atoms: C_23  and  C_24
REMARK                            x       y       z     vdW  Elec       q    Type
REMARK                         _______ _______ _______ _____ _____    ______ ____
ROOT
ATOM      1  C   UNL     1       2.717   7.061  18.313  0.00  0.00    +0.000 A 
ATOM      2  N   UNL     1       1.700   6.361  18.793  0.00  0.00    +0.000 NA
ATOM      3  C   UNL     1       2.238   5.168  19.204  0.00  0.00    +0.000 A 
ATOM      4  C   UNL     1       1.634   4.009  19.704  0.00  0.00    +0.000 A 
ATOM      5  C   UNL     1       2.472   2.932  20.008  0.00  0.00    +0.000 A 
ATOM      6  C   UNL     1       3.845   3.067  19.819  0.00  0.00    +0.000 A 
ATOM      7  N   UNL     1       4.475   4.164  19.331  0.00  0.00    +0.000 NA
ATOM      8  C   UNL     1       3.617   5.162  19.041  0.00  0.00    +0.000 A 
ATOM      9  N   UNL     1       3.903   6.362  18.439  0.00  0.00    +0.000 N 
ENDROOT
BRANCH   1  10
ATOM     10  C   UNL     1       2.608   8.414  17.685  0.00  0.00    +0.000 C 
BRANCH  10  11
ATOM     11  N   UNL     1       1.239   8.893  17.882  0.00  0.00    +0.000 NA
ATOM     12  H   UNL     1       0.721   9.029  17.012  0.00  0.00    +0.000 HD
BRANCH  11  13
ATOM     13  S   UNL     1       1.069  10.202  18.933  0.00  0.00    +0.000 S 
ATOM     14  O   UNL     1       1.929  11.264  18.453  0.00  0.00    +0.000 OA
ATOM     15  O   UNL     1       1.169   9.681  20.277  0.00  0.00    +0.000 OA
BRANCH  13  19
ATOM     16  C   UNL     1      -3.354  11.321  18.371  0.00  0.00    +0.000 A 
ATOM     17  C   UNL     1      -2.744  10.286  17.633  0.00  0.00    +0.000 A 
ATOM     18  C   UNL     1      -1.400   9.954  17.803  0.00  0.00    +0.000 A 
ATOM     19  C   UNL     1      -0.617  10.691  18.688  0.00  0.00    +0.000 A 
ATOM     20  C   UNL     1      -1.166  11.766  19.385  0.00  0.00    +0.000 A 
ATOM     21  C   UNL     1      -2.523  12.077  19.218  0.00  0.00    +0.000 A 
BRANCH  16  23
ATOM     22  C   UNL     1      -5.240  12.107  16.852  0.00  0.00    +0.000 C 
ATOM     23  C   UNL     1      -4.871  11.575  18.256  0.00  0.00    +0.000 C 
ATOM     24  C   UNL     1      -5.319  12.614  19.308  0.00  0.00    +0.000 C 
ATOM     25  C   UNL     1      -5.717  10.298  18.470  0.00  0.00    +0.000 C 
ENDBRANCH  16  23
ENDBRANCH  13  19
ENDBRANCH  11  13
ENDBRANCH  10  11
ENDBRANCH   1  10
BRANCH   9  26
ATOM     26  C   UNL     1       5.222   6.774  17.968  0.00  0.00    +0.000 C 
BRANCH  26  27
ATOM     27  C   UNL     1       5.742   5.920  16.824  0.00  0.00    +0.000 A 
ATOM     28  C   UNL     1       5.025   5.803  15.616  0.00  0.00    +0.000 A 
ATOM     29  C   UNL     1       5.490   5.013  14.561  0.00  0.00    +0.000 A 
ATOM     30  C   UNL     1       6.677   4.305  14.693  0.00  0.00    +0.000 A 
ATOM     31  C   UNL     1       7.386   4.370  15.889  0.00  0.00    +0.000 A 
ATOM     32  C   UNL     1       6.916   5.154  16.952  0.00  0.00    +0.000 A 
ATOM     33 CL   UNL     1       7.826   5.112  18.421  0.00  0.00    +0.000 Cl
ENDBRANCH  26  27
ENDBRANCH   9  26
TORSDOF 7
ENDMDL
MODEL 6
REMARK VINA RESULT:      -7.9      3.508      7.728
REMARK  Name = 
REMARK  10 active torsions:
REMARK  status: ('A' for Active; 'I' for Inactive)
REMARK    1  A    between atoms: C_1  and  C_2
REMARK    2  A    between atoms: C_2  and  C_3
REMARK    3  A    between atoms: C_2  and  C_4
REMARK    4  A    between atoms: C_2  and  C_5
REMARK    5  A    between atoms: C_8  and  S_9
REMARK    6  A    between atoms: S_9  and  N_12
REMARK    7  A    between atoms: N_12  and  C_13
REMARK    8  A    between atoms: C_13  and  C_14
REMARK    9  A    between atoms: N_22  and  C_23
REMARK   10  A    between atoms: C_23  and  C_24
REMARK                            x       y       z     vdW  Elec       q    Type
REMARK                         _______ _______ _______ _____ _____    ______ ____
ROOT
ATOM      1  C   UNL     1       3.328   7.204  18.085  0.00  0.00    +0.000 A 
ATOM      2  N   UNL     1       2.722   8.329  17.736  0.00  0.00    +0.000 NA
ATOM      3  C   UNL     1       1.887   8.634  18.780  0.00  0.00    +0.000 A 
ATOM      4  C   UNL     1       0.938   9.651  18.933  0.00  0.00    +0.000 A 
ATOM      5  C   UNL     1       0.214   9.674  20.128  0.00  0.00    +0.000 A 
ATOM      6  C   UNL     1       0.478   8.713  21.100  0.00  0.00    +0.000 A 
ATOM      7  N   UNL     1       1.379   7.705  20.995  0.00  0.00    +0.000 NA
ATOM      8  C   UNL     1       2.035   7.723  19.818  0.00  0.00    +0.000 A 
ATOM      9  N   UNL     1       2.930   6.797  19.346  0.00  0.00    +0.000 N 
ENDROOT
BRANCH   1  10
ATOM     10  C   UNL     1       4.290   6.445  17.227  0.00  0.00    +0.000 C 
BRANCH  10  11
ATOM     11  N   UNL     1       5.400   7.340  16.895  0.00  0.00    +0.000 NA
ATOM     12  H   UNL     1       5.393   7.660  15.925  0.00  0.00    +0.000 HD
BRANCH  11  13
ATOM     13  S   UNL     1       6.929   6.816  17.382  0.00  0.00    +0.000 S 
ATOM     14  O   UNL     1       7.607   6.298  16.211  0.00  0.00    +0.000 OA
ATOM     15  O   UNL     1       6.745   6.025  18.576  0.00  0.00    +0.000 OA
BRANCH  13  19
ATOM     16  C   UNL     1       9.145  10.656  18.593  0.00  0.00    +0.000 A 
ATOM     17  C   UNL     1       9.350   9.432  19.262  0.00  0.00    +0.000 A 
ATOM     18  C   UNL     1       8.670   8.270  18.894  0.00  0.00    +0.000 A 
ATOM     19  C   UNL     1       7.726   8.321  17.871  0.00  0.00    +0.000 A 
ATOM     20  C   UNL     1       7.445   9.528  17.233  0.00  0.00    +0.000 A 
ATOM     21  C   UNL     1       8.148  10.683  17.600  0.00  0.00    +0.000 A 
BRANCH  16  23
ATOM     22  C   UNL     1      10.548  11.803  20.382  0.00  0.00    +0.000 C 
ATOM     23  C   UNL     1      10.007  11.888  18.936  0.00  0.00    +0.000 C 
ATOM     24  C   UNL     1       9.170  13.180  18.801  0.00  0.00    +0.000 C 
ATOM     25  C   UNL     1      11.245  12.036  18.020  0.00  0.00    +0.000 C 
ENDBRANCH  16  23
ENDBRANCH  13  19
ENDBRANCH  11  13
ENDBRANCH  10  11
ENDBRANCH   1  10
BRANCH   9  26
ATOM     26  C   UNL     1       3.327   5.578  20.042  0.00  0.00    +0.000 C 
BRANCH  26  27
ATOM     27  C   UNL     1       2.519   4.361  19.623  0.00  0.00    +0.000 A 
ATOM     28  C   UNL     1       1.183   4.194  20.040  0.00  0.00    +0.000 A 
ATOM     29  C   UNL     1       0.433   3.075  19.668  0.00  0.00    +0.000 A 
ATOM     30  C   UNL     1       1.005   2.084  18.882  0.00  0.00    +0.000 A 
ATOM     31  C   UNL     1       2.336   2.203  18.489  0.00  0.00    +0.000 A 
ATOM     32  C   UNL     1       3.092   3.320  18.869  0.00  0.00    +0.000 A 
ATOM     33 CL   UNL     1       4.754   3.342  18.395  0.00  0.00    +0.000 Cl
ENDBRANCH  26  27
ENDBRANCH   9  26
TORSDOF 7
ENDMDL
MODEL 7
REMARK VINA RESULT:      -7.9      4.038      8.884
REMARK  Name = 
REMARK  10 active torsions:
REMARK  status: ('A' for Active; 'I' for Inactive)
REMARK    1  A    between atoms: C_1  and  C_2
REMARK    2  A    between atoms: C_2  and  C_3
REMARK    3  A    between atoms: C_2  and  C_4
REMARK    4  A    between atoms: C_2  and  C_5
REMARK    5  A    between atoms: C_8  and  S_9
REMARK    6  A    between atoms: S_9  and  N_12
REMARK    7  A    between atoms: N_12  and  C_13
REMARK    8  A    between atoms: C_13  and  C_14
REMARK    9  A    between atoms: N_22  and  C_23
REMARK   10  A    between atoms: C_23  and  C_24
REMARK                            x       y       z     vdW  Elec       q    Type
REMARK                         _______ _______ _______ _____ _____    ______ ____
ROOT
ATOM      1  C   UNL     1       4.163   4.866  19.140  0.00  0.00    +0.000 A 
ATOM      2  N   UNL     1       4.132   3.699  18.515  0.00  0.00    +0.000 NA
ATOM      3  C   UNL     1       2.875   3.197  18.737  0.00  0.00    +0.000 A 
ATOM      4  C   UNL     1       2.303   1.965  18.401  0.00  0.00    +0.000 A 
ATOM      5  C   UNL     1       0.983   1.742  18.804  0.00  0.00    +0.000 A 
ATOM      6  C   UNL     1       0.307   2.745  19.494  0.00  0.00    +0.000 A 
ATOM      7  N   UNL     1       0.819   3.949  19.850  0.00  0.00    +0.000 NA
ATOM      8  C   UNL     1       2.097   4.101  19.449  0.00  0.00    +0.000 A 
ATOM      9  N   UNL     1       2.943   5.145  19.730  0.00  0.00    +0.000 N 
ENDROOT
BRANCH   1  10
ATOM     10  C   UNL     1       5.359   5.759  19.235  0.00  0.00    +0.000 C 
BRANCH  10  11
ATOM     11  N   UNL     1       5.683   6.222  17.885  0.00  0.00    +0.000 NA
ATOM     12  H   UNL     1       4.972   5.989  17.189  0.00  0.00    +0.000 HD
BRANCH  11  13
ATOM     13  S   UNL     1       7.242   5.863  17.345  0.00  0.00    +0.000 S 
ATOM     14  O   UNL     1       7.810   4.896  18.262  0.00  0.00    +0.000 OA
ATOM     15  O   UNL     1       7.890   7.122  17.058  0.00  0.00    +0.000 OA
BRANCH  13  19
ATOM     16  C   UNL     1       6.329   3.867  13.308  0.00  0.00    +0.000 A 
ATOM     17  C   UNL     1       5.622   3.537  14.482  0.00  0.00    +0.000 A 
ATOM     18  C   UNL     1       5.907   4.142  15.706  0.00  0.00    +0.000 A 
ATOM     19  C   UNL     1       6.948   5.062  15.793  0.00  0.00    +0.000 A 
ATOM     20  C   UNL     1       7.716   5.362  14.669  0.00  0.00    +0.000 A 
ATOM     21  C   UNL     1       7.407   4.761  13.440  0.00  0.00    +0.000 A 
BRANCH  16  23
ATOM     22  C   UNL     1       6.732   3.891  10.793  0.00  0.00    +0.000 C 
ATOM     23  C   UNL     1       5.903   3.279  11.947  0.00  0.00    +0.000 C 
ATOM     24  C   UNL     1       4.409   3.568  11.684  0.00  0.00    +0.000 C 
ATOM     25  C   UNL     1       6.105   1.748  11.858  0.00  0.00    +0.000 C 
ENDBRANCH  16  23
ENDBRANCH  13  19
ENDBRANCH  11  13
ENDBRANCH  10  11
ENDBRANCH   1  10
BRANCH   9  26
ATOM     26  C   UNL     1       2.609   6.300  20.557  0.00  0.00    +0.000 C 
BRANCH  26  27
ATOM     27  C   UNL     1       2.091   7.481  19.754  0.00  0.00    +0.000 A 
ATOM     28  C   UNL     1       2.370   7.606  18.378  0.00  0.00    +0.000 A 
ATOM     29  C   UNL     1       1.905   8.692  17.631  0.00  0.00    +0.000 A 
ATOM     30  C   UNL     1       1.162   9.691  18.245  0.00  0.00    +0.000 A 
ATOM     31  C   UNL     1       0.905   9.614  19.611  0.00  0.00    +0.000 A 
ATOM     32  C   UNL     1       1.378   8.530  20.364  0.00  0.00    +0.000 A 
ATOM     33 CL   UNL     1       1.072   8.561  22.065  0.00  0.00    +0.000 Cl
ENDBRANCH  26  27
ENDBRANCH   9  26
TORSDOF 7
ENDMDL
MODEL 8
REMARK VINA RESULT:      -7.9      2.359      4.638
REMARK  Name = 
REMARK  10 active torsions:
REMARK  status: ('A' for Active; 'I' for Inactive)
REMARK    1  A    between atoms: C_1  and  C_2
REMARK    2  A    between atoms: C_2  and  C_3
REMARK    3  A    between atoms: C_2  and  C_4
REMARK    4  A    between atoms: C_2  and  C_5
REMARK    5  A    between atoms: C_8  and  S_9
REMARK    6  A    between atoms: S_9  and  N_12
REMARK    7  A    between atoms: N_12  and  C_13
REMARK    8  A    between atoms: C_13  and  C_14
REMARK    9  A    between atoms: N_22  and  C_23
REMARK   10  A    between atoms: C_23  and  C_24
REMARK                            x       y       z     vdW  Elec       q    Type
REMARK                         _______ _______ _______ _____ _____    ______ ____
ROOT
ATOM      1  C   UNL     1       2.790   7.263  17.912  0.00  0.00    +0.000 A 
ATOM      2  N   UNL     1       3.935   7.900  17.715  0.00  0.00    +0.000 NA
ATOM      3  C   UNL     1       4.837   6.931  17.357  0.00  0.00    +0.000 A 
ATOM      4  C   UNL     1       6.214   6.998  17.118  0.00  0.00    +0.000 A 
ATOM      5  C   UNL     1       6.865   5.805  16.794  0.00  0.00    +0.000 A 
ATOM      6  C   UNL     1       6.124   4.629  16.708  0.00  0.00    +0.000 A 
ATOM      7  N   UNL     1       4.793   4.512  16.939  0.00  0.00    +0.000 NA
ATOM      8  C   UNL     1       4.221   5.690  17.261  0.00  0.00    +0.000 A 
ATOM      9  N   UNL     1       2.925   5.911  17.653  0.00  0.00    +0.000 N 
ENDROOT
BRANCH   1  10
ATOM     10  C   UNL     1       1.522   7.900  18.385  0.00  0.00    +0.000 C 
BRANCH  10  11
ATOM     11  N   UNL     1       1.455   9.246  17.813  0.00  0.00    +0.000 NA
ATOM     12  H   UNL     1       2.216   9.455  17.165  0.00  0.00    +0.000 HD
BRANCH  11  13
ATOM     13  S   UNL     1       1.199  10.495  18.918  0.00  0.00    +0.000 S 
ATOM     14  O   UNL     1       2.004  11.623  18.497  0.00  0.00    +0.000 OA
ATOM     15  O   UNL     1       1.312   9.921  20.239  0.00  0.00    +0.000 OA
BRANCH  13  19
ATOM     16  C   UNL     1      -3.273  11.398  18.358  0.00  0.00    +0.000 A 
ATOM     17  C   UNL     1      -2.629  10.349  17.669  0.00  0.00    +0.000 A 
ATOM     18  C   UNL     1      -1.270  10.083  17.839  0.00  0.00    +0.000 A 
ATOM     19  C   UNL     1      -0.508  10.900  18.670  0.00  0.00    +0.000 A 
ATOM     20  C   UNL     1      -1.093  11.989  19.314  0.00  0.00    +0.000 A 
ATOM     21  C   UNL     1      -2.464  12.234  19.150  0.00  0.00    +0.000 A 
BRANCH  16  23
ATOM     22  C   UNL     1      -5.203  12.079  16.842  0.00  0.00    +0.000 C 
ATOM     23  C   UNL     1      -4.800  11.583  18.251  0.00  0.00    +0.000 C 
ATOM     24  C   UNL     1      -5.288  12.614  19.292  0.00  0.00    +0.000 C 
ATOM     25  C   UNL     1      -5.587  10.272  18.488  0.00  0.00    +0.000 C 
ENDBRANCH  16  23
ENDBRANCH  13  19
ENDBRANCH  11  13
ENDBRANCH  10  11
ENDBRANCH   1  10
BRANCH   9  26
ATOM     26  C   UNL     1       1.908   4.878  17.820  0.00  0.00    +0.000 C 
BRANCH  26  27
ATOM     27  C   UNL     1       2.052   4.102  19.120  0.00  0.00    +0.000 A 
ATOM     28  C   UNL     1       1.906   4.739  20.368  0.00  0.00    +0.000 A 
ATOM     29  C   UNL     1       2.044   4.038  21.570  0.00  0.00    +0.000 A 
ATOM     30  C   UNL     1       2.348   2.684  21.553  0.00  0.00    +0.000 A 
ATOM     31  C   UNL     1       2.537   2.037  20.335  0.00  0.00    +0.000 A 
ATOM     32  C   UNL     1       2.408   2.741  19.129  0.00  0.00    +0.000 A 
ATOM     33 CL   UNL     1       2.735   1.870  17.672  0.00  0.00    +0.000 Cl
ENDBRANCH  26  27
ENDBRANCH   9  26
TORSDOF 7
ENDMDL
MODEL 9
REMARK VINA RESULT:      -7.9      2.813      3.355
REMARK  Name = 
REMARK  10 active torsions:
REMARK  status: ('A' for Active; 'I' for Inactive)
REMARK    1  A    between atoms: C_1  and  C_2
REMARK    2  A    between atoms: C_2  and  C_3
REMARK    3  A    between atoms: C_2  and  C_4
REMARK    4  A    between atoms: C_2  and  C_5
REMARK    5  A    between atoms: C_8  and  S_9
REMARK    6  A    between atoms: S_9  and  N_12
REMARK    7  A    between atoms: N_12  and  C_13
REMARK    8  A    between atoms: C_13  and  C_14
REMARK    9  A    between atoms: N_22  and  C_23
REMARK   10  A    between atoms: C_23  and  C_24
REMARK                            x       y       z     vdW  Elec       q    Type
REMARK                         _______ _______ _______ _____ _____    ______ ____
ROOT
ATOM      1  C   UNL     1       2.258   6.665  19.373  0.00  0.00    +0.000 A 
ATOM      2  N   UNL     1       1.578   6.143  20.383  0.00  0.00    +0.000 NA
ATOM      3  C   UNL     1       1.792   4.790  20.309  0.00  0.00    +0.000 A 
ATOM      4  C   UNL     1       1.258   3.731  21.051  0.00  0.00    +0.000 A 
ATOM      5  C   UNL     1       1.662   2.439  20.704  0.00  0.00    +0.000 A 
ATOM      6  C   UNL     1       2.574   2.271  19.665  0.00  0.00    +0.000 A 
ATOM      7  N   UNL     1       3.112   3.262  18.912  0.00  0.00    +0.000 NA
ATOM      8  C   UNL     1       2.675   4.482  19.282  0.00  0.00    +0.000 A 
ATOM      9  N   UNL     1       2.935   5.683  18.672  0.00  0.00    +0.000 N 
ENDROOT
BRANCH   1  10
ATOM     10  C   UNL     1       2.273   8.115  19.006  0.00  0.00    +0.000 C 
BRANCH  10  11
ATOM     11  N   UNL     1       1.426   8.830  19.962  0.00  0.00    +0.000 NA
ATOM     12  H   UNL     1       0.959   8.219  20.633  0.00  0.00    +0.000 HD
BRANCH  11  13
ATOM     13  S   UNL     1       0.371   9.965  19.294  0.00  0.00    +0.000 S 
ATOM     14  O   UNL     1      -0.745  10.115  20.205  0.00  0.00    +0.000 OA
ATOM     15  O   UNL     1       0.188   9.606  17.906  0.00  0.00    +0.000 OA
BRANCH  13  19
ATOM     16  C   UNL     1       2.743  13.902  19.249  0.00  0.00    +0.000 A 
ATOM     17  C   UNL     1       2.782  12.993  18.172  0.00  0.00    +0.000 A 
ATOM     18  C   UNL     1       2.064  11.797  18.193  0.00  0.00    +0.000 A 
ATOM     19  C   UNL     1       1.326  11.458  19.323  0.00  0.00    +0.000 A 
ATOM     20  C   UNL     1       1.319  12.297  20.436  0.00  0.00    +0.000 A 
ATOM     21  C   UNL     1       2.028  13.506  20.395  0.00  0.00    +0.000 A 
BRANCH  16  23
ATOM     22  C   UNL     1       3.675  15.663  17.662  0.00  0.00    +0.000 C 
ATOM     23  C   UNL     1       3.439  15.274  19.141  0.00  0.00    +0.000 C 
ATOM     24  C   UNL     1       4.805  15.238  19.862  0.00  0.00    +0.000 C 
ATOM     25  C   UNL     1       2.613  16.424  19.763  0.00  0.00    +0.000 C 
ENDBRANCH  16  23
ENDBRANCH  13  19
ENDBRANCH  11  13
ENDBRANCH  10  11
ENDBRANCH   1  10
BRANCH   9  26
ATOM     26  C   UNL     1       3.734   5.859  17.464  0.00  0.00    +0.000 C 
BRANCH  26  27
ATOM     27  C   UNL     1       5.193   5.474  17.651  0.00  0.00    +0.000 A 
ATOM     28  C   UNL     1       5.895   5.827  18.821  0.00  0.00    +0.000 A 
ATOM     29  C   UNL     1       7.239   5.485  19.001  0.00  0.00    +0.000 A 
ATOM     30  C   UNL     1       7.920   4.796  18.006  0.00  0.00    +0.000 A 
ATOM     31  C   UNL     1       7.262   4.470  16.823  0.00  0.00    +0.000 A 
ATOM     32  C   UNL     1       5.917   4.820  16.638  0.00  0.00    +0.000 A 
ATOM     33 CL   UNL     1       5.210   4.438  15.107  0.00  0.00    +0.000 Cl
ENDBRANCH  26  27
ENDBRANCH   9  26
TORSDOF 7
ENDMDL
