MODEL 1
REMARK VINA RESULT:      -8.1      0.000      0.000
REMARK  Name = 
REMARK  3 active torsions:
REMARK  status: ('A' for Active; 'I' for Inactive)
REMARK    1  A    between atoms: C_2  and  C_5
REMARK    2  A    between atoms: C_9  and  C_10
REMARK    3  A    between atoms: C_16  and  C_17
REMARK                            x       y       z     vdW  Elec       q    Type
REMARK                         _______ _______ _______ _____ _____    ______ ____
ROOT
ATOM      1  C   UNL     1       4.554   3.888  18.883  0.00  0.00    +0.000 A 
ATOM      2  C   UNL     1       4.458   2.633  19.468  0.00  0.00    +0.000 A 
ATOM      3  N   UNL     1       3.411   2.549  20.347  0.00  0.00    +0.000 NA
ATOM      4  C   UNL     1       2.854   3.738  20.319  0.00  0.00    +0.000 A 
ATOM      5  C   UNL     1       1.737   4.240  21.015  0.00  0.00    +0.000 A 
ATOM      6  C   UNL     1       1.363   5.509  20.829  0.00  0.00    +0.000 A 
ATOM      7  C   UNL     1       2.160   6.350  19.880  0.00  0.00    +0.000 A 
ATOM      8  N   UNL     1       3.166   5.901  19.184  0.00  0.00    +0.000 NA
ATOM      9  N   UNL     1       3.497   4.596  19.442  0.00  0.00    +0.000 N 
ENDROOT
BRANCH   1  14
ATOM     10  C   UNL     1       6.305   4.578  15.584  0.00  0.00    +0.000 A 
ATOM     11  C   UNL     1       7.376   5.367  16.019  0.00  0.00    +0.000 A 
ATOM     12  C   UNL     1       7.511   5.680  17.371  0.00  0.00    +0.000 A 
ATOM     13  C   UNL     1       6.584   5.198  18.299  0.00  0.00    +0.000 A 
ATOM     14  C   UNL     1       5.507   4.396  17.893  0.00  0.00    +0.000 A 
ATOM     15  C   UNL     1       5.373   4.113  16.528  0.00  0.00    +0.000 A 
BRANCH  10  17
ATOM     16  F   UNL     1       4.875   4.427  13.659  0.00  0.00    +0.000 F 
ATOM     17  C   UNL     1       6.133   4.209  14.132  0.00  0.00    +0.000 C 
ATOM     18  F   UNL     1       6.397   2.895  13.892  0.00  0.00    +0.000 F 
ATOM     19  F   UNL     1       6.963   4.914  13.313  0.00  0.00    +0.000 F 
ENDBRANCH  10  17
ENDBRANCH   1  14
BRANCH   7  20
ATOM     20  C   UNL     1       1.791   7.751  19.708  0.00  0.00    +0.000 A 
ATOM     21  C   UNL     1       1.186   8.593  20.628  0.00  0.00    +0.000 A 
ATOM     22  C   UNL     1       0.955   9.902  20.109  0.00  0.00    +0.000 A 
ATOM     23  C   UNL     1       1.357  10.013  18.798  0.00  0.00    +0.000 A 
ATOM     24  S   UNL     1       2.012   8.553  18.206  0.00  0.00    +0.000 S 
ENDBRANCH   7  20
TORSDOF 3
ENDMDL
MODEL 2
REMARK VINA RESULT:      -8.1      0.663      1.145
REMARK  Name = 
REMARK  3 active torsions:
REMARK  status: ('A' for Active; 'I' for Inactive)
REMARK    1  A    between atoms: C_2  and  C_5
REMARK    2  A    between atoms: C_9  and  C_10
REMARK    3  A    between atoms: C_16  and  C_17
REMARK                            x       y       z     vdW  Elec       q    Type
REMARK                         _______ _______ _______ _____ _____    ______ ____
ROOT
ATOM      1  C   UNL     1       4.551   3.872  18.870  0.00  0.00    +0.000 A 
ATOM      2  C   UNL     1       4.455   2.617  19.455  0.00  0.00    +0.000 A 
ATOM      3  N   UNL     1       3.399   2.528  20.323  0.00  0.00    +0.000 NA
ATOM      4  C   UNL     1       2.836   3.713  20.287  0.00  0.00    +0.000 A 
ATOM      5  C   UNL     1       1.708   4.211  20.970  0.00  0.00    +0.000 A 
ATOM      6  C   UNL     1       1.330   5.477  20.778  0.00  0.00    +0.000 A 
ATOM      7  C   UNL     1       2.133   6.321  19.837  0.00  0.00    +0.000 A 
ATOM      8  N   UNL     1       3.150   5.878  19.153  0.00  0.00    +0.000 NA
ATOM      9  N   UNL     1       3.485   4.575  19.416  0.00  0.00    +0.000 N 
ENDROOT
BRANCH   1  14
ATOM     10  C   UNL     1       6.325   4.584  15.588  0.00  0.00    +0.000 A 
ATOM     11  C   UNL     1       7.398   5.363  16.038  0.00  0.00    +0.000 A 
ATOM     12  C   UNL     1       7.527   5.662  17.393  0.00  0.00    +0.000 A 
ATOM     13  C   UNL     1       6.592   5.176  18.311  0.00  0.00    +0.000 A 
ATOM     14  C   UNL     1       5.513   4.384  17.892  0.00  0.00    +0.000 A 
ATOM     15  C   UNL     1       5.385   4.115  16.523  0.00  0.00    +0.000 A 
BRANCH  10  17
ATOM     16  F   UNL     1       7.003   4.909  13.307  0.00  0.00    +0.000 F 
ATOM     17  C   UNL     1       6.160   4.230  14.133  0.00  0.00    +0.000 C 
ATOM     18  F   UNL     1       4.904   4.482  13.672  0.00  0.00    +0.000 F 
ATOM     19  F   UNL     1       6.389   2.909  13.888  0.00  0.00    +0.000 F 
ENDBRANCH  10  17
ENDBRANCH   1  14
BRANCH   7  20
ATOM     20  C   UNL     1       1.758   7.721  19.661  0.00  0.00    +0.000 A 
ATOM     21  C   UNL     1       1.930   8.515  18.537  0.00  0.00    +0.000 A 
ATOM     22  C   UNL     1       1.458   9.848  18.728  0.00  0.00    +0.000 A 
ATOM     23  C   UNL     1       0.973  10.044  20.001  0.00  0.00    +0.000 A 
ATOM     24  S   UNL     1       1.081   8.631  20.950  0.00  0.00    +0.000 S 
ENDBRANCH   7  20
TORSDOF 3
ENDMDL
MODEL 3
REMARK VINA RESULT:      -7.8      1.347      1.617
REMARK  Name = 
REMARK  3 active torsions:
REMARK  status: ('A' for Active; 'I' for Inactive)
REMARK    1  A    between atoms: C_2  and  C_5
REMARK    2  A    between atoms: C_9  and  C_10
REMARK    3  A    between atoms: C_16  and  C_17
REMARK                            x       y       z     vdW  Elec       q    Type
REMARK                         _______ _______ _______ _____ _____    ______ ____
ROOT
ATOM      1  C   UNL     1       4.313   3.401  17.454  0.00  0.00    +0.000 A 
ATOM      2  C   UNL     1       4.131   2.114  17.940  0.00  0.00    +0.000 A 
ATOM      3  N   UNL     1       3.150   2.052  18.893  0.00  0.00    +0.000 NA
ATOM      4  C   UNL     1       2.718   3.287  19.008  0.00  0.00    +0.000 A 
ATOM      5  C   UNL     1       1.714   3.830  19.834  0.00  0.00    +0.000 A 
ATOM      6  C   UNL     1       1.460   5.141  19.784  0.00  0.00    +0.000 A 
ATOM      7  C   UNL     1       2.268   5.983  18.844  0.00  0.00    +0.000 A 
ATOM      8  N   UNL     1       3.167   5.504  18.033  0.00  0.00    +0.000 NA
ATOM      9  N   UNL     1       3.380   4.155  18.154  0.00  0.00    +0.000 N 
ENDROOT
BRANCH   1  14
ATOM     10  C   UNL     1       6.002   4.022  14.109  0.00  0.00    +0.000 A 
ATOM     11  C   UNL     1       7.053   4.860  14.502  0.00  0.00    +0.000 A 
ATOM     12  C   UNL     1       7.194   5.228  15.839  0.00  0.00    +0.000 A 
ATOM     13  C   UNL     1       6.294   4.752  16.796  0.00  0.00    +0.000 A 
ATOM     14  C   UNL     1       5.238   3.901  16.434  0.00  0.00    +0.000 A 
ATOM     15  C   UNL     1       5.097   3.564  15.082  0.00  0.00    +0.000 A 
BRANCH  10  17
ATOM     16  F   UNL     1       4.583   3.850  12.178  0.00  0.00    +0.000 F 
ATOM     17  C   UNL     1       5.825   3.594  12.675  0.00  0.00    +0.000 C 
ATOM     18  F   UNL     1       6.028   2.259  12.499  0.00  0.00    +0.000 F 
ATOM     19  F   UNL     1       6.696   4.218  11.833  0.00  0.00    +0.000 F 
ENDBRANCH  10  17
ENDBRANCH   1  14
BRANCH   7  20
ATOM     20  C   UNL     1       2.033   7.423  18.820  0.00  0.00    +0.000 A 
ATOM     21  C   UNL     1       2.247   8.305  17.771  0.00  0.00    +0.000 A 
ATOM     22  C   UNL     1       1.922   9.652  18.111  0.00  0.00    +0.000 A 
ATOM     23  C   UNL     1       1.505   9.767  19.417  0.00  0.00    +0.000 A 
ATOM     24  S   UNL     1       1.499   8.262  20.220  0.00  0.00    +0.000 S 
ENDBRANCH   7  20
TORSDOF 3
ENDMDL
MODEL 4
REMARK VINA RESULT:      -7.8      0.821      1.128
REMARK  Name = 
REMARK  3 active torsions:
REMARK  status: ('A' for Active; 'I' for Inactive)
REMARK    1  A    between atoms: C_2  and  C_5
REMARK    2  A    between atoms: C_9  and  C_10
REMARK    3  A    between atoms: C_16  and  C_17
REMARK                            x       y       z     vdW  Elec       q    Type
REMARK                         _______ _______ _______ _____ _____    ______ ____
ROOT
ATOM      1  C   UNL     1       4.135   3.324  18.151  0.00  0.00    +0.000 A 
ATOM      2  C   UNL     1       3.913   1.987  18.449  0.00  0.00    +0.000 A 
ATOM      3  N   UNL     1       2.865   1.815  19.314  0.00  0.00    +0.000 NA
ATOM      4  C   UNL     1       2.431   3.030  19.559  0.00  0.00    +0.000 A 
ATOM      5  C   UNL     1       1.373   3.476  20.376  0.00  0.00    +0.000 A 
ATOM      6  C   UNL     1       1.131   4.785  20.481  0.00  0.00    +0.000 A 
ATOM      7  C   UNL     1       2.008   5.730  19.720  0.00  0.00    +0.000 A 
ATOM      8  N   UNL     1       2.961   5.349  18.918  0.00  0.00    +0.000 NA
ATOM      9  N   UNL     1       3.158   3.993  18.876  0.00  0.00    +0.000 N 
ENDROOT
BRANCH   1  14
ATOM     10  C   UNL     1       6.107   4.295  15.054  0.00  0.00    +0.000 A 
ATOM     11  C   UNL     1       7.088   5.120  15.619  0.00  0.00    +0.000 A 
ATOM     12  C   UNL     1       7.091   5.364  16.991  0.00  0.00    +0.000 A 
ATOM     13  C   UNL     1       6.122   4.779  17.811  0.00  0.00    +0.000 A 
ATOM     14  C   UNL     1       5.135   3.940  17.274  0.00  0.00    +0.000 A 
ATOM     15  C   UNL     1       5.131   3.726  15.890  0.00  0.00    +0.000 A 
BRANCH  10  17
ATOM     16  F   UNL     1       6.916   4.786  12.845  0.00  0.00    +0.000 F 
ATOM     17  C   UNL     1       6.080   3.998  13.576  0.00  0.00    +0.000 C 
ATOM     18  F   UNL     1       4.843   4.163  13.032  0.00  0.00    +0.000 F 
ATOM     19  F   UNL     1       6.443   2.715  13.296  0.00  0.00    +0.000 F 
ENDBRANCH  10  17
ENDBRANCH   1  14
BRANCH   7  20
ATOM     20  C   UNL     1       1.783   7.165  19.868  0.00  0.00    +0.000 A 
ATOM     21  C   UNL     1       1.292   7.842  20.973  0.00  0.00    +0.000 A 
ATOM     22  C   UNL     1       1.187   9.248  20.756  0.00  0.00    +0.000 A 
ATOM     23  C   UNL     1       1.566   9.601  19.481  0.00  0.00    +0.000 A 
ATOM     24  S   UNL     1       2.050   8.248  18.562  0.00  0.00    +0.000 S 
ENDBRANCH   7  20
TORSDOF 3
ENDMDL
MODEL 5
REMARK VINA RESULT:      -7.8      4.621      6.668
REMARK  Name = 
REMARK  3 active torsions:
REMARK  status: ('A' for Active; 'I' for Inactive)
REMARK    1  A    between atoms: C_2  and  C_5
REMARK    2  A    between atoms: C_9  and  C_10
REMARK    3  A    between atoms: C_16  and  C_17
REMARK                            x       y       z     vdW  Elec       q    Type
REMARK                         _______ _______ _______ _____ _____    ______ ____
ROOT
ATOM      1  C   UNL     1       1.081   8.780  20.994  0.00  0.00    +0.000 A 
ATOM      2  C   UNL     1       1.434   9.273  22.243  0.00  0.00    +0.000 A 
ATOM      3  N   UNL     1       0.698  10.374  22.593  0.00  0.00    +0.000 NA
ATOM      4  C   UNL     1      -0.109  10.574  21.577  0.00  0.00    +0.000 A 
ATOM      5  C   UNL     1      -1.095  11.559  21.373  0.00  0.00    +0.000 A 
ATOM      6  C   UNL     1      -1.789  11.568  20.232  0.00  0.00    +0.000 A 
ATOM      7  C   UNL     1      -1.481  10.519  19.208  0.00  0.00    +0.000 A 
ATOM      8  N   UNL     1      -0.612   9.565  19.387  0.00  0.00    +0.000 NA
ATOM      9  N   UNL     1       0.069   9.634  20.575  0.00  0.00    +0.000 N 
ENDROOT
BRANCH   1  14
ATOM     10  C   UNL     1       2.044   5.226  20.064  0.00  0.00    +0.000 A 
ATOM     11  C   UNL     1       2.643   5.438  18.816  0.00  0.00    +0.000 A 
ATOM     12  C   UNL     1       2.715   6.724  18.284  0.00  0.00    +0.000 A 
ATOM     13  C   UNL     1       2.200   7.809  18.997  0.00  0.00    +0.000 A 
ATOM     14  C   UNL     1       1.604   7.628  20.254  0.00  0.00    +0.000 A 
ATOM     15  C   UNL     1       1.517   6.326  20.762  0.00  0.00    +0.000 A 
BRANCH  10  17
ATOM     16  F   UNL     1       0.726   3.283  20.573  0.00  0.00    +0.000 F 
ATOM     17  C   UNL     1       1.959   3.851  20.677  0.00  0.00    +0.000 C 
ATOM     18  F   UNL     1       2.256   3.852  22.006  0.00  0.00    +0.000 F 
ATOM     19  F   UNL     1       2.822   2.969  20.101  0.00  0.00    +0.000 F 
ENDBRANCH  10  17
ENDBRANCH   1  14
BRANCH   7  20
ATOM     20  C   UNL     1      -2.198  10.550  17.937  0.00  0.00    +0.000 A 
ATOM     21  C   UNL     1      -1.838   9.954  16.739  0.00  0.00    +0.000 A 
ATOM     22  C   UNL     1      -2.774  10.211  15.693  0.00  0.00    +0.000 A 
ATOM     23  C   UNL     1      -3.802  11.025  16.111  0.00  0.00    +0.000 A 
ATOM     24  S   UNL     1      -3.640  11.465  17.751  0.00  0.00    +0.000 S 
ENDBRANCH   7  20
TORSDOF 3
ENDMDL
MODEL 6
REMARK VINA RESULT:      -7.7      2.090      2.645
REMARK  Name = 
REMARK  3 active torsions:
REMARK  status: ('A' for Active; 'I' for Inactive)
REMARK    1  A    between atoms: C_2  and  C_5
REMARK    2  A    between atoms: C_9  and  C_10
REMARK    3  A    between atoms: C_16  and  C_17
REMARK                            x       y       z     vdW  Elec       q    Type
REMARK                         _______ _______ _______ _____ _____    ______ ____
ROOT
ATOM      1  C   UNL     1       4.086   3.386  18.028  0.00  0.00    +0.000 A 
ATOM      2  C   UNL     1       3.869   2.027  18.207  0.00  0.00    +0.000 A 
ATOM      3  N   UNL     1       2.812   1.776  19.041  0.00  0.00    +0.000 NA
ATOM      4  C   UNL     1       2.368   2.963  19.386  0.00  0.00    +0.000 A 
ATOM      5  C   UNL     1       1.298   3.330  20.226  0.00  0.00    +0.000 A 
ATOM      6  C   UNL     1       1.047   4.624  20.441  0.00  0.00    +0.000 A 
ATOM      7  C   UNL     1       1.926   5.636  19.775  0.00  0.00    +0.000 A 
ATOM      8  N   UNL     1       2.891   5.331  18.955  0.00  0.00    +0.000 NA
ATOM      9  N   UNL     1       3.096   3.984  18.798  0.00  0.00    +0.000 N 
ENDROOT
BRANCH   1  14
ATOM     10  C   UNL     1       6.732   5.876  16.921  0.00  0.00    +0.000 A 
ATOM     11  C   UNL     1       7.000   5.411  15.629  0.00  0.00    +0.000 A 
ATOM     12  C   UNL     1       6.336   4.289  15.136  0.00  0.00    +0.000 A 
ATOM     13  C   UNL     1       5.389   3.630  15.925  0.00  0.00    +0.000 A 
ATOM     14  C   UNL     1       5.091   4.081  17.220  0.00  0.00    +0.000 A 
ATOM     15  C   UNL     1       5.788   5.194  17.709  0.00  0.00    +0.000 A 
BRANCH  10  17
ATOM     16  F   UNL     1       8.146   6.839  18.608  0.00  0.00    +0.000 F 
ATOM     17  C   UNL     1       7.421   7.093  17.483  0.00  0.00    +0.000 C 
ATOM     18  F   UNL     1       6.547   8.081  17.821  0.00  0.00    +0.000 F 
ATOM     19  F   UNL     1       8.295   7.652  16.600  0.00  0.00    +0.000 F 
ENDBRANCH  10  17
ENDBRANCH   1  14
BRANCH   7  20
ATOM     20  C   UNL     1       1.691   7.052  20.045  0.00  0.00    +0.000 A 
ATOM     21  C   UNL     1       1.198   7.629  21.204  0.00  0.00    +0.000 A 
ATOM     22  C   UNL     1       1.082   9.048  21.106  0.00  0.00    +0.000 A 
ATOM     23  C   UNL     1       1.455   9.510  19.865  0.00  0.00    +0.000 A 
ATOM     24  S   UNL     1       1.947   8.243  18.834  0.00  0.00    +0.000 S 
ENDBRANCH   7  20
TORSDOF 3
ENDMDL
MODEL 7
REMARK VINA RESULT:      -7.7      2.215      2.811
REMARK  Name = 
REMARK  3 active torsions:
REMARK  status: ('A' for Active; 'I' for Inactive)
REMARK    1  A    between atoms: C_2  and  C_5
REMARK    2  A    between atoms: C_9  and  C_10
REMARK    3  A    between atoms: C_16  and  C_17
REMARK                            x       y       z     vdW  Elec       q    Type
REMARK                         _______ _______ _______ _____ _____    ______ ____
ROOT
ATOM      1  C   UNL     1       4.560   4.011  18.866  0.00  0.00    +0.000 A 
ATOM      2  C   UNL     1       4.496   2.722  19.377  0.00  0.00    +0.000 A 
ATOM      3  N   UNL     1       3.443   2.557  20.237  0.00  0.00    +0.000 NA
ATOM      4  C   UNL     1       2.850   3.728  20.269  0.00  0.00    +0.000 A 
ATOM      5  C   UNL     1       1.711   4.156  20.980  0.00  0.00    +0.000 A 
ATOM      6  C   UNL     1       1.301   5.422  20.862  0.00  0.00    +0.000 A 
ATOM      7  C   UNL     1       2.083   6.339  19.972  0.00  0.00    +0.000 A 
ATOM      8  N   UNL     1       3.109   5.962  19.264  0.00  0.00    +0.000 NA
ATOM      9  N   UNL     1       3.476   4.654  19.451  0.00  0.00    +0.000 N 
ENDROOT
BRANCH   1  14
ATOM     10  C   UNL     1       7.100   6.360  17.298  0.00  0.00    +0.000 A 
ATOM     11  C   UNL     1       7.308   5.731  16.065  0.00  0.00    +0.000 A 
ATOM     12  C   UNL     1       6.637   4.547  15.761  0.00  0.00    +0.000 A 
ATOM     13  C   UNL     1       5.745   3.989  16.681  0.00  0.00    +0.000 A 
ATOM     14  C   UNL     1       5.509   4.603  17.920  0.00  0.00    +0.000 A 
ATOM     15  C   UNL     1       6.211   5.778  18.219  0.00  0.00    +0.000 A 
BRANCH  10  17
ATOM     16  F   UNL     1       8.641   8.099  16.689  0.00  0.00    +0.000 F 
ATOM     17  C   UNL     1       7.798   7.647  17.657  0.00  0.00    +0.000 C 
ATOM     18  F   UNL     1       8.552   7.537  18.785  0.00  0.00    +0.000 F 
ATOM     19  F   UNL     1       6.924   8.666  17.891  0.00  0.00    +0.000 F 
ENDBRANCH  10  17
ENDBRANCH   1  14
BRANCH   7  20
ATOM     20  C   UNL     1       1.673   7.737  19.877  0.00  0.00    +0.000 A 
ATOM     21  C   UNL     1       1.764   8.580  18.781  0.00  0.00    +0.000 A 
ATOM     22  C   UNL     1       1.280   9.894  19.055  0.00  0.00    +0.000 A 
ATOM     23  C   UNL     1       0.867  10.028  20.360  0.00  0.00    +0.000 A 
ATOM     24  S   UNL     1       1.055   8.579  21.240  0.00  0.00    +0.000 S 
ENDBRANCH   7  20
TORSDOF 3
ENDMDL
MODEL 8
REMARK VINA RESULT:      -7.4      4.473      7.057
REMARK  Name = 
REMARK  3 active torsions:
REMARK  status: ('A' for Active; 'I' for Inactive)
REMARK    1  A    between atoms: C_2  and  C_5
REMARK    2  A    between atoms: C_9  and  C_10
REMARK    3  A    between atoms: C_16  and  C_17
REMARK                            x       y       z     vdW  Elec       q    Type
REMARK                         _______ _______ _______ _____ _____    ______ ____
ROOT
ATOM      1  C   UNL     1       2.255   5.970  19.958  0.00  0.00    +0.000 A 
ATOM      2  C   UNL     1       1.742   5.259  21.034  0.00  0.00    +0.000 A 
ATOM      3  N   UNL     1       2.267   3.997  21.121  0.00  0.00    +0.000 NA
ATOM      4  C   UNL     1       3.102   3.912  20.111  0.00  0.00    +0.000 A 
ATOM      5  C   UNL     1       3.931   2.850  19.698  0.00  0.00    +0.000 A 
ATOM      6  C   UNL     1       4.693   2.997  18.611  0.00  0.00    +0.000 A 
ATOM      7  C   UNL     1       4.629   4.298  17.872  0.00  0.00    +0.000 A 
ATOM      8  N   UNL     1       3.912   5.315  18.256  0.00  0.00    +0.000 NA
ATOM      9  N   UNL     1       3.146   5.081  19.369  0.00  0.00    +0.000 N 
ENDROOT
BRANCH   1  14
ATOM     10  C   UNL     1       1.131   9.597  19.937  0.00  0.00    +0.000 A 
ATOM     11  C   UNL     1       1.426   9.952  18.615  0.00  0.00    +0.000 A 
ATOM     12  C   UNL     1       1.999   9.020  17.751  0.00  0.00    +0.000 A 
ATOM     13  C   UNL     1       2.271   7.724  18.197  0.00  0.00    +0.000 A 
ATOM     14  C   UNL     1       1.976   7.337  19.512  0.00  0.00    +0.000 A 
ATOM     15  C   UNL     1       1.424   8.294  20.374  0.00  0.00    +0.000 A 
BRANCH  10  17
ATOM     16  F   UNL     1      -0.807  10.842  20.620  0.00  0.00    +0.000 F 
ATOM     17  C   UNL     1       0.499  10.574  20.896  0.00  0.00    +0.000 C 
ATOM     18  F   UNL     1       1.131  11.779  20.907  0.00  0.00    +0.000 F 
ATOM     19  F   UNL     1       0.521  10.128  22.183  0.00  0.00    +0.000 F 
ENDBRANCH  10  17
ENDBRANCH   1  14
BRANCH   7  20
ATOM     20  C   UNL     1       5.420   4.450  16.654  0.00  0.00    +0.000 A 
ATOM     21  C   UNL     1       5.011   4.266  15.343  0.00  0.00    +0.000 A 
ATOM     22  C   UNL     1       6.062   4.485  14.403  0.00  0.00    +0.000 A 
ATOM     23  C   UNL     1       7.251   4.795  15.023  0.00  0.00    +0.000 A 
ATOM     24  S   UNL     1       7.094   4.827  16.721  0.00  0.00    +0.000 S 
ENDBRANCH   7  20
TORSDOF 3
ENDMDL
MODEL 9
REMARK VINA RESULT:      -7.4      5.859      8.912
REMARK  Name = 
REMARK  3 active torsions:
REMARK  status: ('A' for Active; 'I' for Inactive)
REMARK    1  A    between atoms: C_2  and  C_5
REMARK    2  A    between atoms: C_9  and  C_10
REMARK    3  A    between atoms: C_16  and  C_17
REMARK                            x       y       z     vdW  Elec       q    Type
REMARK                         _______ _______ _______ _____ _____    ______ ____
ROOT
ATOM      1  C   UNL     1       1.274   9.623  19.604  0.00  0.00    +0.000 A 
ATOM      2  C   UNL     1       1.562  10.494  18.562  0.00  0.00    +0.000 A 
ATOM      3  N   UNL     1       2.265   9.886  17.556  0.00  0.00    +0.000 NA
ATOM      4  C   UNL     1       2.420   8.646  17.959  0.00  0.00    +0.000 A 
ATOM      5  C   UNL     1       3.063   7.557  17.337  0.00  0.00    +0.000 A 
ATOM      6  C   UNL     1       3.106   6.377  17.962  0.00  0.00    +0.000 A 
ATOM      7  C   UNL     1       2.465   6.265  19.311  0.00  0.00    +0.000 A 
ATOM      8  N   UNL     1       1.821   7.239  19.890  0.00  0.00    +0.000 NA
ATOM      9  N   UNL     1       1.834   8.420  19.194  0.00  0.00    +0.000 N 
ENDROOT
BRANCH   1  14
ATOM     10  C   UNL     1      -1.132  11.079  22.157  0.00  0.00    +0.000 A 
ATOM     11  C   UNL     1      -0.825  10.297  23.277  0.00  0.00    +0.000 A 
ATOM     12  C   UNL     1       0.144   9.299  23.190  0.00  0.00    +0.000 A 
ATOM     13  C   UNL     1       0.822   9.081  21.987  0.00  0.00    +0.000 A 
ATOM     14  C   UNL     1       0.544   9.857  20.852  0.00  0.00    +0.000 A 
ATOM     15  C   UNL     1      -0.451  10.838  20.950  0.00  0.00    +0.000 A 
BRANCH  10  17
ATOM     16  F   UNL     1      -1.639  13.405  22.478  0.00  0.00    +0.000 F 
ATOM     17  C   UNL     1      -2.164  12.177  22.216  0.00  0.00    +0.000 C 
ATOM     18  F   UNL     1      -3.102  11.961  23.178  0.00  0.00    +0.000 F 
ATOM     19  F   UNL     1      -2.851  12.310  21.047  0.00  0.00    +0.000 F 
ENDBRANCH  10  17
ENDBRANCH   1  14
BRANCH   7  20
ATOM     20  C   UNL     1       2.551   4.994  20.023  0.00  0.00    +0.000 A 
ATOM     21  C   UNL     1       1.860   4.603  21.159  0.00  0.00    +0.000 A 
ATOM     22  C   UNL     1       2.210   3.290  21.592  0.00  0.00    +0.000 A 
ATOM     23  C   UNL     1       3.184   2.729  20.798  0.00  0.00    +0.000 A 
ATOM     24  S   UNL     1       3.662   3.776  19.539  0.00  0.00    +0.000 S 
ENDBRANCH   7  20
TORSDOF 3
ENDMDL
