MODEL 1
REMARK VINA RESULT:      -8.7      0.000      0.000
REMARK  Name = 
REMARK  5 active torsions:
REMARK  status: ('A' for Active; 'I' for Inactive)
REMARK    1  A    between atoms: C_1  and  O_2
REMARK    2  A    between atoms: O_2  and  C_3
REMARK    3  A    between atoms: C_6  and  N_7
REMARK    4  A    between atoms: C_13  and  C_14
REMARK    5  A    between atoms: N_16  and  C_17
REMARK                            x       y       z     vdW  Elec       q    Type
REMARK                         _______ _______ _______ _____ _____    ______ ____
ROOT
ATOM      1  N   UNL     1       2.020   7.289  19.537  0.00  0.00    +0.000 N 
ATOM      2  C   UNL     1       1.769   5.951  20.007  0.00  0.00    +0.000 C 
ATOM      3  C   UNL     1       2.944   5.206  19.514  0.00  0.00    +0.000 A 
ATOM      4  C   UNL     1       3.482   4.077  20.100  0.00  0.00    +0.000 A 
ATOM      5  C   UNL     1       4.645   3.577  19.554  0.00  0.00    +0.000 A 
ATOM      6  C   UNL     1       5.129   4.113  18.358  0.00  0.00    +0.000 A 
ATOM      7  C   UNL     1       4.519   5.220  17.701  0.00  0.00    +0.000 A 
ATOM      8  C   UNL     1       3.500   5.851  18.404  0.00  0.00    +0.000 A 
ATOM      9  C   UNL     1       2.978   7.259  18.490  0.00  0.00    +0.000 C 
ATOM     10  O   UNL     1       3.425   8.163  17.810  0.00  0.00    +0.000 OA
ENDROOT
BRANCH   1  14
ATOM     11  C   UNL     1       0.351  10.476  21.859  0.00  0.00    +0.000 A 
ATOM     12  C   UNL     1       0.465  10.605  20.467  0.00  0.00    +0.000 A 
ATOM     13  C   UNL     1       0.980   9.556  19.663  0.00  0.00    +0.000 A 
ATOM     14  C   UNL     1       1.417   8.370  20.251  0.00  0.00    +0.000 A 
ATOM     15  C   UNL     1       1.318   8.284  21.660  0.00  0.00    +0.000 A 
ATOM     16  C   UNL     1       0.809   9.314  22.453  0.00  0.00    +0.000 A 
BRANCH  11  18
ATOM     17  C   UNL     1      -1.561  11.398  22.908  0.00  0.00    +0.000 C 
ATOM     18  O   UNL     1      -0.184  11.534  22.544  0.00  0.00    +0.000 OA
ENDBRANCH  11  18
ENDBRANCH   1  14
BRANCH   7  19
ATOM     19  C   UNL     1       4.883   5.296  16.243  0.00  0.00    +0.000 C 
ATOM     20  O   UNL     1       4.990   6.426  15.765  0.00  0.00    +0.000 OA
ATOM     21  N   UNL     1       5.195   4.160  15.510  0.00  0.00    +0.000 N 
ATOM     22  H   UNL     1       4.731   3.291  15.760  0.00  0.00    +0.000 HD
BRANCH  21  23
ATOM     23  C   UNL     1       5.915   4.218  14.271  0.00  0.00    +0.000 A 
ATOM     24  C   UNL     1       5.550   3.473  13.133  0.00  0.00    +0.000 A 
ATOM     25  C   UNL     1       6.290   3.527  11.939  0.00  0.00    +0.000 A 
ATOM     26  C   UNL     1       7.418   4.338  11.868  0.00  0.00    +0.000 A 
ATOM     27  C   UNL     1       7.773   5.096  12.979  0.00  0.00    +0.000 A 
ATOM     28  F   UNL     1       8.862   5.875  12.911  0.00  0.00    +0.000 F 
ATOM     29  C   UNL     1       7.028   5.054  14.167  0.00  0.00    +0.000 A 
ENDBRANCH  21  23
ENDBRANCH   7  19
TORSDOF 4
ENDMDL
MODEL 2
REMARK VINA RESULT:      -8.6      2.950      9.320
REMARK  Name = 
REMARK  5 active torsions:
REMARK  status: ('A' for Active; 'I' for Inactive)
REMARK    1  A    between atoms: C_1  and  O_2
REMARK    2  A    between atoms: O_2  and  C_3
REMARK    3  A    between atoms: C_6  and  N_7
REMARK    4  A    between atoms: C_13  and  C_14
REMARK    5  A    between atoms: N_16  and  C_17
REMARK                            x       y       z     vdW  Elec       q    Type
REMARK                         _______ _______ _______ _____ _____    ______ ____
ROOT
ATOM      1  N   UNL     1       4.855   5.378  17.561  0.00  0.00    +0.000 N 
ATOM      2  C   UNL     1       5.057   4.525  18.704  0.00  0.00    +0.000 C 
ATOM      3  C   UNL     1       3.830   4.739  19.495  0.00  0.00    +0.000 A 
ATOM      4  C   UNL     1       3.259   3.822  20.356  0.00  0.00    +0.000 A 
ATOM      5  C   UNL     1       2.053   4.164  20.931  0.00  0.00    +0.000 A 
ATOM      6  C   UNL     1       1.551   5.456  20.759  0.00  0.00    +0.000 A 
ATOM      7  C   UNL     1       2.190   6.435  19.945  0.00  0.00    +0.000 A 
ATOM      8  C   UNL     1       3.265   5.982  19.189  0.00  0.00    +0.000 A 
ATOM      9  C   UNL     1       3.858   6.345  17.856  0.00  0.00    +0.000 C 
ATOM     10  O   UNL     1       3.430   7.261  17.178  0.00  0.00    +0.000 OA
ENDROOT
BRANCH   1  14
ATOM     11  C   UNL     1       6.693   4.388  13.823  0.00  0.00    +0.000 A 
ATOM     12  C   UNL     1       7.398   5.134  14.779  0.00  0.00    +0.000 A 
ATOM     13  C   UNL     1       6.834   5.449  16.041  0.00  0.00    +0.000 A 
ATOM     14  C   UNL     1       5.537   5.044  16.351  0.00  0.00    +0.000 A 
ATOM     15  C   UNL     1       4.839   4.322  15.354  0.00  0.00    +0.000 A 
ATOM     16  C   UNL     1       5.394   4.008  14.112  0.00  0.00    +0.000 A 
BRANCH  11  18
ATOM     17  C   UNL     1       6.696   3.140  11.811  0.00  0.00    +0.000 C 
ATOM     18  O   UNL     1       7.333   4.112  12.645  0.00  0.00    +0.000 OA
ENDBRANCH  11  18
ENDBRANCH   1  14
BRANCH   7  19
ATOM     19  C   UNL     1       1.775   7.837  20.298  0.00  0.00    +0.000 C 
ATOM     20  O   UNL     1       1.633   8.619  19.356  0.00  0.00    +0.000 OA
ATOM     21  N   UNL     1       1.457   8.197  21.600  0.00  0.00    +0.000 N 
ATOM     22  H   UNL     1       1.945   7.723  22.356  0.00  0.00    +0.000 HD
BRANCH  21  23
ATOM     23  C   UNL     1       0.695   9.371  21.909  0.00  0.00    +0.000 A 
ATOM     24  C   UNL     1      -0.273   9.414  22.931  0.00  0.00    +0.000 A 
ATOM     25  C   UNL     1      -1.027  10.571  23.195  0.00  0.00    +0.000 A 
ATOM     26  C   UNL     1      -0.818  11.714  22.430  0.00  0.00    +0.000 A 
ATOM     27  C   UNL     1       0.154  11.689  21.435  0.00  0.00    +0.000 A 
ATOM     28  F   UNL     1       0.353  12.791  20.697  0.00  0.00    +0.000 F 
ATOM     29  C   UNL     1       0.916  10.541  21.179  0.00  0.00    +0.000 A 
ENDBRANCH  21  23
ENDBRANCH   7  19
TORSDOF 4
ENDMDL
MODEL 3
REMARK VINA RESULT:      -8.3      3.421      9.500
REMARK  Name = 
REMARK  5 active torsions:
REMARK  status: ('A' for Active; 'I' for Inactive)
REMARK    1  A    between atoms: C_1  and  O_2
REMARK    2  A    between atoms: O_2  and  C_3
REMARK    3  A    between atoms: C_6  and  N_7
REMARK    4  A    between atoms: C_13  and  C_14
REMARK    5  A    between atoms: N_16  and  C_17
REMARK                            x       y       z     vdW  Elec       q    Type
REMARK                         _______ _______ _______ _____ _____    ______ ____
ROOT
ATOM      1  N   UNL     1       4.827   5.488  17.594  0.00  0.00    +0.000 N 
ATOM      2  C   UNL     1       5.008   4.675  18.769  0.00  0.00    +0.000 C 
ATOM      3  C   UNL     1       3.779   4.939  19.542  0.00  0.00    +0.000 A 
ATOM      4  C   UNL     1       3.187   4.064  20.432  0.00  0.00    +0.000 A 
ATOM      5  C   UNL     1       1.983   4.446  20.985  0.00  0.00    +0.000 A 
ATOM      6  C   UNL     1       1.504   5.739  20.761  0.00  0.00    +0.000 A 
ATOM      7  C   UNL     1       2.163   6.676  19.916  0.00  0.00    +0.000 A 
ATOM      8  C   UNL     1       3.236   6.178  19.185  0.00  0.00    +0.000 A 
ATOM      9  C   UNL     1       3.845   6.481  17.844  0.00  0.00    +0.000 C 
ATOM     10  O   UNL     1       3.436   7.377  17.130  0.00  0.00    +0.000 OA
ENDROOT
BRANCH   1  14
ATOM     11  C   UNL     1       6.675   4.330  13.909  0.00  0.00    +0.000 A 
ATOM     12  C   UNL     1       7.387   5.097  14.843  0.00  0.00    +0.000 A 
ATOM     13  C   UNL     1       6.819   5.468  16.088  0.00  0.00    +0.000 A 
ATOM     14  C   UNL     1       5.512   5.098  16.401  0.00  0.00    +0.000 A 
ATOM     15  C   UNL     1       4.810   4.352  15.426  0.00  0.00    +0.000 A 
ATOM     16  C   UNL     1       5.368   3.983  14.202  0.00  0.00    +0.000 A 
BRANCH  11  18
ATOM     17  C   UNL     1       6.584   3.158  11.853  0.00  0.00    +0.000 C 
ATOM     18  O   UNL     1       7.320   3.999  12.747  0.00  0.00    +0.000 OA
ENDBRANCH  11  18
ENDBRANCH   1  14
BRANCH   7  19
ATOM     19  C   UNL     1       1.770   8.097  20.213  0.00  0.00    +0.000 C 
ATOM     20  O   UNL     1       1.684   8.854  19.245  0.00  0.00    +0.000 OA
ATOM     21  N   UNL     1       1.409   8.501  21.491  0.00  0.00    +0.000 N 
ATOM     22  H   UNL     1       1.855   8.038  22.278  0.00  0.00    +0.000 HD
BRANCH  21  23
ATOM     23  C   UNL     1       0.664   9.701  21.737  0.00  0.00    +0.000 A 
ATOM     24  C   UNL     1       0.963  10.933  21.122  0.00  0.00    +0.000 A 
ATOM     25  C   UNL     1       0.233  12.102  21.402  0.00  0.00    +0.000 A 
ATOM     26  C   UNL     1      -0.818  12.051  22.311  0.00  0.00    +0.000 A 
ATOM     27  C   UNL     1      -1.137  10.834  22.905  0.00  0.00    +0.000 A 
ATOM     28  F   UNL     1      -2.149  10.787  23.783  0.00  0.00    +0.000 F 
ATOM     29  C   UNL     1      -0.419   9.664  22.617  0.00  0.00    +0.000 A 
ENDBRANCH  21  23
ENDBRANCH   7  19
TORSDOF 4
ENDMDL
MODEL 4
REMARK VINA RESULT:      -8.2      0.938      1.303
REMARK  Name = 
REMARK  5 active torsions:
REMARK  status: ('A' for Active; 'I' for Inactive)
REMARK    1  A    between atoms: C_1  and  O_2
REMARK    2  A    between atoms: O_2  and  C_3
REMARK    3  A    between atoms: C_6  and  N_7
REMARK    4  A    between atoms: C_13  and  C_14
REMARK    5  A    between atoms: N_16  and  C_17
REMARK                            x       y       z     vdW  Elec       q    Type
REMARK                         _______ _______ _______ _____ _____    ______ ____
ROOT
ATOM      1  N   UNL     1       1.942   7.376  19.678  0.00  0.00    +0.000 N 
ATOM      2  C   UNL     1       1.692   6.049  20.178  0.00  0.00    +0.000 C 
ATOM      3  C   UNL     1       2.871   5.294  19.709  0.00  0.00    +0.000 A 
ATOM      4  C   UNL     1       3.410   4.181  20.326  0.00  0.00    +0.000 A 
ATOM      5  C   UNL     1       4.576   3.671  19.797  0.00  0.00    +0.000 A 
ATOM      6  C   UNL     1       5.065   4.180  18.591  0.00  0.00    +0.000 A 
ATOM      7  C   UNL     1       4.455   5.268  17.904  0.00  0.00    +0.000 A 
ATOM      8  C   UNL     1       3.431   5.914  18.587  0.00  0.00    +0.000 A 
ATOM      9  C   UNL     1       2.905   7.322  18.636  0.00  0.00    +0.000 C 
ATOM     10  O   UNL     1       3.353   8.211  17.937  0.00  0.00    +0.000 OA
ENDROOT
BRANCH   1  14
ATOM     11  C   UNL     1       0.259  10.618  21.911  0.00  0.00    +0.000 A 
ATOM     12  C   UNL     1       0.348  10.697  20.514  0.00  0.00    +0.000 A 
ATOM     13  C   UNL     1       0.867   9.629  19.740  0.00  0.00    +0.000 A 
ATOM     14  C   UNL     1       1.333   8.472  20.363  0.00  0.00    +0.000 A 
ATOM     15  C   UNL     1       1.258   8.435  21.775  0.00  0.00    +0.000 A 
ATOM     16  C   UNL     1       0.745   9.484  22.539  0.00  0.00    +0.000 A 
BRANCH  11  18
ATOM     17  C   UNL     1      -1.672  11.578  22.890  0.00  0.00    +0.000 C 
ATOM     18  O   UNL     1      -0.282  11.691  22.567  0.00  0.00    +0.000 OA
ENDBRANCH  11  18
ENDBRANCH   1  14
BRANCH   7  19
ATOM     19  C   UNL     1       4.825   5.310  16.447  0.00  0.00    +0.000 C 
ATOM     20  O   UNL     1       4.929   6.429  15.941  0.00  0.00    +0.000 OA
ATOM     21  N   UNL     1       5.146   4.158  15.743  0.00  0.00    +0.000 N 
ATOM     22  H   UNL     1       4.685   3.293  16.012  0.00  0.00    +0.000 HD
BRANCH  21  23
ATOM     23  C   UNL     1       5.872   4.188  14.507  0.00  0.00    +0.000 A 
ATOM     24  C   UNL     1       7.011   4.991  14.302  0.00  0.00    +0.000 A 
ATOM     25  C   UNL     1       7.688   5.023  13.070  0.00  0.00    +0.000 A 
ATOM     26  C   UNL     1       7.227   4.242  12.015  0.00  0.00    +0.000 A 
ATOM     27  C   UNL     1       6.116   3.428  12.215  0.00  0.00    +0.000 A 
ATOM     28  F   UNL     1       5.672   2.679  11.196  0.00  0.00    +0.000 F 
ATOM     29  C   UNL     1       5.449   3.384  13.447  0.00  0.00    +0.000 A 
ENDBRANCH  21  23
ENDBRANCH   7  19
TORSDOF 4
ENDMDL
MODEL 5
REMARK VINA RESULT:      -8.2      4.205      8.952
REMARK  Name = 
REMARK  5 active torsions:
REMARK  status: ('A' for Active; 'I' for Inactive)
REMARK    1  A    between atoms: C_1  and  O_2
REMARK    2  A    between atoms: O_2  and  C_3
REMARK    3  A    between atoms: C_6  and  N_7
REMARK    4  A    between atoms: C_13  and  C_14
REMARK    5  A    between atoms: N_16  and  C_17
REMARK                            x       y       z     vdW  Elec       q    Type
REMARK                         _______ _______ _______ _____ _____    ______ ____
ROOT
ATOM      1  N   UNL     1       1.687   8.250  20.442  0.00  0.00    +0.000 N 
ATOM      2  C   UNL     1       1.468   8.203  21.865  0.00  0.00    +0.000 C 
ATOM      3  C   UNL     1       0.620   9.386  22.106  0.00  0.00    +0.000 A 
ATOM      4  C   UNL     1      -0.298   9.522  23.130  0.00  0.00    +0.000 A 
ATOM      5  C   UNL     1      -1.073  10.662  23.133  0.00  0.00    +0.000 A 
ATOM      6  C   UNL     1      -0.794  11.686  22.226  0.00  0.00    +0.000 A 
ATOM      7  C   UNL     1       0.217  11.586  21.228  0.00  0.00    +0.000 A 
ATOM      8  C   UNL     1       0.810  10.335  21.095  0.00  0.00    +0.000 A 
ATOM      9  C   UNL     1       1.408   9.555  19.957  0.00  0.00    +0.000 C 
ATOM     10  O   UNL     1       1.506  10.011  18.833  0.00  0.00    +0.000 OA
ENDROOT
BRANCH   1  14
ATOM     11  C   UNL     1       2.397   4.478  18.544  0.00  0.00    +0.000 A 
ATOM     12  C   UNL     1       2.703   5.672  17.874  0.00  0.00    +0.000 A 
ATOM     13  C   UNL     1       2.514   6.937  18.485  0.00  0.00    +0.000 A 
ATOM     14  C   UNL     1       1.985   7.023  19.772  0.00  0.00    +0.000 A 
ATOM     15  C   UNL     1       1.658   5.804  20.410  0.00  0.00    +0.000 A 
ATOM     16  C   UNL     1       1.846   4.557  19.811  0.00  0.00    +0.000 A 
BRANCH  11  18
ATOM     17  C   UNL     1       3.417   2.342  18.597  0.00  0.00    +0.000 C 
ATOM     18  O   UNL     1       2.641   3.307  17.880  0.00  0.00    +0.000 OA
ENDBRANCH  11  18
ENDBRANCH   1  14
BRANCH   7  19
ATOM     19  C   UNL     1       0.667  12.930  20.725  0.00  0.00    +0.000 C 
ATOM     20  O   UNL     1       1.044  13.734  21.579  0.00  0.00    +0.000 OA
ATOM     21  N   UNL     1       0.762  13.206  19.369  0.00  0.00    +0.000 N 
ATOM     22  H   UNL     1       0.106  12.746  18.743  0.00  0.00    +0.000 HD
BRANCH  21  23
ATOM     23  C   UNL     1       1.543  14.295  18.858  0.00  0.00    +0.000 A 
ATOM     24  C   UNL     1       1.065  15.617  18.785  0.00  0.00    +0.000 A 
ATOM     25  C   UNL     1       1.842  16.662  18.254  0.00  0.00    +0.000 A 
ATOM     26  C   UNL     1       3.123  16.392  17.784  0.00  0.00    +0.000 A 
ATOM     27  C   UNL     1       3.613  15.094  17.875  0.00  0.00    +0.000 A 
ATOM     28  F   UNL     1       4.848  14.835  17.419  0.00  0.00    +0.000 F 
ATOM     29  C   UNL     1       2.846  14.053  18.416  0.00  0.00    +0.000 A 
ENDBRANCH  21  23
ENDBRANCH   7  19
TORSDOF 4
ENDMDL
MODEL 6
REMARK VINA RESULT:      -8.2      4.940     10.880
REMARK  Name = 
REMARK  5 active torsions:
REMARK  status: ('A' for Active; 'I' for Inactive)
REMARK    1  A    between atoms: C_1  and  O_2
REMARK    2  A    between atoms: O_2  and  C_3
REMARK    3  A    between atoms: C_6  and  N_7
REMARK    4  A    between atoms: C_13  and  C_14
REMARK    5  A    between atoms: N_16  and  C_17
REMARK                            x       y       z     vdW  Elec       q    Type
REMARK                         _______ _______ _______ _____ _____    ______ ____
ROOT
ATOM      1  N   UNL     1       1.816   8.010  19.337  0.00  0.00    +0.000 N 
ATOM      2  C   UNL     1       1.657   8.854  18.181  0.00  0.00    +0.000 C 
ATOM      3  C   UNL     1       1.533  10.201  18.774  0.00  0.00    +0.000 A 
ATOM      4  C   UNL     1       1.894  11.384  18.160  0.00  0.00    +0.000 A 
ATOM      5  C   UNL     1       1.801  12.537  18.911  0.00  0.00    +0.000 A 
ATOM      6  C   UNL     1       1.200  12.490  20.171  0.00  0.00    +0.000 A 
ATOM      7  C   UNL     1       0.739  11.280  20.767  0.00  0.00    +0.000 A 
ATOM      8  C   UNL     1       1.071  10.111  20.091  0.00  0.00    +0.000 A 
ATOM      9  C   UNL     1       1.367   8.694  20.496  0.00  0.00    +0.000 C 
ATOM     10  O   UNL     1       1.298   8.317  21.651  0.00  0.00    +0.000 OA
ENDROOT
BRANCH   1  14
ATOM     11  C   UNL     1       3.651   4.165  18.907  0.00  0.00    +0.000 A 
ATOM     12  C   UNL     1       3.913   5.179  17.973  0.00  0.00    +0.000 A 
ATOM     13  C   UNL     1       3.351   6.474  18.104  0.00  0.00    +0.000 A 
ATOM     14  C   UNL     1       2.491   6.762  19.162  0.00  0.00    +0.000 A 
ATOM     15  C   UNL     1       2.221   5.711  20.069  0.00  0.00    +0.000 A 
ATOM     16  C   UNL     1       2.776   4.436  19.944  0.00  0.00    +0.000 A 
BRANCH  11  18
ATOM     17  C   UNL     1       3.395   1.883  18.328  0.00  0.00    +0.000 C 
ATOM     18  O   UNL     1       4.262   2.957  18.708  0.00  0.00    +0.000 OA
ENDBRANCH  11  18
ENDBRANCH   1  14
BRANCH   7  19
ATOM     19  C   UNL     1      -0.284  11.521  21.843  0.00  0.00    +0.000 C 
ATOM     20  O   UNL     1      -0.078  10.970  22.926  0.00  0.00    +0.000 OA
ATOM     21  N   UNL     1      -1.335  12.408  21.663  0.00  0.00    +0.000 N 
ATOM     22  H   UNL     1      -1.712  12.513  20.725  0.00  0.00    +0.000 HD
BRANCH  21  23
ATOM     23  C   UNL     1      -2.076  12.956  22.762  0.00  0.00    +0.000 A 
ATOM     24  C   UNL     1      -1.752  14.183  23.373  0.00  0.00    +0.000 A 
ATOM     25  C   UNL     1      -2.478  14.685  24.467  0.00  0.00    +0.000 A 
ATOM     26  C   UNL     1      -3.551  13.955  24.969  0.00  0.00    +0.000 A 
ATOM     27  C   UNL     1      -3.894  12.754  24.357  0.00  0.00    +0.000 A 
ATOM     28  F   UNL     1      -4.927  12.051  24.844  0.00  0.00    +0.000 F 
ATOM     29  C   UNL     1      -3.180  12.259  23.257  0.00  0.00    +0.000 A 
ENDBRANCH  21  23
ENDBRANCH   7  19
TORSDOF 4
ENDMDL
MODEL 7
REMARK VINA RESULT:      -8.2      1.367      1.646
REMARK  Name = 
REMARK  5 active torsions:
REMARK  status: ('A' for Active; 'I' for Inactive)
REMARK    1  A    between atoms: C_1  and  O_2
REMARK    2  A    between atoms: O_2  and  C_3
REMARK    3  A    between atoms: C_6  and  N_7
REMARK    4  A    between atoms: C_13  and  C_14
REMARK    5  A    between atoms: N_16  and  C_17
REMARK                            x       y       z     vdW  Elec       q    Type
REMARK                         _______ _______ _______ _____ _____    ______ ____
ROOT
ATOM      1  N   UNL     1       2.380   6.895  19.101  0.00  0.00    +0.000 N 
ATOM      2  C   UNL     1       1.826   5.599  19.399  0.00  0.00    +0.000 C 
ATOM      3  C   UNL     1       2.993   4.705  19.260  0.00  0.00    +0.000 A 
ATOM      4  C   UNL     1       3.172   3.509  19.926  0.00  0.00    +0.000 A 
ATOM      5  C   UNL     1       4.375   2.860  19.745  0.00  0.00    +0.000 A 
ATOM      6  C   UNL     1       5.275   3.337  18.789  0.00  0.00    +0.000 A 
ATOM      7  C   UNL     1       5.049   4.522  18.031  0.00  0.00    +0.000 A 
ATOM      8  C   UNL     1       3.948   5.280  18.414  0.00  0.00    +0.000 A 
ATOM      9  C   UNL     1       3.607   6.744  18.404  0.00  0.00    +0.000 C 
ATOM     10  O   UNL     1       4.357   7.586  17.946  0.00  0.00    +0.000 OA
ENDROOT
BRANCH   1  14
ATOM     11  C   UNL     1       0.522  10.288  20.937  0.00  0.00    +0.000 A 
ATOM     12  C   UNL     1       0.835  10.311  19.570  0.00  0.00    +0.000 A 
ATOM     13  C   UNL     1       1.419   9.193  18.922  0.00  0.00    +0.000 A 
ATOM     14  C   UNL     1       1.723   8.042  19.646  0.00  0.00    +0.000 A 
ATOM     15  C   UNL     1       1.424   8.061  21.029  0.00  0.00    +0.000 A 
ATOM     16  C   UNL     1       0.847   9.159  21.668  0.00  0.00    +0.000 A 
BRANCH  11  18
ATOM     17  C   UNL     1      -0.924  11.181  22.587  0.00  0.00    +0.000 C 
ATOM     18  O   UNL     1      -0.064  11.407  21.465  0.00  0.00    +0.000 OA
ENDBRANCH  11  18
ENDBRANCH   1  14
BRANCH   7  19
ATOM     19  C   UNL     1       5.861   4.561  16.766  0.00  0.00    +0.000 C 
ATOM     20  O   UNL     1       7.035   4.198  16.859  0.00  0.00    +0.000 OA
ATOM     21  N   UNL     1       5.287   4.874  15.542  0.00  0.00    +0.000 N 
ATOM     22  H   UNL     1       4.509   5.528  15.536  0.00  0.00    +0.000 HD
BRANCH  21  23
ATOM     23  C   UNL     1       5.910   4.541  14.293  0.00  0.00    +0.000 A 
ATOM     24  C   UNL     1       7.101   5.141  13.843  0.00  0.00    +0.000 A 
ATOM     25  C   UNL     1       7.676   4.816  12.601  0.00  0.00    +0.000 A 
ATOM     26  C   UNL     1       7.056   3.875  11.785  0.00  0.00    +0.000 A 
ATOM     27  C   UNL     1       5.891   3.260  12.232  0.00  0.00    +0.000 A 
ATOM     28  F   UNL     1       5.293   2.355  11.444  0.00  0.00    +0.000 F 
ATOM     29  C   UNL     1       5.324   3.572  13.476  0.00  0.00    +0.000 A 
ENDBRANCH  21  23
ENDBRANCH   7  19
TORSDOF 4
ENDMDL
MODEL 8
REMARK VINA RESULT:      -8.1      1.537      2.080
REMARK  Name = 
REMARK  5 active torsions:
REMARK  status: ('A' for Active; 'I' for Inactive)
REMARK    1  A    between atoms: C_1  and  O_2
REMARK    2  A    between atoms: O_2  and  C_3
REMARK    3  A    between atoms: C_6  and  N_7
REMARK    4  A    between atoms: C_13  and  C_14
REMARK    5  A    between atoms: N_16  and  C_17
REMARK                            x       y       z     vdW  Elec       q    Type
REMARK                         _______ _______ _______ _____ _____    ______ ____
ROOT
ATOM      1  N   UNL     1       2.371   7.092  18.803  0.00  0.00    +0.000 N 
ATOM      2  C   UNL     1       1.816   5.817  19.178  0.00  0.00    +0.000 C 
ATOM      3  C   UNL     1       2.988   4.921  19.121  0.00  0.00    +0.000 A 
ATOM      4  C   UNL     1       3.158   3.772  19.870  0.00  0.00    +0.000 A 
ATOM      5  C   UNL     1       4.366   3.119  19.755  0.00  0.00    +0.000 A 
ATOM      6  C   UNL     1       5.283   3.533  18.787  0.00  0.00    +0.000 A 
ATOM      7  C   UNL     1       5.068   4.664  17.947  0.00  0.00    +0.000 A 
ATOM      8  C   UNL     1       3.957   5.441  18.256  0.00  0.00    +0.000 A 
ATOM      9  C   UNL     1       3.612   6.900  18.142  0.00  0.00    +0.000 C 
ATOM     10  O   UNL     1       4.368   7.712  17.641  0.00  0.00    +0.000 OA
ENDROOT
BRANCH   1  14
ATOM     11  C   UNL     1       0.253  10.630  19.957  0.00  0.00    +0.000 A 
ATOM     12  C   UNL     1       0.580   9.661  20.917  0.00  0.00    +0.000 A 
ATOM     13  C   UNL     1       1.311   8.495  20.577  0.00  0.00    +0.000 A 
ATOM     14  C   UNL     1       1.701   8.270  19.257  0.00  0.00    +0.000 A 
ATOM     15  C   UNL     1       1.329   9.250  18.307  0.00  0.00    +0.000 A 
ATOM     16  C   UNL     1       0.612  10.400  18.640  0.00  0.00    +0.000 A 
BRANCH  11  18
ATOM     17  C   UNL     1      -1.548  12.121  19.581  0.00  0.00    +0.000 C 
ATOM     18  O   UNL     1      -0.431  11.734  20.389  0.00  0.00    +0.000 OA
ENDBRANCH  11  18
ENDBRANCH   1  14
BRANCH   7  19
ATOM     19  C   UNL     1       5.903   4.621  16.697  0.00  0.00    +0.000 C 
ATOM     20  O   UNL     1       7.026   4.125  16.807  0.00  0.00    +0.000 OA
ATOM     21  N   UNL     1       5.394   5.010  15.466  0.00  0.00    +0.000 N 
ATOM     22  H   UNL     1       4.696   5.748  15.453  0.00  0.00    +0.000 HD
BRANCH  21  23
ATOM     23  C   UNL     1       5.998   4.619  14.226  0.00  0.00    +0.000 A 
ATOM     24  C   UNL     1       7.181   5.199  13.729  0.00  0.00    +0.000 A 
ATOM     25  C   UNL     1       7.737   4.817  12.495  0.00  0.00    +0.000 A 
ATOM     26  C   UNL     1       7.108   3.836  11.735  0.00  0.00    +0.000 A 
ATOM     27  C   UNL     1       5.952   3.240  12.229  0.00  0.00    +0.000 A 
ATOM     28  F   UNL     1       5.346   2.297  11.493  0.00  0.00    +0.000 F 
ATOM     29  C   UNL     1       5.404   3.610  13.465  0.00  0.00    +0.000 A 
ENDBRANCH  21  23
ENDBRANCH   7  19
TORSDOF 4
ENDMDL
MODEL 9
REMARK VINA RESULT:      -8.1      4.736      9.209
REMARK  Name = 
REMARK  5 active torsions:
REMARK  status: ('A' for Active; 'I' for Inactive)
REMARK    1  A    between atoms: C_1  and  O_2
REMARK    2  A    between atoms: O_2  and  C_3
REMARK    3  A    between atoms: C_6  and  N_7
REMARK    4  A    between atoms: C_13  and  C_14
REMARK    5  A    between atoms: N_16  and  C_17
REMARK                            x       y       z     vdW  Elec       q    Type
REMARK                         _______ _______ _______ _____ _____    ______ ____
ROOT
ATOM      1  N   UNL     1       1.650   8.311  20.473  0.00  0.00    +0.000 N 
ATOM      2  C   UNL     1       1.413   8.280  21.894  0.00  0.00    +0.000 C 
ATOM      3  C   UNL     1       0.577   9.477  22.112  0.00  0.00    +0.000 A 
ATOM      4  C   UNL     1      -0.351   9.635  23.123  0.00  0.00    +0.000 A 
ATOM      5  C   UNL     1      -1.112  10.785  23.105  0.00  0.00    +0.000 A 
ATOM      6  C   UNL     1      -0.808  11.797  22.192  0.00  0.00    +0.000 A 
ATOM      7  C   UNL     1       0.215  11.673  21.208  0.00  0.00    +0.000 A 
ATOM      8  C   UNL     1       0.792  10.413  21.094  0.00  0.00    +0.000 A 
ATOM      9  C   UNL     1       1.395   9.614  19.972  0.00  0.00    +0.000 C 
ATOM     10  O   UNL     1       1.513  10.058  18.845  0.00  0.00    +0.000 OA
ENDROOT
BRANCH   1  14
ATOM     11  C   UNL     1       2.339   4.510  18.626  0.00  0.00    +0.000 A 
ATOM     12  C   UNL     1       2.635   5.693  17.934  0.00  0.00    +0.000 A 
ATOM     13  C   UNL     1       2.453   6.968  18.527  0.00  0.00    +0.000 A 
ATOM     14  C   UNL     1       1.941   7.074  19.819  0.00  0.00    +0.000 A 
ATOM     15  C   UNL     1       1.622   5.864  20.480  0.00  0.00    +0.000 A 
ATOM     16  C   UNL     1       1.804   4.608  19.898  0.00  0.00    +0.000 A 
BRANCH  11  18
ATOM     17  C   UNL     1       2.364   2.146  18.756  0.00  0.00    +0.000 C 
ATOM     18  O   UNL     1       2.574   3.328  17.977  0.00  0.00    +0.000 OA
ENDBRANCH  11  18
ENDBRANCH   1  14
BRANCH   7  19
ATOM     19  C   UNL     1       0.688  13.006  20.698  0.00  0.00    +0.000 C 
ATOM     20  O   UNL     1       1.179  13.767  21.533  0.00  0.00    +0.000 OA
ATOM     21  N   UNL     1       0.680  13.313  19.345  0.00  0.00    +0.000 N 
ATOM     22  H   UNL     1      -0.050  12.904  18.769  0.00  0.00    +0.000 HD
BRANCH  21  23
ATOM     23  C   UNL     1       1.470  14.376  18.793  0.00  0.00    +0.000 A 
ATOM     24  C   UNL     1       2.747  14.176  18.235  0.00  0.00    +0.000 A 
ATOM     25  C   UNL     1       3.512  15.240  17.725  0.00  0.00    +0.000 A 
ATOM     26  C   UNL     1       3.001  16.533  17.768  0.00  0.00    +0.000 A 
ATOM     27  C   UNL     1       1.730  16.737  18.295  0.00  0.00    +0.000 A 
ATOM     28  F   UNL     1       1.240  17.984  18.338  0.00  0.00    +0.000 F 
ATOM     29  C   UNL     1       0.960  15.676  18.791  0.00  0.00    +0.000 A 
ENDBRANCH  21  23
ENDBRANCH   7  19
TORSDOF 4
ENDMDL
