MODEL 1
REMARK VINA RESULT:      -8.3      0.000      0.000
REMARK  Name = 
REMARK  5 active torsions:
REMARK  status: ('A' for Active; 'I' for Inactive)
REMARK    1  A    between atoms: C_1  and  C_2
REMARK    2  A    between atoms: C_2  and  N_3
REMARK    3  A    between atoms: C_2  and  C_11
REMARK    4  A    between atoms: C_14  and  O_15
REMARK    5  A    between atoms: O_15  and  C_16
REMARK                            x       y       z     vdW  Elec       q    Type
REMARK                         _______ _______ _______ _____ _____    ______ ____
ROOT
ATOM      1  C   UNL     1       2.403   6.803  19.591  0.00  0.00    +0.000 A 
ATOM      2  C   UNL     1       1.687   7.571  20.532  0.00  0.00    +0.000 A 
ATOM      3  C   UNL     1       1.137   8.806  20.183  0.00  0.00    +0.000 A 
ATOM      4  C   UNL     1       1.296   9.310  18.890  0.00  0.00    +0.000 A 
ATOM      5  C   UNL     1       2.014   8.551  17.945  0.00  0.00    +0.000 A 
ATOM      6  C   UNL     1       2.567   7.321  18.291  0.00  0.00    +0.000 A 
ENDROOT
BRANCH   1   8
ATOM      7  C   UNL     1       1.812   4.691  20.747  0.00  0.00    +0.000 C 
ATOM      8  C   UNL     1       2.940   5.440  19.998  0.00  0.00    +0.000 C 
BRANCH   8   9
ATOM      9  N   UNL     1       3.406   4.672  18.841  0.00  0.00    +0.000 NA
ATOM     10  C   UNL     1       4.634   4.528  18.439  0.00  0.00    +0.000 C 
ATOM     11  C   UNL     1       5.807   5.149  19.178  0.00  0.00    +0.000 C 
ATOM     12  C   UNL     1       6.950   5.732  18.335  0.00  0.00    +0.000 C 
ATOM     13  C   UNL     1       7.684   4.646  17.535  0.00  0.00    +0.000 C 
ATOM     14  C   UNL     1       7.041   4.260  16.192  0.00  0.00    +0.000 C 
ATOM     15  C   UNL     1       5.511   4.300  16.147  0.00  0.00    +0.000 C 
ATOM     16  N   UNL     1       4.880   3.705  17.301  0.00  0.00    +0.000 N 
ATOM     17  H   UNL     1       4.953   2.688  17.445  0.00  0.00    +0.000 HD
ENDBRANCH   8   9
ENDBRANCH   1   8
BRANCH   4  18
ATOM     18  O   UNL     1       0.731  10.504  18.575  0.00  0.00    +0.000 OA
BRANCH  18  19
ATOM     19  C   UNL     1      -0.603  10.751  18.456  0.00  0.00    +0.000 A 
ATOM     20  C   UNL     1      -1.190  11.738  19.260  0.00  0.00    +0.000 A 
ATOM     21  C   UNL     1      -2.562  12.000  19.164  0.00  0.00    +0.000 A 
ATOM     22  C   UNL     1      -3.353  11.286  18.257  0.00  0.00    +0.000 A 
ATOM     23  C   UNL     1      -2.768  10.314  17.440  0.00  0.00    +0.000 A 
ATOM     24  C   UNL     1      -1.405  10.046  17.538  0.00  0.00    +0.000 A 
ENDBRANCH  18  19
ENDBRANCH   4  18
TORSDOF 4
ENDMDL
MODEL 2
REMARK VINA RESULT:      -8.3      0.493      1.123
REMARK  Name = 
REMARK  5 active torsions:
REMARK  status: ('A' for Active; 'I' for Inactive)
REMARK    1  A    between atoms: C_1  and  C_2
REMARK    2  A    between atoms: C_2  and  N_3
REMARK    3  A    between atoms: C_2  and  C_11
REMARK    4  A    between atoms: C_14  and  O_15
REMARK    5  A    between atoms: O_15  and  C_16
REMARK                            x       y       z     vdW  Elec       q    Type
REMARK                         _______ _______ _______ _____ _____    ______ ____
ROOT
ATOM      1  C   UNL     1       2.301   7.259  19.459  0.00  0.00    +0.000 A 
ATOM      2  C   UNL     1       1.565   7.945  20.446  0.00  0.00    +0.000 A 
ATOM      3  C   UNL     1       0.875   9.121  20.143  0.00  0.00    +0.000 A 
ATOM      4  C   UNL     1       0.911   9.646  18.849  0.00  0.00    +0.000 A 
ATOM      5  C   UNL     1       1.648   8.970  17.858  0.00  0.00    +0.000 A 
ATOM      6  C   UNL     1       2.340   7.799  18.158  0.00  0.00    +0.000 A 
ENDROOT
BRANCH   1   8
ATOM      7  C   UNL     1       2.019   5.125  20.689  0.00  0.00    +0.000 C 
ATOM      8  C   UNL     1       2.994   5.955  19.819  0.00  0.00    +0.000 C 
BRANCH   8   9
ATOM      9  N   UNL     1       3.402   5.209  18.627  0.00  0.00    +0.000 NA
ATOM     10  C   UNL     1       4.613   4.892  18.277  0.00  0.00    +0.000 C 
ATOM     11  C   UNL     1       5.822   5.249  19.125  0.00  0.00    +0.000 C 
ATOM     12  C   UNL     1       7.096   5.695  18.395  0.00  0.00    +0.000 C 
ATOM     13  C   UNL     1       7.693   4.564  17.544  0.00  0.00    +0.000 C 
ATOM     14  C   UNL     1       7.085   4.394  16.142  0.00  0.00    +0.000 C 
ATOM     15  C   UNL     1       5.588   4.692  16.022  0.00  0.00    +0.000 C 
ATOM     16  N   UNL     1       4.795   4.126  17.087  0.00  0.00    +0.000 N 
ATOM     17  H   UNL     1       4.692   3.104  17.148  0.00  0.00    +0.000 HD
ENDBRANCH   8   9
ENDBRANCH   1   8
BRANCH   4  18
ATOM     18  O   UNL     1       0.213  10.780  18.580  0.00  0.00    +0.000 OA
BRANCH  18  19
ATOM     19  C   UNL     1      -1.123  10.854  18.321  0.00  0.00    +0.000 A 
ATOM     20  C   UNL     1      -1.683   9.993  17.368  0.00  0.00    +0.000 A 
ATOM     21  C   UNL     1      -3.051  10.059  17.079  0.00  0.00    +0.000 A 
ATOM     22  C   UNL     1      -3.869  10.979  17.746  0.00  0.00    +0.000 A 
ATOM     23  C   UNL     1      -3.317  11.826  18.710  0.00  0.00    +0.000 A 
ATOM     24  C   UNL     1      -1.955  11.767  18.997  0.00  0.00    +0.000 A 
ENDBRANCH  18  19
ENDBRANCH   4  18
TORSDOF 4
ENDMDL
MODEL 3
REMARK VINA RESULT:      -8.1      0.419      1.092
REMARK  Name = 
REMARK  5 active torsions:
REMARK  status: ('A' for Active; 'I' for Inactive)
REMARK    1  A    between atoms: C_1  and  C_2
REMARK    2  A    between atoms: C_2  and  N_3
REMARK    3  A    between atoms: C_2  and  C_11
REMARK    4  A    between atoms: C_14  and  O_15
REMARK    5  A    between atoms: O_15  and  C_16
REMARK                            x       y       z     vdW  Elec       q    Type
REMARK                         _______ _______ _______ _____ _____    ______ ____
ROOT
ATOM      1  C   UNL     1       2.367   6.379  19.773  0.00  0.00    +0.000 A 
ATOM      2  C   UNL     1       2.544   6.931  18.488  0.00  0.00    +0.000 A 
ATOM      3  C   UNL     1       2.110   8.225  18.195  0.00  0.00    +0.000 A 
ATOM      4  C   UNL     1       1.481   8.997  19.174  0.00  0.00    +0.000 A 
ATOM      5  C   UNL     1       1.295   8.452  20.459  0.00  0.00    +0.000 A 
ATOM      6  C   UNL     1       1.723   7.159  20.753  0.00  0.00    +0.000 A 
ENDROOT
BRANCH   1   8
ATOM      7  C   UNL     1       1.760   4.167  20.714  0.00  0.00    +0.000 C 
ATOM      8  C   UNL     1       2.901   4.986  20.064  0.00  0.00    +0.000 C 
BRANCH   8   9
ATOM      9  N   UNL     1       3.397   4.330  18.853  0.00  0.00    +0.000 NA
ATOM     10  C   UNL     1       4.627   4.285  18.433  0.00  0.00    +0.000 C 
ATOM     11  C   UNL     1       5.771   4.918  19.206  0.00  0.00    +0.000 C 
ATOM     12  C   UNL     1       6.869   5.624  18.400  0.00  0.00    +0.000 C 
ATOM     13  C   UNL     1       7.655   4.642  17.519  0.00  0.00    +0.000 C 
ATOM     14  C   UNL     1       7.021   4.316  16.156  0.00  0.00    +0.000 C 
ATOM     15  C   UNL     1       5.491   4.270  16.125  0.00  0.00    +0.000 C 
ATOM     16  N   UNL     1       4.907   3.560  17.237  0.00  0.00    +0.000 N 
ATOM     17  H   UNL     1       5.040   2.541  17.308  0.00  0.00    +0.000 HD
ENDBRANCH   8   9
ENDBRANCH   1   8
BRANCH   4  18
ATOM     18  O   UNL     1       1.088  10.261  18.865  0.00  0.00    +0.000 OA
BRANCH  18  19
ATOM     19  C   UNL     1      -0.196  10.677  18.685  0.00  0.00    +0.000 A 
ATOM     20  C   UNL     1      -0.638  11.833  19.342  0.00  0.00    +0.000 A 
ATOM     21  C   UNL     1      -1.958  12.273  19.180  0.00  0.00    +0.000 A 
ATOM     22  C   UNL     1      -2.839  11.567  18.353  0.00  0.00    +0.000 A 
ATOM     23  C   UNL     1      -2.396  10.424  17.682  0.00  0.00    +0.000 A 
ATOM     24  C   UNL     1      -1.086   9.980  17.846  0.00  0.00    +0.000 A 
ENDBRANCH  18  19
ENDBRANCH   4  18
TORSDOF 4
ENDMDL
MODEL 4
REMARK VINA RESULT:      -8.1      0.557      1.529
REMARK  Name = 
REMARK  5 active torsions:
REMARK  status: ('A' for Active; 'I' for Inactive)
REMARK    1  A    between atoms: C_1  and  C_2
REMARK    2  A    between atoms: C_2  and  N_3
REMARK    3  A    between atoms: C_2  and  C_11
REMARK    4  A    between atoms: C_14  and  O_15
REMARK    5  A    between atoms: O_15  and  C_16
REMARK                            x       y       z     vdW  Elec       q    Type
REMARK                         _______ _______ _______ _____ _____    ______ ____
ROOT
ATOM      1  C   UNL     1       2.246   7.287  19.542  0.00  0.00    +0.000 A 
ATOM      2  C   UNL     1       2.237   7.853  18.251  0.00  0.00    +0.000 A 
ATOM      3  C   UNL     1       1.541   9.034  17.988  0.00  0.00    +0.000 A 
ATOM      4  C   UNL     1       0.829   9.675  19.005  0.00  0.00    +0.000 A 
ATOM      5  C   UNL     1       0.828   9.114  20.296  0.00  0.00    +0.000 A 
ATOM      6  C   UNL     1       1.518   7.933  20.560  0.00  0.00    +0.000 A 
ENDROOT
BRANCH   1   8
ATOM      7  C   UNL     1       2.206   5.082  20.676  0.00  0.00    +0.000 C 
ATOM      8  C   UNL     1       3.060   6.028  19.797  0.00  0.00    +0.000 C 
BRANCH   8   9
ATOM      9  N   UNL     1       3.455   5.374  18.548  0.00  0.00    +0.000 NA
ATOM     10  C   UNL     1       4.651   5.002  18.202  0.00  0.00    +0.000 C 
ATOM     11  C   UNL     1       5.852   5.181  19.116  0.00  0.00    +0.000 C 
ATOM     12  C   UNL     1       7.180   5.598  18.470  0.00  0.00    +0.000 C 
ATOM     13  C   UNL     1       7.724   4.515  17.527  0.00  0.00    +0.000 C 
ATOM     14  C   UNL     1       7.155   4.530  16.098  0.00  0.00    +0.000 C 
ATOM     15  C   UNL     1       5.689   4.951  15.967  0.00  0.00    +0.000 C 
ATOM     16  N   UNL     1       4.819   4.345  16.947  0.00  0.00    +0.000 N 
ATOM     17  H   UNL     1       4.640   3.332  16.901  0.00  0.00    +0.000 HD
ENDBRANCH   8   9
ENDBRANCH   1   8
BRANCH   4  18
ATOM     18  O   UNL     1       0.179  10.835  18.723  0.00  0.00    +0.000 OA
BRANCH  18  19
ATOM     19  C   UNL     1      -1.158  10.967  18.501  0.00  0.00    +0.000 A 
ATOM     20  C   UNL     1      -1.776  10.153  17.541  0.00  0.00    +0.000 A 
ATOM     21  C   UNL     1      -3.147  10.281  17.288  0.00  0.00    +0.000 A 
ATOM     22  C   UNL     1      -3.910  11.214  17.999  0.00  0.00    +0.000 A 
ATOM     23  C   UNL     1      -3.302  12.014  18.970  0.00  0.00    +0.000 A 
ATOM     24  C   UNL     1      -1.937  11.895  19.220  0.00  0.00    +0.000 A 
ENDBRANCH  18  19
ENDBRANCH   4  18
TORSDOF 4
ENDMDL
MODEL 5
REMARK VINA RESULT:      -8.0      3.714      8.420
REMARK  Name = 
REMARK  5 active torsions:
REMARK  status: ('A' for Active; 'I' for Inactive)
REMARK    1  A    between atoms: C_1  and  C_2
REMARK    2  A    between atoms: C_2  and  N_3
REMARK    3  A    between atoms: C_2  and  C_11
REMARK    4  A    between atoms: C_14  and  O_15
REMARK    5  A    between atoms: O_15  and  C_16
REMARK                            x       y       z     vdW  Elec       q    Type
REMARK                         _______ _______ _______ _____ _____    ______ ____
ROOT
ATOM      1  C   UNL     1       0.727   9.877  19.743  0.00  0.00    +0.000 A 
ATOM      2  C   UNL     1       1.436   9.397  18.623  0.00  0.00    +0.000 A 
ATOM      3  C   UNL     1       2.117   8.179  18.670  0.00  0.00    +0.000 A 
ATOM      4  C   UNL     1       2.116   7.415  19.839  0.00  0.00    +0.000 A 
ATOM      5  C   UNL     1       1.415   7.889  20.965  0.00  0.00    +0.000 A 
ATOM      6  C   UNL     1       0.737   9.105  20.922  0.00  0.00    +0.000 A 
ENDROOT
BRANCH   1   8
ATOM      7  C   UNL     1       0.882  12.323  20.114  0.00  0.00    +0.000 C 
ATOM      8  C   UNL     1      -0.045  11.182  19.632  0.00  0.00    +0.000 C 
BRANCH   8   9
ATOM      9  N   UNL     1      -0.510  11.423  18.264  0.00  0.00    +0.000 NA
ATOM     10  C   UNL     1      -1.737  11.604  17.874  0.00  0.00    +0.000 C 
ATOM     11  C   UNL     1      -2.904  11.619  18.848  0.00  0.00    +0.000 C 
ATOM     12  C   UNL     1      -4.211  10.951  18.401  0.00  0.00    +0.000 C 
ATOM     13  C   UNL     1      -4.849  11.681  17.211  0.00  0.00    +0.000 C 
ATOM     14  C   UNL     1      -4.309  11.292  15.824  0.00  0.00    +0.000 C 
ATOM     15  C   UNL     1      -2.820  10.944  15.760  0.00  0.00    +0.000 C 
ATOM     16  N   UNL     1      -1.977  11.860  16.492  0.00  0.00    +0.000 N 
ATOM     17  H   UNL     1      -1.872  12.827  16.152  0.00  0.00    +0.000 HD
ENDBRANCH   8   9
ENDBRANCH   1   8
BRANCH   4  18
ATOM     18  O   UNL     1       2.771   6.224  19.848  0.00  0.00    +0.000 OA
BRANCH  18  19
ATOM     19  C   UNL     1       2.198   4.996  19.707  0.00  0.00    +0.000 A 
ATOM     20  C   UNL     1       1.820   4.283  20.852  0.00  0.00    +0.000 A 
ATOM     21  C   UNL     1       1.241   3.014  20.731  0.00  0.00    +0.000 A 
ATOM     22  C   UNL     1       1.026   2.456  19.466  0.00  0.00    +0.000 A 
ATOM     23  C   UNL     1       1.385   3.172  18.321  0.00  0.00    +0.000 A 
ATOM     24  C   UNL     1       1.968   4.432  18.438  0.00  0.00    +0.000 A 
ENDBRANCH  18  19
ENDBRANCH   4  18
TORSDOF 4
ENDMDL
MODEL 6
REMARK VINA RESULT:      -7.9      0.780      1.619
REMARK  Name = 
REMARK  5 active torsions:
REMARK  status: ('A' for Active; 'I' for Inactive)
REMARK    1  A    between atoms: C_1  and  C_2
REMARK    2  A    between atoms: C_2  and  N_3
REMARK    3  A    between atoms: C_2  and  C_11
REMARK    4  A    between atoms: C_14  and  O_15
REMARK    5  A    between atoms: O_15  and  C_16
REMARK                            x       y       z     vdW  Elec       q    Type
REMARK                         _______ _______ _______ _____ _____    ______ ____
ROOT
ATOM      1  C   UNL     1       2.258   6.004  19.557  0.00  0.00    +0.000 A 
ATOM      2  C   UNL     1       2.454   6.605  18.297  0.00  0.00    +0.000 A 
ATOM      3  C   UNL     1       2.171   7.957  18.093  0.00  0.00    +0.000 A 
ATOM      4  C   UNL     1       1.677   8.740  19.139  0.00  0.00    +0.000 A 
ATOM      5  C   UNL     1       1.473   8.147  20.399  0.00  0.00    +0.000 A 
ATOM      6  C   UNL     1       1.750   6.797  20.605  0.00  0.00    +0.000 A 
ENDROOT
BRANCH   1   8
ATOM      7  C   UNL     1       1.332   3.767  20.093  0.00  0.00    +0.000 C 
ATOM      8  C   UNL     1       2.627   4.542  19.750  0.00  0.00    +0.000 C 
BRANCH   8   9
ATOM      9  N   UNL     1       3.276   3.984  18.561  0.00  0.00    +0.000 NA
ATOM     10  C   UNL     1       4.538   4.047  18.255  0.00  0.00    +0.000 C 
ATOM     11  C   UNL     1       5.559   4.717  19.158  0.00  0.00    +0.000 C 
ATOM     12  C   UNL     1       6.670   5.538  18.488  0.00  0.00    +0.000 C 
ATOM     13  C   UNL     1       7.601   4.659  17.641  0.00  0.00    +0.000 C 
ATOM     14  C   UNL     1       7.116   4.359  16.213  0.00  0.00    +0.000 C 
ATOM     15  C   UNL     1       5.603   4.209  16.038  0.00  0.00    +0.000 C 
ATOM     16  N   UNL     1       4.976   3.404  17.059  0.00  0.00    +0.000 N 
ATOM     17  H   UNL     1       5.177   2.395  17.096  0.00  0.00    +0.000 HD
ENDBRANCH   8   9
ENDBRANCH   1   8
BRANCH   4  18
ATOM     18  O   UNL     1       1.432  10.058  18.915  0.00  0.00    +0.000 OA
BRANCH  18  19
ATOM     19  C   UNL     1       0.227  10.601  18.584  0.00  0.00    +0.000 A 
ATOM     20  C   UNL     1      -0.696   9.831  17.865  0.00  0.00    +0.000 A 
ATOM     21  C   UNL     1      -1.935  10.373  17.504  0.00  0.00    +0.000 A 
ATOM     22  C   UNL     1      -2.264  11.684  17.869  0.00  0.00    +0.000 A 
ATOM     23  C   UNL     1      -1.353  12.449  18.603  0.00  0.00    +0.000 A 
ATOM     24  C   UNL     1      -0.116  11.915  18.958  0.00  0.00    +0.000 A 
ENDBRANCH  18  19
ENDBRANCH   4  18
TORSDOF 4
ENDMDL
MODEL 7
REMARK VINA RESULT:      -7.8      3.765      8.735
REMARK  Name = 
REMARK  5 active torsions:
REMARK  status: ('A' for Active; 'I' for Inactive)
REMARK    1  A    between atoms: C_1  and  C_2
REMARK    2  A    between atoms: C_2  and  N_3
REMARK    3  A    between atoms: C_2  and  C_11
REMARK    4  A    between atoms: C_14  and  O_15
REMARK    5  A    between atoms: O_15  and  C_16
REMARK                            x       y       z     vdW  Elec       q    Type
REMARK                         _______ _______ _______ _____ _____    ______ ____
ROOT
ATOM      1  C   UNL     1       0.923  10.154  19.287  0.00  0.00    +0.000 A 
ATOM      2  C   UNL     1       0.918   9.446  20.507  0.00  0.00    +0.000 A 
ATOM      3  C   UNL     1       1.531   8.197  20.616  0.00  0.00    +0.000 A 
ATOM      4  C   UNL     1       2.157   7.618  19.509  0.00  0.00    +0.000 A 
ATOM      5  C   UNL     1       2.162   8.316  18.286  0.00  0.00    +0.000 A 
ATOM      6  C   UNL     1       1.547   9.561  18.172  0.00  0.00    +0.000 A 
ENDROOT
BRANCH   1   8
ATOM      7  C   UNL     1       1.344  12.515  18.659  0.00  0.00    +0.000 C 
ATOM      8  C   UNL     1       0.289  11.534  19.225  0.00  0.00    +0.000 C 
BRANCH   8   9
ATOM      9  N   UNL     1      -0.927  11.538  18.409  0.00  0.00    +0.000 NA
ATOM     10  C   UNL     1      -2.077  12.058  18.719  0.00  0.00    +0.000 C 
ATOM     11  C   UNL     1      -2.308  12.794  20.028  0.00  0.00    +0.000 C 
ATOM     12  C   UNL     1      -3.654  12.583  20.734  0.00  0.00    +0.000 C 
ATOM     13  C   UNL     1      -4.827  13.133  19.910  0.00  0.00    +0.000 C 
ATOM     14  C   UNL     1      -5.377  12.191  18.825  0.00  0.00    +0.000 C 
ATOM     15  C   UNL     1      -4.347  11.296  18.132  0.00  0.00    +0.000 C 
ATOM     16  N   UNL     1      -3.133  11.984  17.762  0.00  0.00    +0.000 N 
ATOM     17  H   UNL     1      -3.166  12.697  17.020  0.00  0.00    +0.000 HD
ENDBRANCH   8   9
ENDBRANCH   1   8
BRANCH   4  18
ATOM     18  O   UNL     1       2.763   6.411  19.652  0.00  0.00    +0.000 OA
BRANCH  18  19
ATOM     19  C   UNL     1       2.166   5.195  19.512  0.00  0.00    +0.000 A 
ATOM     20  C   UNL     1       1.637   4.559  20.643  0.00  0.00    +0.000 A 
ATOM     21  C   UNL     1       1.029   3.304  20.524  0.00  0.00    +0.000 A 
ATOM     22  C   UNL     1       0.936   2.681  19.274  0.00  0.00    +0.000 A 
ATOM     23  C   UNL     1       1.446   3.321  18.141  0.00  0.00    +0.000 A 
ATOM     24  C   UNL     1       2.057   4.567  18.256  0.00  0.00    +0.000 A 
ENDBRANCH  18  19
ENDBRANCH   4  18
TORSDOF 4
ENDMDL
MODEL 8
REMARK VINA RESULT:      -7.7      1.924      2.577
REMARK  Name = 
REMARK  5 active torsions:
REMARK  status: ('A' for Active; 'I' for Inactive)
REMARK    1  A    between atoms: C_1  and  C_2
REMARK    2  A    between atoms: C_2  and  N_3
REMARK    3  A    between atoms: C_2  and  C_11
REMARK    4  A    between atoms: C_14  and  O_15
REMARK    5  A    between atoms: O_15  and  C_16
REMARK                            x       y       z     vdW  Elec       q    Type
REMARK                         _______ _______ _______ _____ _____    ______ ____
ROOT
ATOM      1  C   UNL     1       2.294   7.022  19.514  0.00  0.00    +0.000 A 
ATOM      2  C   UNL     1       1.643   7.779  20.509  0.00  0.00    +0.000 A 
ATOM      3  C   UNL     1       1.148   9.055  20.234  0.00  0.00    +0.000 A 
ATOM      4  C   UNL     1       1.299   9.612  18.962  0.00  0.00    +0.000 A 
ATOM      5  C   UNL     1       1.953   8.865  17.963  0.00  0.00    +0.000 A 
ATOM      6  C   UNL     1       2.451   7.593  18.235  0.00  0.00    +0.000 A 
ENDROOT
BRANCH   1   8
ATOM      7  C   UNL     1       1.590   4.856  20.492  0.00  0.00    +0.000 C 
ATOM      8  C   UNL     1       2.770   5.616  19.841  0.00  0.00    +0.000 C 
BRANCH   8   9
ATOM      9  N   UNL     1       3.255   4.916  18.650  0.00  0.00    +0.000 NA
ATOM     10  C   UNL     1       4.494   4.703  18.316  0.00  0.00    +0.000 C 
ATOM     11  C   UNL     1       5.656   5.152  19.185  0.00  0.00    +0.000 C 
ATOM     12  C   UNL     1       6.900   5.706  18.477  0.00  0.00    +0.000 C 
ATOM     13  C   UNL     1       7.601   4.636  17.627  0.00  0.00    +0.000 C 
ATOM     14  C   UNL     1       7.028   4.427  16.215  0.00  0.00    +0.000 C 
ATOM     15  C   UNL     1       5.514   4.602  16.074  0.00  0.00    +0.000 C 
ATOM     16  N   UNL     1       4.755   3.964  17.124  0.00  0.00    +0.000 N 
ATOM     17  H   UNL     1       4.736   2.936  17.176  0.00  0.00    +0.000 HD
ENDBRANCH   8   9
ENDBRANCH   1   8
BRANCH   4  18
ATOM     18  O   UNL     1       0.789  10.848  18.719  0.00  0.00    +0.000 OA
BRANCH  18  19
ATOM     19  C   UNL     1       1.405  12.033  18.986  0.00  0.00    +0.000 A 
ATOM     20  C   UNL     1       1.027  12.760  20.123  0.00  0.00    +0.000 A 
ATOM     21  C   UNL     1       1.638  13.986  20.410  0.00  0.00    +0.000 A 
ATOM     22  C   UNL     1       2.638  14.488  19.569  0.00  0.00    +0.000 A 
ATOM     23  C   UNL     1       3.031  13.758  18.444  0.00  0.00    +0.000 A 
ATOM     24  C   UNL     1       2.421  12.540  18.152  0.00  0.00    +0.000 A 
ENDBRANCH  18  19
ENDBRANCH   4  18
TORSDOF 4
ENDMDL
MODEL 9
REMARK VINA RESULT:      -7.7      3.746      8.818
REMARK  Name = 
REMARK  5 active torsions:
REMARK  status: ('A' for Active; 'I' for Inactive)
REMARK    1  A    between atoms: C_1  and  C_2
REMARK    2  A    between atoms: C_2  and  N_3
REMARK    3  A    between atoms: C_2  and  C_11
REMARK    4  A    between atoms: C_14  and  O_15
REMARK    5  A    between atoms: O_15  and  C_16
REMARK                            x       y       z     vdW  Elec       q    Type
REMARK                         _______ _______ _______ _____ _____    ______ ____
ROOT
ATOM      1  C   UNL     1       0.763  10.202  19.357  0.00  0.00    +0.000 A 
ATOM      2  C   UNL     1       1.397   9.684  18.209  0.00  0.00    +0.000 A 
ATOM      3  C   UNL     1       2.062   8.457  18.246  0.00  0.00    +0.000 A 
ATOM      4  C   UNL     1       2.119   7.720  19.432  0.00  0.00    +0.000 A 
ATOM      5  C   UNL     1       1.492   8.232  20.584  0.00  0.00    +0.000 A 
ATOM      6  C   UNL     1       0.832   9.458  20.552  0.00  0.00    +0.000 A 
ENDROOT
BRANCH   1   8
ATOM      7  C   UNL     1       1.020  12.619  18.870  0.00  0.00    +0.000 C 
ATOM      8  C   UNL     1       0.006  11.516  19.260  0.00  0.00    +0.000 C 
BRANCH   8   9
ATOM      9  N   UNL     1      -1.090  11.442  18.292  0.00  0.00    +0.000 NA
ATOM     10  C   UNL     1      -2.302  11.889  18.443  0.00  0.00    +0.000 C 
ATOM     11  C   UNL     1      -2.747  12.613  19.702  0.00  0.00    +0.000 C 
ATOM     12  C   UNL     1      -4.158  12.318  20.229  0.00  0.00    +0.000 C 
ATOM     13  C   UNL     1      -5.244  12.792  19.252  0.00  0.00    +0.000 C 
ATOM     14  C   UNL     1      -5.588  11.815  18.115  0.00  0.00    +0.000 C 
ATOM     15  C   UNL     1      -4.422  10.984  17.572  0.00  0.00    +0.000 C 
ATOM     16  N   UNL     1      -3.215  11.746  17.357  0.00  0.00    +0.000 N 
ATOM     17  H   UNL     1      -3.195  12.454  16.610  0.00  0.00    +0.000 HD
ENDBRANCH   8   9
ENDBRANCH   1   8
BRANCH   4  18
ATOM     18  O   UNL     1       2.755   6.520  19.431  0.00  0.00    +0.000 OA
BRANCH  18  19
ATOM     19  C   UNL     1       2.155   5.297  19.390  0.00  0.00    +0.000 A 
ATOM     20  C   UNL     1       2.087   4.609  18.172  0.00  0.00    +0.000 A 
ATOM     21  C   UNL     1       1.465   3.357  18.105  0.00  0.00    +0.000 A 
ATOM     22  C   UNL     1       0.915   2.781  19.256  0.00  0.00    +0.000 A 
ATOM     23  C   UNL     1       0.997   3.456  20.477  0.00  0.00    +0.000 A 
ATOM     24  C   UNL     1       1.610   4.705  20.546  0.00  0.00    +0.000 A 
ENDBRANCH  18  19
ENDBRANCH   4  18
TORSDOF 4
ENDMDL
