MODEL 1
REMARK VINA RESULT:      -9.5      0.000      0.000
REMARK  Name = 
REMARK  3 active torsions:
REMARK  status: ('A' for Active; 'I' for Inactive)
REMARK    1  A    between atoms: C_6  and  N_7
REMARK    2  A    between atoms: N_7  and  C_8
REMARK    3  A    between atoms: C_10  and  C_11
REMARK                            x       y       z     vdW  Elec       q    Type
REMARK                         _______ _______ _______ _____ _____    ______ ____
ROOT
ATOM      1  C   UNL     1       4.940   4.485  17.195  0.00  0.00    +0.000 A 
ATOM      2  C   UNL     1       4.351   5.635  17.745  0.00  0.00    +0.000 A 
ATOM      3  C   UNL     1       3.072   5.617  18.344  0.00  0.00    +0.000 A 
ATOM      4  C   UNL     1       2.431   4.366  18.403  0.00  0.00    +0.000 A 
ATOM      5  N   UNL     1       1.229   3.961  18.927  0.00  0.00    +0.000 N 
ATOM      6  N   UNL     1       0.970   2.649  18.795  0.00  0.00    +0.000 NA
ATOM      7  C   UNL     1       2.050   2.188  18.161  0.00  0.00    +0.000 A 
ATOM      8  C   UNL     1       2.995   3.203  17.893  0.00  0.00    +0.000 A 
ATOM      9  C   UNL     1       4.259   3.260  17.288  0.00  0.00    +0.000 A 
ATOM     10  H   UNL     1       0.535   4.547  19.378  0.00  0.00    +0.000 HD
ENDROOT
BRANCH   3  11
ATOM     11  C   UNL     1       2.460   6.826  18.912  0.00  0.00    +0.000 A 
ATOM     12  C   UNL     1       2.054   7.056  20.214  0.00  0.00    +0.000 A 
ATOM     13  C   UNL     1       1.486   8.358  20.425  0.00  0.00    +0.000 A 
ATOM     14  C   UNL     1       0.951   8.956  21.591  0.00  0.00    +0.000 A 
ATOM     15  C   UNL     1       0.430  10.253  21.544  0.00  0.00    +0.000 A 
ATOM     16  C   UNL     1       0.425  10.966  20.353  0.00  0.00    +0.000 A 
ATOM     17  C   UNL     1       0.950  10.403  19.190  0.00  0.00    +0.000 A 
ATOM     18  C   UNL     1       1.484   9.102  19.245  0.00  0.00    +0.000 A 
ATOM     19  S   UNL     1       2.207   8.229  17.958  0.00  0.00    +0.000 S 
ENDBRANCH   3  11
BRANCH   1  20
ATOM     20  N   UNL     1       6.248   4.539  16.661  0.00  0.00    +0.000 N 
ATOM     21  H   UNL     1       6.856   5.191  17.144  0.00  0.00    +0.000 HD
BRANCH  20  27
ATOM     22  N   UNL     1       8.846   6.047  13.037  0.00  0.00    +0.000 N 
ATOM     23  C   UNL     1       7.817   5.257  13.506  0.00  0.00    +0.000 A 
ATOM     24  N   UNL     1       7.144   4.522  12.622  0.00  0.00    +0.000 NA
ATOM     25  C   UNL     1       6.169   3.742  13.120  0.00  0.00    +0.000 A 
ATOM     26  C   UNL     1       5.854   3.682  14.455  0.00  0.00    +0.000 A 
ATOM     27  C   UNL     1       6.568   4.523  15.282  0.00  0.00    +0.000 A 
ATOM     28  N   UNL     1       7.549   5.313  14.811  0.00  0.00    +0.000 NA
ATOM     29  H   UNL     1       8.691   6.279  12.068  0.00  0.00    +0.000 HD
ATOM     30  H   UNL     1       9.013   6.806  13.683  0.00  0.00    +0.000 HD
ENDBRANCH  20  27
ENDBRANCH   1  20
TORSDOF 3
ENDMDL
MODEL 2
REMARK VINA RESULT:      -9.3      0.721      1.253
REMARK  Name = 
REMARK  3 active torsions:
REMARK  status: ('A' for Active; 'I' for Inactive)
REMARK    1  A    between atoms: C_6  and  N_7
REMARK    2  A    between atoms: N_7  and  C_8
REMARK    3  A    between atoms: C_10  and  C_11
REMARK                            x       y       z     vdW  Elec       q    Type
REMARK                         _______ _______ _______ _____ _____    ______ ____
ROOT
ATOM      1  C   UNL     1       4.946   4.230  17.199  0.00  0.00    +0.000 A 
ATOM      2  C   UNL     1       4.374   5.437  17.634  0.00  0.00    +0.000 A 
ATOM      3  C   UNL     1       3.099   5.494  18.240  0.00  0.00    +0.000 A 
ATOM      4  C   UNL     1       2.445   4.264  18.429  0.00  0.00    +0.000 A 
ATOM      5  N   UNL     1       1.242   3.929  18.999  0.00  0.00    +0.000 N 
ATOM      6  N   UNL     1       0.967   2.613  19.002  0.00  0.00    +0.000 NA
ATOM      7  C   UNL     1       2.037   2.078  18.411  0.00  0.00    +0.000 A 
ATOM      8  C   UNL     1       2.991   3.049  18.036  0.00  0.00    +0.000 A 
ATOM      9  C   UNL     1       4.251   3.029  17.420  0.00  0.00    +0.000 A 
ATOM     10  H   UNL     1       0.559   4.565  19.392  0.00  0.00    +0.000 HD
ENDROOT
BRANCH   3  11
ATOM     11  C   UNL     1       2.505   6.763  18.686  0.00  0.00    +0.000 A 
ATOM     12  C   UNL     1       2.256   7.905  17.947  0.00  0.00    +0.000 A 
ATOM     13  C   UNL     1       1.667   8.972  18.706  0.00  0.00    +0.000 A 
ATOM     14  C   UNL     1       1.284  10.279  18.320  0.00  0.00    +0.000 A 
ATOM     15  C   UNL     1       0.738  11.160  19.259  0.00  0.00    +0.000 A 
ATOM     16  C   UNL     1       0.570  10.766  20.579  0.00  0.00    +0.000 A 
ATOM     17  C   UNL     1       0.935   9.482  20.985  0.00  0.00    +0.000 A 
ATOM     18  C   UNL     1       1.474   8.595  20.034  0.00  0.00    +0.000 A 
ATOM     19  S   UNL     1       1.957   6.971  20.297  0.00  0.00    +0.000 S 
ENDBRANCH   3  11
BRANCH   1  20
ATOM     20  N   UNL     1       6.251   4.214  16.654  0.00  0.00    +0.000 N 
ATOM     21  H   UNL     1       6.923   4.744  17.198  0.00  0.00    +0.000 HD
BRANCH  20  27
ATOM     22  N   UNL     1       8.833   6.032  13.165  0.00  0.00    +0.000 N 
ATOM     23  C   UNL     1       7.803   5.208  13.567  0.00  0.00    +0.000 A 
ATOM     24  N   UNL     1       7.120   4.559  12.625  0.00  0.00    +0.000 NA
ATOM     25  C   UNL     1       6.144   3.743  13.056  0.00  0.00    +0.000 A 
ATOM     26  C   UNL     1       5.837   3.563  14.382  0.00  0.00    +0.000 A 
ATOM     27  C   UNL     1       6.562   4.322  15.277  0.00  0.00    +0.000 A 
ATOM     28  N   UNL     1       7.544   5.147  14.873  0.00  0.00    +0.000 NA
ATOM     29  H   UNL     1       8.674   6.352  12.221  0.00  0.00    +0.000 HD
ATOM     30  H   UNL     1       9.009   6.728  13.876  0.00  0.00    +0.000 HD
ENDBRANCH  20  27
ENDBRANCH   1  20
TORSDOF 3
ENDMDL
MODEL 3
REMARK VINA RESULT:      -9.2      1.106      1.134
REMARK  Name = 
REMARK  3 active torsions:
REMARK  status: ('A' for Active; 'I' for Inactive)
REMARK    1  A    between atoms: C_6  and  N_7
REMARK    2  A    between atoms: N_7  and  C_8
REMARK    3  A    between atoms: C_10  and  C_11
REMARK                            x       y       z     vdW  Elec       q    Type
REMARK                         _______ _______ _______ _____ _____    ______ ____
ROOT
ATOM      1  C   UNL     1       5.260   4.978  18.031  0.00  0.00    +0.000 A 
ATOM      2  C   UNL     1       4.463   6.112  18.258  0.00  0.00    +0.000 A 
ATOM      3  C   UNL     1       3.288   6.065  19.041  0.00  0.00    +0.000 A 
ATOM      4  C   UNL     1       2.980   4.825  19.626  0.00  0.00    +0.000 A 
ATOM      5  N   UNL     1       1.967   4.415  20.457  0.00  0.00    +0.000 N 
ATOM      6  N   UNL     1       2.024   3.121  20.819  0.00  0.00    +0.000 NA
ATOM      7  C   UNL     1       3.120   2.680  20.199  0.00  0.00    +0.000 A 
ATOM      8  C   UNL     1       3.760   3.689  19.446  0.00  0.00    +0.000 A 
ATOM      9  C   UNL     1       4.909   3.765  18.646  0.00  0.00    +0.000 A 
ATOM     10  H   UNL     1       1.197   4.978  20.798  0.00  0.00    +0.000 HD
ENDROOT
BRANCH   3  11
ATOM     11  C   UNL     1       2.456   7.255  19.267  0.00  0.00    +0.000 A 
ATOM     12  C   UNL     1       1.831   7.660  20.433  0.00  0.00    +0.000 A 
ATOM     13  C   UNL     1       1.085   8.880  20.300  0.00  0.00    +0.000 A 
ATOM     14  C   UNL     1       0.310   9.598  21.243  0.00  0.00    +0.000 A 
ATOM     15  C   UNL     1      -0.349  10.772  20.866  0.00  0.00    +0.000 A 
ATOM     16  C   UNL     1      -0.257  11.244  19.564  0.00  0.00    +0.000 A 
ATOM     17  C   UNL     1       0.503  10.558  18.616  0.00  0.00    +0.000 A 
ATOM     18  C   UNL     1       1.174   9.384  19.003  0.00  0.00    +0.000 A 
ATOM     19  S   UNL     1       2.185   8.404  18.024  0.00  0.00    +0.000 S 
ENDBRANCH   3  11
BRANCH   1  20
ATOM     20  N   UNL     1       6.461   5.085  17.291  0.00  0.00    +0.000 N 
ATOM     21  H   UNL     1       7.028   5.883  17.555  0.00  0.00    +0.000 HD
BRANCH  20  27
ATOM     22  N   UNL     1       8.633   5.842  13.185  0.00  0.00    +0.000 N 
ATOM     23  C   UNL     1       7.626   5.220  13.892  0.00  0.00    +0.000 A 
ATOM     24  N   UNL     1       6.787   4.433  13.219  0.00  0.00    +0.000 NA
ATOM     25  C   UNL     1       5.839   3.819  13.946  0.00  0.00    +0.000 A 
ATOM     26  C   UNL     1       5.707   3.972  15.304  0.00  0.00    +0.000 A 
ATOM     27  C   UNL     1       6.585   4.852  15.900  0.00  0.00    +0.000 A 
ATOM     28  N   UNL     1       7.545   5.479  15.197  0.00  0.00    +0.000 NA
ATOM     29  H   UNL     1       8.363   5.952  12.219  0.00  0.00    +0.000 HD
ATOM     30  H   UNL     1       8.941   6.665  13.685  0.00  0.00    +0.000 HD
ENDBRANCH  20  27
ENDBRANCH   1  20
TORSDOF 3
ENDMDL
MODEL 4
REMARK VINA RESULT:      -9.2      1.585      1.960
REMARK  Name = 
REMARK  3 active torsions:
REMARK  status: ('A' for Active; 'I' for Inactive)
REMARK    1  A    between atoms: C_6  and  N_7
REMARK    2  A    between atoms: N_7  and  C_8
REMARK    3  A    between atoms: C_10  and  C_11
REMARK                            x       y       z     vdW  Elec       q    Type
REMARK                         _______ _______ _______ _____ _____    ______ ____
ROOT
ATOM      1  C   UNL     1       3.946   3.526  17.935  0.00  0.00    +0.000 A 
ATOM      2  C   UNL     1       3.458   4.830  18.117  0.00  0.00    +0.000 A 
ATOM      3  C   UNL     1       2.786   5.228  19.294  0.00  0.00    +0.000 A 
ATOM      4  C   UNL     1       2.671   4.256  20.304  0.00  0.00    +0.000 A 
ATOM      5  N   UNL     1       2.129   4.284  21.564  0.00  0.00    +0.000 N 
ATOM      6  N   UNL     1       2.225   3.129  22.245  0.00  0.00    +0.000 NA
ATOM      7  C   UNL     1       2.858   2.324  21.390  0.00  0.00    +0.000 A 
ATOM      8  C   UNL     1       3.165   2.964  20.169  0.00  0.00    +0.000 A 
ATOM      9  C   UNL     1       3.810   2.596  18.979  0.00  0.00    +0.000 A 
ATOM     10  H   UNL     1       1.664   5.068  22.007  0.00  0.00    +0.000 HD
ENDROOT
BRANCH   3  11
ATOM     11  C   UNL     1       2.272   6.593  19.474  0.00  0.00    +0.000 A 
ATOM     12  C   UNL     1       1.718   7.163  20.605  0.00  0.00    +0.000 A 
ATOM     13  C   UNL     1       1.312   8.530  20.430  0.00  0.00    +0.000 A 
ATOM     14  C   UNL     1       0.702   9.436  21.330  0.00  0.00    +0.000 A 
ATOM     15  C   UNL     1       0.379  10.732  20.916  0.00  0.00    +0.000 A 
ATOM     16  C   UNL     1       0.646  11.142  19.617  0.00  0.00    +0.000 A 
ATOM     17  C   UNL     1       1.250  10.270  18.710  0.00  0.00    +0.000 A 
ATOM     18  C   UNL     1       1.584   8.971  19.136  0.00  0.00    +0.000 A 
ATOM     19  S   UNL     1       2.358   7.751  18.212  0.00  0.00    +0.000 S 
ENDBRANCH   3  11
BRANCH   1  20
ATOM     20  N   UNL     1       4.667   3.190  16.766  0.00  0.00    +0.000 N 
ATOM     21  H   UNL     1       4.967   2.222  16.739  0.00  0.00    +0.000 HD
BRANCH  20  27
ATOM     22  N   UNL     1       7.688   6.796  16.913  0.00  0.00    +0.000 N 
ATOM     23  C   UNL     1       7.109   5.767  16.199  0.00  0.00    +0.000 A 
ATOM     24  N   UNL     1       7.484   5.601  14.931  0.00  0.00    +0.000 NA
ATOM     25  C   UNL     1       6.922   4.571  14.278  0.00  0.00    +0.000 A 
ATOM     26  C   UNL     1       6.010   3.718  14.849  0.00  0.00    +0.000 A 
ATOM     27  C   UNL     1       5.643   4.007  16.146  0.00  0.00    +0.000 A 
ATOM     28  N   UNL     1       6.190   5.032  16.824  0.00  0.00    +0.000 NA
ATOM     29  H   UNL     1       7.996   7.523  16.285  0.00  0.00    +0.000 HD
ATOM     30  H   UNL     1       7.084   7.059  17.680  0.00  0.00    +0.000 HD
ENDBRANCH  20  27
ENDBRANCH   1  20
TORSDOF 3
ENDMDL
MODEL 5
REMARK VINA RESULT:      -9.1      1.488      1.972
REMARK  Name = 
REMARK  3 active torsions:
REMARK  status: ('A' for Active; 'I' for Inactive)
REMARK    1  A    between atoms: C_6  and  N_7
REMARK    2  A    between atoms: N_7  and  C_8
REMARK    3  A    between atoms: C_10  and  C_11
REMARK                            x       y       z     vdW  Elec       q    Type
REMARK                         _______ _______ _______ _____ _____    ______ ____
ROOT
ATOM      1  C   UNL     1       4.905   4.167  18.900  0.00  0.00    +0.000 A 
ATOM      2  C   UNL     1       4.264   5.414  18.979  0.00  0.00    +0.000 A 
ATOM      3  C   UNL     1       3.004   5.578  19.595  0.00  0.00    +0.000 A 
ATOM      4  C   UNL     1       2.440   4.427  20.174  0.00  0.00    +0.000 A 
ATOM      5  N   UNL     1       1.278   4.210  20.872  0.00  0.00    +0.000 N 
ATOM      6  N   UNL     1       1.094   2.943  21.281  0.00  0.00    +0.000 NA
ATOM      7  C   UNL     1       2.183   2.317  20.831  0.00  0.00    +0.000 A 
ATOM      8  C   UNL     1       3.059   3.183  20.139  0.00  0.00    +0.000 A 
ATOM      9  C   UNL     1       4.301   3.051  19.502  0.00  0.00    +0.000 A 
ATOM     10  H   UNL     1       0.563   4.895  21.086  0.00  0.00    +0.000 HD
ENDROOT
BRANCH   3  11
ATOM     11  C   UNL     1       2.336   6.885  19.667  0.00  0.00    +0.000 A 
ATOM     12  C   UNL     1       1.705   7.472  20.749  0.00  0.00    +0.000 A 
ATOM     13  C   UNL     1       1.149   8.766  20.468  0.00  0.00    +0.000 A 
ATOM     14  C   UNL     1       0.428   9.662  21.293  0.00  0.00    +0.000 A 
ATOM     15  C   UNL     1      -0.035  10.877  20.778  0.00  0.00    +0.000 A 
ATOM     16  C   UNL     1       0.201  11.216  19.453  0.00  0.00    +0.000 A 
ATOM     17  C   UNL     1       0.913  10.353  18.619  0.00  0.00    +0.000 A 
ATOM     18  C   UNL     1       1.386   9.136  19.145  0.00  0.00    +0.000 A 
ATOM     19  S   UNL     1       2.306   7.946  18.321  0.00  0.00    +0.000 S 
ENDBRANCH   3  11
BRANCH   1  20
ATOM     20  N   UNL     1       6.194   4.063  18.328  0.00  0.00    +0.000 N 
ATOM     21  H   UNL     1       6.944   4.270  18.978  0.00  0.00    +0.000 HD
BRANCH  20  27
ATOM     22  N   UNL     1       6.267   3.464  13.660  0.00  0.00    +0.000 N 
ATOM     23  C   UNL     1       6.604   4.226  14.759  0.00  0.00    +0.000 A 
ATOM     24  N   UNL     1       7.281   5.355  14.551  0.00  0.00    +0.000 NA
ATOM     25  C   UNL     1       7.564   6.086  15.642  0.00  0.00    +0.000 A 
ATOM     26  C   UNL     1       7.197   5.722  16.914  0.00  0.00    +0.000 A 
ATOM     27  C   UNL     1       6.550   4.510  17.032  0.00  0.00    +0.000 A 
ATOM     28  N   UNL     1       6.254   3.758  15.957  0.00  0.00    +0.000 NA
ATOM     29  H   UNL     1       6.915   3.637  12.906  0.00  0.00    +0.000 HD
ATOM     30  H   UNL     1       6.117   2.506  13.944  0.00  0.00    +0.000 HD
ENDBRANCH  20  27
ENDBRANCH   1  20
TORSDOF 3
ENDMDL
MODEL 6
REMARK VINA RESULT:      -8.9      1.670      2.249
REMARK  Name = 
REMARK  3 active torsions:
REMARK  status: ('A' for Active; 'I' for Inactive)
REMARK    1  A    between atoms: C_6  and  N_7
REMARK    2  A    between atoms: N_7  and  C_8
REMARK    3  A    between atoms: C_10  and  C_11
REMARK                            x       y       z     vdW  Elec       q    Type
REMARK                         _______ _______ _______ _____ _____    ______ ____
ROOT
ATOM      1  C   UNL     1       4.037   3.464  17.906  0.00  0.00    +0.000 A 
ATOM      2  C   UNL     1       3.561   4.779  18.027  0.00  0.00    +0.000 A 
ATOM      3  C   UNL     1       2.841   5.221  19.159  0.00  0.00    +0.000 A 
ATOM      4  C   UNL     1       2.663   4.280  20.189  0.00  0.00    +0.000 A 
ATOM      5  N   UNL     1       2.064   4.353  21.422  0.00  0.00    +0.000 N 
ATOM      6  N   UNL     1       2.111   3.217  22.139  0.00  0.00    +0.000 NA
ATOM      7  C   UNL     1       2.771   2.379  21.338  0.00  0.00    +0.000 A 
ATOM      8  C   UNL     1       3.144   2.979  20.115  0.00  0.00    +0.000 A 
ATOM      9  C   UNL     1       3.838   2.567  18.968  0.00  0.00    +0.000 A 
ATOM     10  H   UNL     1       1.590   5.155  21.820  0.00  0.00    +0.000 HD
ENDROOT
BRANCH   3  11
ATOM     11  C   UNL     1       2.340   6.598  19.275  0.00  0.00    +0.000 A 
ATOM     12  C   UNL     1       2.323   7.593  18.315  0.00  0.00    +0.000 A 
ATOM     13  C   UNL     1       1.762   8.833  18.771  0.00  0.00    +0.000 A 
ATOM     14  C   UNL     1       1.585  10.069  18.104  0.00  0.00    +0.000 A 
ATOM     15  C   UNL     1       1.021  11.159  18.775  0.00  0.00    +0.000 A 
ATOM     16  C   UNL     1       0.634  11.043  20.103  0.00  0.00    +0.000 A 
ATOM     17  C   UNL     1       0.793   9.835  20.783  0.00  0.00    +0.000 A 
ATOM     18  C   UNL     1       1.351   8.739  20.100  0.00  0.00    +0.000 A 
ATOM     19  S   UNL     1       1.606   7.160  20.719  0.00  0.00    +0.000 S 
ENDBRANCH   3  11
BRANCH   1  20
ATOM     20  N   UNL     1       4.806   3.084  16.781  0.00  0.00    +0.000 N 
ATOM     21  H   UNL     1       5.190   2.148  16.851  0.00  0.00    +0.000 HD
BRANCH  20  27
ATOM     22  N   UNL     1       7.730   6.771  16.714  0.00  0.00    +0.000 N 
ATOM     23  C   UNL     1       7.136   5.722  16.045  0.00  0.00    +0.000 A 
ATOM     24  N   UNL     1       7.432   5.557  14.756  0.00  0.00    +0.000 NA
ATOM     25  C   UNL     1       6.859   4.506  14.146  0.00  0.00    +0.000 A 
ATOM     26  C   UNL     1       6.008   3.634  14.779  0.00  0.00    +0.000 A 
ATOM     27  C   UNL     1       5.718   3.922  16.096  0.00  0.00    +0.000 A 
ATOM     28  N   UNL     1       6.278   4.966  16.731  0.00  0.00    +0.000 NA
ATOM     29  H   UNL     1       7.978   7.502  16.064  0.00  0.00    +0.000 HD
ATOM     30  H   UNL     1       7.170   7.023  17.516  0.00  0.00    +0.000 HD
ENDBRANCH  20  27
ENDBRANCH   1  20
TORSDOF 3
ENDMDL
MODEL 7
REMARK VINA RESULT:      -8.8      1.053      1.875
REMARK  Name = 
REMARK  3 active torsions:
REMARK  status: ('A' for Active; 'I' for Inactive)
REMARK    1  A    between atoms: C_6  and  N_7
REMARK    2  A    between atoms: N_7  and  C_8
REMARK    3  A    between atoms: C_10  and  C_11
REMARK                            x       y       z     vdW  Elec       q    Type
REMARK                         _______ _______ _______ _____ _____    ______ ____
ROOT
ATOM      1  C   UNL     1       5.083   4.772  16.559  0.00  0.00    +0.000 A 
ATOM      2  C   UNL     1       4.461   5.887  17.145  0.00  0.00    +0.000 A 
ATOM      3  C   UNL     1       3.212   5.799  17.798  0.00  0.00    +0.000 A 
ATOM      4  C   UNL     1       2.638   4.517  17.874  0.00  0.00    +0.000 A 
ATOM      5  N   UNL     1       1.483   4.048  18.447  0.00  0.00    +0.000 N 
ATOM      6  N   UNL     1       1.285   2.725  18.314  0.00  0.00    +0.000 NA
ATOM      7  C   UNL     1       2.359   2.324  17.631  0.00  0.00    +0.000 A 
ATOM      8  C   UNL     1       3.238   3.388  17.330  0.00  0.00    +0.000 A 
ATOM      9  C   UNL     1       4.469   3.513  16.671  0.00  0.00    +0.000 A 
ATOM     10  H   UNL     1       0.781   4.594  18.931  0.00  0.00    +0.000 HD
ENDROOT
BRANCH   3  11
ATOM     11  C   UNL     1       2.565   6.972  18.402  0.00  0.00    +0.000 A 
ATOM     12  C   UNL     1       2.194   8.159  17.796  0.00  0.00    +0.000 A 
ATOM     13  C   UNL     1       1.584   9.103  18.690  0.00  0.00    +0.000 A 
ATOM     14  C   UNL     1       1.092  10.410  18.459  0.00  0.00    +0.000 A 
ATOM     15  C   UNL     1       0.549  11.156  19.511  0.00  0.00    +0.000 A 
ATOM     16  C   UNL     1       0.492  10.625  20.792  0.00  0.00    +0.000 A 
ATOM     17  C   UNL     1       0.966   9.338  21.047  0.00  0.00    +0.000 A 
ATOM     18  C   UNL     1       1.501   8.588  19.983  0.00  0.00    +0.000 A 
ATOM     19  S   UNL     1       2.106   6.985  20.054  0.00  0.00    +0.000 S 
ENDBRANCH   3  11
BRANCH   1  20
ATOM     20  N   UNL     1       6.363   4.896  15.970  0.00  0.00    +0.000 N 
ATOM     21  H   UNL     1       6.889   5.692  16.310  0.00  0.00    +0.000 HD
BRANCH  20  27
ATOM     22  N   UNL     1       5.713   2.513  11.963  0.00  0.00    +0.000 N 
ATOM     23  C   UNL     1       6.357   3.524  12.646  0.00  0.00    +0.000 A 
ATOM     24  N   UNL     1       7.257   4.248  11.983  0.00  0.00    +0.000 NA
ATOM     25  C   UNL     1       7.842   5.243  12.672  0.00  0.00    +0.000 A 
ATOM     26  C   UNL     1       7.556   5.524  13.986  0.00  0.00    +0.000 A 
ATOM     27  C   UNL     1       6.654   4.682  14.601  0.00  0.00    +0.000 A 
ATOM     28  N   UNL     1       6.054   3.679  13.935  0.00  0.00    +0.000 NA
ATOM     29  H   UNL     1       6.286   2.192  11.197  0.00  0.00    +0.000 HD
ATOM     30  H   UNL     1       5.372   1.824  12.619  0.00  0.00    +0.000 HD
ENDBRANCH  20  27
ENDBRANCH   1  20
TORSDOF 3
ENDMDL
MODEL 8
REMARK VINA RESULT:      -8.7      1.583      2.268
REMARK  Name = 
REMARK  3 active torsions:
REMARK  status: ('A' for Active; 'I' for Inactive)
REMARK    1  A    between atoms: C_6  and  N_7
REMARK    2  A    between atoms: N_7  and  C_8
REMARK    3  A    between atoms: C_10  and  C_11
REMARK                            x       y       z     vdW  Elec       q    Type
REMARK                         _______ _______ _______ _____ _____    ______ ____
ROOT
ATOM      1  C   UNL     1       4.854   4.152  18.799  0.00  0.00    +0.000 A 
ATOM      2  C   UNL     1       4.239   5.413  18.860  0.00  0.00    +0.000 A 
ATOM      3  C   UNL     1       2.983   5.611  19.475  0.00  0.00    +0.000 A 
ATOM      4  C   UNL     1       2.396   4.481  20.071  0.00  0.00    +0.000 A 
ATOM      5  N   UNL     1       1.231   4.298  20.772  0.00  0.00    +0.000 N 
ATOM      6  N   UNL     1       1.021   3.041  21.200  0.00  0.00    +0.000 NA
ATOM      7  C   UNL     1       2.097   2.387  20.758  0.00  0.00    +0.000 A 
ATOM      8  C   UNL     1       2.989   3.224  20.053  0.00  0.00    +0.000 A 
ATOM      9  C   UNL     1       4.228   3.057  19.417  0.00  0.00    +0.000 A 
ATOM     10  H   UNL     1       0.530   5.000  20.977  0.00  0.00    +0.000 HD
ENDROOT
BRANCH   3  11
ATOM     11  C   UNL     1       2.342   6.933  19.528  0.00  0.00    +0.000 A 
ATOM     12  C   UNL     1       2.206   7.866  18.517  0.00  0.00    +0.000 A 
ATOM     13  C   UNL     1       1.524   9.065  18.918  0.00  0.00    +0.000 A 
ATOM     14  C   UNL     1       1.208  10.237  18.190  0.00  0.00    +0.000 A 
ATOM     15  C   UNL     1       0.543  11.297  18.814  0.00  0.00    +0.000 A 
ATOM     16  C   UNL     1       0.192  11.216  20.154  0.00  0.00    +0.000 A 
ATOM     17  C   UNL     1       0.487  10.070  20.894  0.00  0.00    +0.000 A 
ATOM     18  C   UNL     1       1.146   9.002  20.258  0.00  0.00    +0.000 A 
ATOM     19  S   UNL     1       1.576   7.495  20.956  0.00  0.00    +0.000 S 
ENDBRANCH   3  11
BRANCH   1  20
ATOM     20  N   UNL     1       6.140   4.013  18.227  0.00  0.00    +0.000 N 
ATOM     21  H   UNL     1       6.895   4.185  18.882  0.00  0.00    +0.000 HD
BRANCH  20  27
ATOM     22  N   UNL     1       6.273   3.443  13.557  0.00  0.00    +0.000 N 
ATOM     23  C   UNL     1       6.597   4.198  14.665  0.00  0.00    +0.000 A 
ATOM     24  N   UNL     1       7.279   5.326  14.473  0.00  0.00    +0.000 NA
ATOM     25  C   UNL     1       7.549   6.049  15.572  0.00  0.00    +0.000 A 
ATOM     26  C   UNL     1       7.164   5.679  16.837  0.00  0.00    +0.000 A 
ATOM     27  C   UNL     1       6.514   4.467  16.939  0.00  0.00    +0.000 A 
ATOM     28  N   UNL     1       6.230   3.723  15.856  0.00  0.00    +0.000 NA
ATOM     29  H   UNL     1       6.931   3.619  12.813  0.00  0.00    +0.000 HD
ATOM     30  H   UNL     1       6.118   2.483  13.833  0.00  0.00    +0.000 HD
ENDBRANCH  20  27
ENDBRANCH   1  20
TORSDOF 3
ENDMDL
MODEL 9
REMARK VINA RESULT:      -8.7      1.601      2.215
REMARK  Name = 
REMARK  3 active torsions:
REMARK  status: ('A' for Active; 'I' for Inactive)
REMARK    1  A    between atoms: C_6  and  N_7
REMARK    2  A    between atoms: N_7  and  C_8
REMARK    3  A    between atoms: C_10  and  C_11
REMARK                            x       y       z     vdW  Elec       q    Type
REMARK                         _______ _______ _______ _____ _____    ______ ____
ROOT
ATOM      1  C   UNL     1       3.187   4.166  17.753  0.00  0.00    +0.000 A 
ATOM      2  C   UNL     1       2.722   5.411  18.208  0.00  0.00    +0.000 A 
ATOM      3  C   UNL     1       2.221   5.598  19.516  0.00  0.00    +0.000 A 
ATOM      4  C   UNL     1       2.257   4.475  20.362  0.00  0.00    +0.000 A 
ATOM      5  N   UNL     1       1.900   4.287  21.674  0.00  0.00    +0.000 N 
ATOM      6  N   UNL     1       2.100   3.043  22.141  0.00  0.00    +0.000 NA
ATOM      7  C   UNL     1       2.610   2.402  21.087  0.00  0.00    +0.000 A 
ATOM      8  C   UNL     1       2.736   3.236  19.954  0.00  0.00    +0.000 A 
ATOM      9  C   UNL     1       3.207   3.079  18.643  0.00  0.00    +0.000 A 
ATOM     10  H   UNL     1       1.498   4.977  22.298  0.00  0.00    +0.000 HD
ENDROOT
BRANCH   3  11
ATOM     11  C   UNL     1       1.730   6.902  19.983  0.00  0.00    +0.000 A 
ATOM     12  C   UNL     1       1.158   7.221  21.201  0.00  0.00    +0.000 A 
ATOM     13  C   UNL     1       0.783   8.602  21.324  0.00  0.00    +0.000 A 
ATOM     14  C   UNL     1       0.168   9.302  22.390  0.00  0.00    +0.000 A 
ATOM     15  C   UNL     1      -0.120  10.665  22.266  0.00  0.00    +0.000 A 
ATOM     16  C   UNL     1       0.188  11.345  21.096  0.00  0.00    +0.000 A 
ATOM     17  C   UNL     1       0.799  10.681  20.031  0.00  0.00    +0.000 A 
ATOM     18  C   UNL     1       1.097   9.312  20.166  0.00  0.00    +0.000 A 
ATOM     19  S   UNL     1       1.870   8.307  19.011  0.00  0.00    +0.000 S 
ENDBRANCH   3  11
BRANCH   1  20
ATOM     20  N   UNL     1       3.736   4.041  16.456  0.00  0.00    +0.000 N 
ATOM     21  H   UNL     1       3.386   3.239  15.944  0.00  0.00    +0.000 HD
BRANCH  20  27
ATOM     22  N   UNL     1       8.273   4.311  17.678  0.00  0.00    +0.000 N 
ATOM     23  C   UNL     1       7.304   4.412  16.702  0.00  0.00    +0.000 A 
ATOM     24  N   UNL     1       7.692   4.745  15.471  0.00  0.00    +0.000 NA
ATOM     25  C   UNL     1       6.725   4.803  14.541  0.00  0.00    +0.000 A 
ATOM     26  C   UNL     1       5.403   4.544  14.805  0.00  0.00    +0.000 A 
ATOM     27  C   UNL     1       5.093   4.265  16.119  0.00  0.00    +0.000 A 
ATOM     28  N   UNL     1       6.041   4.200  17.071  0.00  0.00    +0.000 NA
ATOM     29  H   UNL     1       9.065   4.890  17.442  0.00  0.00    +0.000 HD
ATOM     30  H   UNL     1       7.852   4.436  18.589  0.00  0.00    +0.000 HD
ENDBRANCH  20  27
ENDBRANCH   1  20
TORSDOF 3
ENDMDL
