MODEL 1
REMARK VINA RESULT:      -7.2      0.000      0.000
REMARK  Name = 
REMARK  6 active torsions:
REMARK  status: ('A' for Active; 'I' for Inactive)
REMARK    1  A    between atoms: C_2  and  C_3
REMARK    2  A    between atoms: C_2  and  O_17
REMARK    3  A    between atoms: C_3  and  S_4
REMARK    4  A    between atoms: S_4  and  C_5
REMARK    5  A    between atoms: C_8  and  C_9
REMARK    6  A    between atoms: O_17  and  C_18
REMARK                            x       y       z     vdW  Elec       q    Type
REMARK                         _______ _______ _______ _____ _____    ______ ____
ROOT
ATOM      1  S   UNL     1       5.865   7.580  17.003  0.00  0.00    +0.000 S 
ENDROOT
BRANCH   1   2
ATOM      2  C   UNL     1       4.369   7.062  17.710  0.00  0.00    +0.000 A 
ATOM      3  N   UNL     1       3.244   7.742  17.707  0.00  0.00    +0.000 NA
ATOM      4  N   UNL     1       2.312   6.967  18.372  0.00  0.00    +0.000 NA
ATOM      5  C   UNL     1       2.927   5.861  18.740  0.00  0.00    +0.000 A 
ATOM      6  O   UNL     1       4.242   5.854  18.347  0.00  0.00    +0.000 OA
BRANCH   5   7
ATOM      7  C   UNL     1       2.446   4.675  19.452  0.00  0.00    +0.000 A 
ATOM      8  C   UNL     1       2.255   4.736  20.849  0.00  0.00    +0.000 A 
ATOM      9  C   UNL     1       1.820   3.622  21.578  0.00  0.00    +0.000 A 
ATOM     10  C   UNL     1       1.560   2.422  20.924  0.00  0.00    +0.000 A 
ATOM     11  C   UNL     1       1.735   2.339  19.544  0.00  0.00    +0.000 A 
ATOM     12  C   UNL     1       2.174   3.454  18.811  0.00  0.00    +0.000 A 
ATOM     13 CL   UNL     1       2.317   3.232  17.101  0.00  0.00    +0.000 Cl
ENDBRANCH   5   7
ENDBRANCH   1   2
BRANCH   1  14
ATOM     14  C   UNL     1       7.087   6.630  17.966  0.00  0.00    +0.000 C 
BRANCH  14  16
ATOM     15  O   UNL     1       7.702   4.281  17.667  0.00  0.00    +0.000 OA
ATOM     16  C   UNL     1       7.512   5.392  17.190  0.00  0.00    +0.000 C 
BRANCH  16  17
ATOM     17  O   UNL     1       7.614   5.721  15.828  0.00  0.00    +0.000 OA
BRANCH  17  18
ATOM     18  C   UNL     1       6.941   4.988  14.819  0.00  0.00    +0.000 A 
ATOM     19  C   UNL     1       5.682   4.411  14.991  0.00  0.00    +0.000 A 
ATOM     20  C   UNL     1       5.091   3.710  13.935  0.00  0.00    +0.000 A 
ATOM     21  C   UNL     1       5.750   3.609  12.712  0.00  0.00    +0.000 A 
ATOM     22 BR   UNL     1       4.952   2.650  11.291  0.00  0.00    +0.000 Br
ATOM     23  C   UNL     1       6.994   4.213  12.527  0.00  0.00    +0.000 A 
ATOM     24  C   UNL     1       7.590   4.908  13.584  0.00  0.00    +0.000 A 
ENDBRANCH  17  18
ENDBRANCH  16  17
ENDBRANCH  14  16
ENDBRANCH   1  14
TORSDOF 6
ENDMDL
MODEL 2
REMARK VINA RESULT:      -6.9      6.018      8.717
REMARK  Name = 
REMARK  6 active torsions:
REMARK  status: ('A' for Active; 'I' for Inactive)
REMARK    1  A    between atoms: C_2  and  C_3
REMARK    2  A    between atoms: C_2  and  O_17
REMARK    3  A    between atoms: C_3  and  S_4
REMARK    4  A    between atoms: S_4  and  C_5
REMARK    5  A    between atoms: C_8  and  C_9
REMARK    6  A    between atoms: O_17  and  C_18
REMARK                            x       y       z     vdW  Elec       q    Type
REMARK                         _______ _______ _______ _____ _____    ______ ____
ROOT
ATOM      1  S   UNL     1       7.785   8.324  17.514  0.00  0.00    +0.000 S 
ENDROOT
BRANCH   1   2
ATOM      2  C   UNL     1       8.530   9.691  18.277  0.00  0.00    +0.000 A 
ATOM      3  N   UNL     1       9.170   9.673  19.425  0.00  0.00    +0.000 NA
ATOM      4  N   UNL     1       9.602  10.966  19.658  0.00  0.00    +0.000 NA
ATOM      5  C   UNL     1       9.197  11.693  18.635  0.00  0.00    +0.000 A 
ATOM      6  O   UNL     1       8.510  10.942  17.715  0.00  0.00    +0.000 OA
BRANCH   5   7
ATOM      7  C   UNL     1       9.377  13.113  18.324  0.00  0.00    +0.000 A 
ATOM      8  C   UNL     1       8.342  14.025  18.623  0.00  0.00    +0.000 A 
ATOM      9  C   UNL     1       8.457  15.387  18.323  0.00  0.00    +0.000 A 
ATOM     10  C   UNL     1       9.613  15.871  17.721  0.00  0.00    +0.000 A 
ATOM     11  C   UNL     1      10.653  14.992  17.423  0.00  0.00    +0.000 A 
ATOM     12  C   UNL     1      10.539  13.624  17.720  0.00  0.00    +0.000 A 
ATOM     13 CL   UNL     1      11.912  12.644  17.332  0.00  0.00    +0.000 Cl
ENDBRANCH   5   7
ENDBRANCH   1   2
BRANCH   1  14
ATOM     14  C   UNL     1       8.146   6.987  18.698  0.00  0.00    +0.000 C 
BRANCH  14  16
ATOM     15  O   UNL     1       7.758   4.586  18.441  0.00  0.00    +0.000 OA
ATOM     16  C   UNL     1       7.360   5.738  18.330  0.00  0.00    +0.000 C 
BRANCH  16  17
ATOM     17  O   UNL     1       6.086   6.118  17.876  0.00  0.00    +0.000 OA
BRANCH  17  18
ATOM     18  C   UNL     1       4.947   5.291  18.035  0.00  0.00    +0.000 A 
ATOM     19  C   UNL     1       4.458   4.447  17.037  0.00  0.00    +0.000 A 
ATOM     20  C   UNL     1       3.328   3.661  17.287  0.00  0.00    +0.000 A 
ATOM     21  C   UNL     1       2.712   3.705  18.536  0.00  0.00    +0.000 A 
ATOM     22 BR   UNL     1       1.179   2.648  18.864  0.00  0.00    +0.000 Br
ATOM     23  C   UNL     1       3.219   4.523  19.545  0.00  0.00    +0.000 A 
ATOM     24  C   UNL     1       4.343   5.316  19.296  0.00  0.00    +0.000 A 
ENDBRANCH  17  18
ENDBRANCH  16  17
ENDBRANCH  14  16
ENDBRANCH   1  14
TORSDOF 6
ENDMDL
MODEL 3
REMARK VINA RESULT:      -6.9      5.087      8.098
REMARK  Name = 
REMARK  6 active torsions:
REMARK  status: ('A' for Active; 'I' for Inactive)
REMARK    1  A    between atoms: C_2  and  C_3
REMARK    2  A    between atoms: C_2  and  O_17
REMARK    3  A    between atoms: C_3  and  S_4
REMARK    4  A    between atoms: S_4  and  C_5
REMARK    5  A    between atoms: C_8  and  C_9
REMARK    6  A    between atoms: O_17  and  C_18
REMARK                            x       y       z     vdW  Elec       q    Type
REMARK                         _______ _______ _______ _____ _____    ______ ____
ROOT
ATOM      1  S   UNL     1       7.544   6.367  18.366  0.00  0.00    +0.000 S 
ENDROOT
BRANCH   1   2
ATOM      2  C   UNL     1       7.920   8.046  18.152  0.00  0.00    +0.000 A 
ATOM      3  N   UNL     1       7.252   8.889  17.395  0.00  0.00    +0.000 NA
ATOM      4  N   UNL     1       7.886  10.112  17.513  0.00  0.00    +0.000 NA
ATOM      5  C   UNL     1       8.902   9.939  18.336  0.00  0.00    +0.000 A 
ATOM      6  O   UNL     1       8.980   8.643  18.783  0.00  0.00    +0.000 OA
BRANCH   5   7
ATOM      7  C   UNL     1       9.907  10.874  18.847  0.00  0.00    +0.000 A 
ATOM      8  C   UNL     1      10.896  11.374  17.973  0.00  0.00    +0.000 A 
ATOM      9  C   UNL     1      11.892  12.251  18.419  0.00  0.00    +0.000 A 
ATOM     10  C   UNL     1      11.918  12.653  19.750  0.00  0.00    +0.000 A 
ATOM     11  C   UNL     1      10.947  12.179  20.631  0.00  0.00    +0.000 A 
ATOM     12  C   UNL     1       9.948  11.297  20.187  0.00  0.00    +0.000 A 
ATOM     13 CL   UNL     1       8.782  10.810  21.368  0.00  0.00    +0.000 Cl
ENDBRANCH   5   7
ENDBRANCH   1   2
BRANCH   1  14
ATOM     14  C   UNL     1       7.131   5.852  16.668  0.00  0.00    +0.000 C 
BRANCH  14  16
ATOM     15  O   UNL     1       4.911   6.779  16.221  0.00  0.00    +0.000 OA
ATOM     16  C   UNL     1       5.621   5.818  16.487  0.00  0.00    +0.000 C 
BRANCH  16  17
ATOM     17  O   UNL     1       5.174   4.494  16.635  0.00  0.00    +0.000 OA
BRANCH  17  18
ATOM     18  C   UNL     1       4.346   4.090  17.711  0.00  0.00    +0.000 A 
ATOM     19  C   UNL     1       4.837   3.628  18.934  0.00  0.00    +0.000 A 
ATOM     20  C   UNL     1       3.943   3.256  19.943  0.00  0.00    +0.000 A 
ATOM     21  C   UNL     1       2.570   3.369  19.733  0.00  0.00    +0.000 A 
ATOM     22 BR   UNL     1       1.366   2.854  21.097  0.00  0.00    +0.000 Br
ATOM     23  C   UNL     1       2.078   3.862  18.524  0.00  0.00    +0.000 A 
ATOM     24  C   UNL     1       2.970   4.227  17.510  0.00  0.00    +0.000 A 
ENDBRANCH  17  18
ENDBRANCH  16  17
ENDBRANCH  14  16
ENDBRANCH   1  14
TORSDOF 6
ENDMDL
MODEL 4
REMARK VINA RESULT:      -6.9      4.122      6.979
REMARK  Name = 
REMARK  6 active torsions:
REMARK  status: ('A' for Active; 'I' for Inactive)
REMARK    1  A    between atoms: C_2  and  C_3
REMARK    2  A    between atoms: C_2  and  O_17
REMARK    3  A    between atoms: C_3  and  S_4
REMARK    4  A    between atoms: S_4  and  C_5
REMARK    5  A    between atoms: C_8  and  C_9
REMARK    6  A    between atoms: O_17  and  C_18
REMARK                            x       y       z     vdW  Elec       q    Type
REMARK                         _______ _______ _______ _____ _____    ______ ____
ROOT
ATOM      1  S   UNL     1       1.856   2.323  18.985  0.00  0.00    +0.000 S 
ENDROOT
BRANCH   1   2
ATOM      2  C   UNL     1       3.065   3.119  18.029  0.00  0.00    +0.000 A 
ATOM      3  N   UNL     1       3.192   3.027  16.724  0.00  0.00    +0.000 NA
ATOM      4  N   UNL     1       4.274   3.814  16.376  0.00  0.00    +0.000 NA
ATOM      5  C   UNL     1       4.740   4.338  17.493  0.00  0.00    +0.000 A 
ATOM      6  O   UNL     1       4.013   3.939  18.586  0.00  0.00    +0.000 OA
BRANCH   5   7
ATOM      7  C   UNL     1       5.850   5.261  17.741  0.00  0.00    +0.000 A 
ATOM      8  C   UNL     1       6.772   4.974  18.770  0.00  0.00    +0.000 A 
ATOM      9  C   UNL     1       7.836   5.836  19.062  0.00  0.00    +0.000 A 
ATOM     10  C   UNL     1       8.005   7.005  18.327  0.00  0.00    +0.000 A 
ATOM     11  C   UNL     1       7.112   7.307  17.301  0.00  0.00    +0.000 A 
ATOM     12  C   UNL     1       6.042   6.445  17.008  0.00  0.00    +0.000 A 
ATOM     13 CL   UNL     1       5.025   6.914  15.689  0.00  0.00    +0.000 Cl
ENDBRANCH   5   7
ENDBRANCH   1   2
BRANCH   1  14
ATOM     14  C   UNL     1       1.074   3.725  19.848  0.00  0.00    +0.000 C 
BRANCH  14  16
ATOM     15  O   UNL     1       1.966   3.730  22.126  0.00  0.00    +0.000 OA
ATOM     16  C   UNL     1       1.960   4.192  20.993  0.00  0.00    +0.000 C 
BRANCH  16  17
ATOM     17  O   UNL     1       2.802   5.217  20.529  0.00  0.00    +0.000 OA
BRANCH  17  18
ATOM     18  C   UNL     1       2.306   6.479  20.122  0.00  0.00    +0.000 A 
ATOM     19  C   UNL     1       2.540   7.034  18.863  0.00  0.00    +0.000 A 
ATOM     20  C   UNL     1       2.003   8.287  18.546  0.00  0.00    +0.000 A 
ATOM     21  C   UNL     1       1.219   8.963  19.479  0.00  0.00    +0.000 A 
ATOM     22 BR   UNL     1       0.505  10.660  19.050  0.00  0.00    +0.000 Br
ATOM     23  C   UNL     1       0.956   8.396  20.726  0.00  0.00    +0.000 A 
ATOM     24  C   UNL     1       1.499   7.147  21.047  0.00  0.00    +0.000 A 
ENDBRANCH  17  18
ENDBRANCH  16  17
ENDBRANCH  14  16
ENDBRANCH   1  14
TORSDOF 6
ENDMDL
MODEL 5
REMARK VINA RESULT:      -6.8      4.313      5.554
REMARK  Name = 
REMARK  6 active torsions:
REMARK  status: ('A' for Active; 'I' for Inactive)
REMARK    1  A    between atoms: C_2  and  C_3
REMARK    2  A    between atoms: C_2  and  O_17
REMARK    3  A    between atoms: C_3  and  S_4
REMARK    4  A    between atoms: S_4  and  C_5
REMARK    5  A    between atoms: C_8  and  C_9
REMARK    6  A    between atoms: O_17  and  C_18
REMARK                            x       y       z     vdW  Elec       q    Type
REMARK                         _______ _______ _______ _____ _____    ______ ____
ROOT
ATOM      1  S   UNL     1       2.171   4.076  20.298  0.00  0.00    +0.000 S 
ENDROOT
BRANCH   1   2
ATOM      2  C   UNL     1       2.043   5.793  20.094  0.00  0.00    +0.000 A 
ATOM      3  N   UNL     1       2.677   6.507  19.190  0.00  0.00    +0.000 NA
ATOM      4  N   UNL     1       2.289   7.820  19.380  0.00  0.00    +0.000 NA
ATOM      5  C   UNL     1       1.441   7.826  20.389  0.00  0.00    +0.000 A 
ATOM      6  O   UNL     1       1.236   6.565  20.891  0.00  0.00    +0.000 OA
BRANCH   5   7
ATOM      7  C   UNL     1       0.693   8.916  21.021  0.00  0.00    +0.000 A 
ATOM      8  C   UNL     1       0.543   8.930  22.424  0.00  0.00    +0.000 A 
ATOM      9  C   UNL     1      -0.183   9.936  23.073  0.00  0.00    +0.000 A 
ATOM     10  C   UNL     1      -0.771  10.956  22.332  0.00  0.00    +0.000 A 
ATOM     11  C   UNL     1      -0.631  10.968  20.946  0.00  0.00    +0.000 A 
ATOM     12  C   UNL     1       0.095   9.958  20.292  0.00  0.00    +0.000 A 
ATOM     13 CL   UNL     1       0.225  10.106  18.573  0.00  0.00    +0.000 Cl
ENDBRANCH   5   7
ENDBRANCH   1   2
BRANCH   1  14
ATOM     14  C   UNL     1       3.756   3.716  19.474  0.00  0.00    +0.000 C 
BRANCH  14  16
ATOM     15  O   UNL     1       2.458   2.764  17.632  0.00  0.00    +0.000 OA
ATOM     16  C   UNL     1       3.507   3.233  18.053  0.00  0.00    +0.000 C 
BRANCH  16  17
ATOM     17  O   UNL     1       4.666   3.450  17.289  0.00  0.00    +0.000 OA
BRANCH  17  18
ATOM     18  C   UNL     1       5.465   4.610  17.436  0.00  0.00    +0.000 A 
ATOM     19  C   UNL     1       6.596   4.672  18.252  0.00  0.00    +0.000 A 
ATOM     20  C   UNL     1       7.329   5.861  18.331  0.00  0.00    +0.000 A 
ATOM     21  C   UNL     1       6.942   6.968  17.579  0.00  0.00    +0.000 A 
ATOM     22 BR   UNL     1       7.931   8.575  17.698  0.00  0.00    +0.000 Br
ATOM     23  C   UNL     1       5.832   6.897  16.737  0.00  0.00    +0.000 A 
ATOM     24  C   UNL     1       5.093   5.713  16.663  0.00  0.00    +0.000 A 
ENDBRANCH  17  18
ENDBRANCH  16  17
ENDBRANCH  14  16
ENDBRANCH   1  14
TORSDOF 6
ENDMDL
MODEL 6
REMARK VINA RESULT:      -6.8      5.116      7.892
REMARK  Name = 
REMARK  6 active torsions:
REMARK  status: ('A' for Active; 'I' for Inactive)
REMARK    1  A    between atoms: C_2  and  C_3
REMARK    2  A    between atoms: C_2  and  O_17
REMARK    3  A    between atoms: C_3  and  S_4
REMARK    4  A    between atoms: S_4  and  C_5
REMARK    5  A    between atoms: C_8  and  C_9
REMARK    6  A    between atoms: O_17  and  C_18
REMARK                            x       y       z     vdW  Elec       q    Type
REMARK                         _______ _______ _______ _____ _____    ______ ____
ROOT
ATOM      1  S   UNL     1       7.586   6.034  18.351  0.00  0.00    +0.000 S 
ENDROOT
BRANCH   1   2
ATOM      2  C   UNL     1       7.966   7.719  18.195  0.00  0.00    +0.000 A 
ATOM      3  N   UNL     1       7.614   8.494  17.193  0.00  0.00    +0.000 NA
ATOM      4  N   UNL     1       8.120   9.751  17.470  0.00  0.00    +0.000 NA
ATOM      5  C   UNL     1       8.749   9.664  18.625  0.00  0.00    +0.000 A 
ATOM      6  O   UNL     1       8.688   8.395  19.145  0.00  0.00    +0.000 OA
BRANCH   5   7
ATOM      7  C   UNL     1       9.455  10.670  19.423  0.00  0.00    +0.000 A 
ATOM      8  C   UNL     1       9.110  10.844  20.780  0.00  0.00    +0.000 A 
ATOM      9  C   UNL     1       9.739  11.808  21.577  0.00  0.00    +0.000 A 
ATOM     10  C   UNL     1      10.731  12.618  21.036  0.00  0.00    +0.000 A 
ATOM     11  C   UNL     1      11.094  12.460  19.700  0.00  0.00    +0.000 A 
ATOM     12  C   UNL     1      10.463  11.495  18.896  0.00  0.00    +0.000 A 
ATOM     13 CL   UNL     1      11.028  11.375  17.265  0.00  0.00    +0.000 Cl
ENDBRANCH   5   7
ENDBRANCH   1   2
BRANCH   1  14
ATOM     14  C   UNL     1       7.037   5.614  16.665  0.00  0.00    +0.000 C 
BRANCH  14  16
ATOM     15  O   UNL     1       4.914   6.799  16.395  0.00  0.00    +0.000 OA
ATOM     16  C   UNL     1       5.525   5.752  16.559  0.00  0.00    +0.000 C 
BRANCH  16  17
ATOM     17  O   UNL     1       4.944   4.475  16.642  0.00  0.00    +0.000 OA
BRANCH  17  18
ATOM     18  C   UNL     1       4.186   4.059  17.763  0.00  0.00    +0.000 A 
ATOM     19  C   UNL     1       4.747   3.503  18.914  0.00  0.00    +0.000 A 
ATOM     20  C   UNL     1       3.918   3.126  19.976  0.00  0.00    +0.000 A 
ATOM     21  C   UNL     1       2.542   3.329  19.891  0.00  0.00    +0.000 A 
ATOM     22 BR   UNL     1       1.427   2.808  21.326  0.00  0.00    +0.000 Br
ATOM     23  C   UNL     1       1.983   3.915  18.756  0.00  0.00    +0.000 A 
ATOM     24  C   UNL     1       2.808   4.285  17.689  0.00  0.00    +0.000 A 
ENDBRANCH  17  18
ENDBRANCH  16  17
ENDBRANCH  14  16
ENDBRANCH   1  14
TORSDOF 6
ENDMDL
MODEL 7
REMARK VINA RESULT:      -6.8      3.798      6.721
REMARK  Name = 
REMARK  6 active torsions:
REMARK  status: ('A' for Active; 'I' for Inactive)
REMARK    1  A    between atoms: C_2  and  C_3
REMARK    2  A    between atoms: C_2  and  O_17
REMARK    3  A    between atoms: C_3  and  S_4
REMARK    4  A    between atoms: S_4  and  C_5
REMARK    5  A    between atoms: C_8  and  C_9
REMARK    6  A    between atoms: O_17  and  C_18
REMARK                            x       y       z     vdW  Elec       q    Type
REMARK                         _______ _______ _______ _____ _____    ______ ____
ROOT
ATOM      1  S   UNL     1       3.220   1.708  19.001  0.00  0.00    +0.000 S 
ENDROOT
BRANCH   1   2
ATOM      2  C   UNL     1       4.177   2.775  18.026  0.00  0.00    +0.000 A 
ATOM      3  N   UNL     1       4.283   2.727  16.716  0.00  0.00    +0.000 NA
ATOM      4  N   UNL     1       5.137   3.752  16.351  0.00  0.00    +0.000 NA
ATOM      5  C   UNL     1       5.500   4.361  17.463  0.00  0.00    +0.000 A 
ATOM      6  O   UNL     1       4.921   3.791  18.569  0.00  0.00    +0.000 OA
BRANCH   5   7
ATOM      7  C   UNL     1       6.368   5.517  17.696  0.00  0.00    +0.000 A 
ATOM      8  C   UNL     1       7.424   5.415  18.625  0.00  0.00    +0.000 A 
ATOM      9  C   UNL     1       8.266   6.499  18.900  0.00  0.00    +0.000 A 
ATOM     10  C   UNL     1       8.073   7.712  18.247  0.00  0.00    +0.000 A 
ATOM     11  C   UNL     1       7.041   7.836  17.319  0.00  0.00    +0.000 A 
ATOM     12  C   UNL     1       6.193   6.750  17.043  0.00  0.00    +0.000 A 
ATOM     13 CL   UNL     1       4.973   7.022  15.847  0.00  0.00    +0.000 Cl
ENDBRANCH   5   7
ENDBRANCH   1   2
BRANCH   1  14
ATOM     14  C   UNL     1       3.374   2.464  20.652  0.00  0.00    +0.000 C 
BRANCH  14  16
ATOM     15  O   UNL     1       1.637   2.527  22.374  0.00  0.00    +0.000 OA
ATOM     16  C   UNL     1       1.994   2.751  21.225  0.00  0.00    +0.000 C 
BRANCH  16  17
ATOM     17  O   UNL     1       1.204   3.353  20.230  0.00  0.00    +0.000 OA
BRANCH  17  18
ATOM     18  C   UNL     1       1.538   4.602  19.650  0.00  0.00    +0.000 A 
ATOM     19  C   UNL     1       1.665   4.807  18.276  0.00  0.00    +0.000 A 
ATOM     20  C   UNL     1       1.992   6.079  17.793  0.00  0.00    +0.000 A 
ATOM     21  C   UNL     1       2.165   7.137  18.682  0.00  0.00    +0.000 A 
ATOM     22 BR   UNL     1       2.617   8.851  18.024  0.00  0.00    +0.000 Br
ATOM     23  C   UNL     1       2.005   6.942  20.054  0.00  0.00    +0.000 A 
ATOM     24  C   UNL     1       1.687   5.670  20.540  0.00  0.00    +0.000 A 
ENDBRANCH  17  18
ENDBRANCH  16  17
ENDBRANCH  14  16
ENDBRANCH   1  14
TORSDOF 6
ENDMDL
MODEL 8
REMARK VINA RESULT:      -6.7      3.740      7.351
REMARK  Name = 
REMARK  6 active torsions:
REMARK  status: ('A' for Active; 'I' for Inactive)
REMARK    1  A    between atoms: C_2  and  C_3
REMARK    2  A    between atoms: C_2  and  O_17
REMARK    3  A    between atoms: C_3  and  S_4
REMARK    4  A    between atoms: S_4  and  C_5
REMARK    5  A    between atoms: C_8  and  C_9
REMARK    6  A    between atoms: O_17  and  C_18
REMARK                            x       y       z     vdW  Elec       q    Type
REMARK                         _______ _______ _______ _____ _____    ______ ____
ROOT
ATOM      1  S   UNL     1       5.656   5.071  19.121  0.00  0.00    +0.000 S 
ENDROOT
BRANCH   1   2
ATOM      2  C   UNL     1       6.367   5.358  17.566  0.00  0.00    +0.000 A 
ATOM      3  N   UNL     1       7.301   6.246  17.302  0.00  0.00    +0.000 NA
ATOM      4  N   UNL     1       7.576   6.140  15.951  0.00  0.00    +0.000 NA
ATOM      5  C   UNL     1       6.793   5.193  15.474  0.00  0.00    +0.000 A 
ATOM      6  O   UNL     1       5.997   4.649  16.452  0.00  0.00    +0.000 OA
BRANCH   5   7
ATOM      7  C   UNL     1       6.657   4.634  14.128  0.00  0.00    +0.000 A 
ATOM      8  C   UNL     1       5.575   3.775  13.839  0.00  0.00    +0.000 A 
ATOM      9  C   UNL     1       5.415   3.197  12.575  0.00  0.00    +0.000 A 
ATOM     10  C   UNL     1       6.334   3.468  11.566  0.00  0.00    +0.000 A 
ATOM     11  C   UNL     1       7.407   4.318  11.824  0.00  0.00    +0.000 A 
ATOM     12  C   UNL     1       7.572   4.897  13.093  0.00  0.00    +0.000 A 
ATOM     13 CL   UNL     1       8.924   5.961  13.274  0.00  0.00    +0.000 Cl
ENDBRANCH   5   7
ENDBRANCH   1   2
BRANCH   1  14
ATOM     14  C   UNL     1       4.408   3.800  18.737  0.00  0.00    +0.000 C 
BRANCH  14  16
ATOM     15  O   UNL     1       2.159   4.180  17.854  0.00  0.00    +0.000 OA
ATOM     16  C   UNL     1       3.024   4.427  18.684  0.00  0.00    +0.000 C 
BRANCH  16  17
ATOM     17  O   UNL     1       2.882   5.310  19.769  0.00  0.00    +0.000 OA
BRANCH  17  18
ATOM     18  C   UNL     1       2.361   6.618  19.617  0.00  0.00    +0.000 A 
ATOM     19  C   UNL     1       1.776   7.343  20.656  0.00  0.00    +0.000 A 
ATOM     20  C   UNL     1       1.294   8.634  20.415  0.00  0.00    +0.000 A 
ATOM     21  C   UNL     1       1.420   9.198  19.147  0.00  0.00    +0.000 A 
ATOM     22 BR   UNL     1       0.757  10.939  18.824  0.00  0.00    +0.000 Br
ATOM     23  C   UNL     1       2.035   8.488  18.116  0.00  0.00    +0.000 A 
ATOM     24  C   UNL     1       2.510   7.195  18.352  0.00  0.00    +0.000 A 
ENDBRANCH  17  18
ENDBRANCH  16  17
ENDBRANCH  14  16
ENDBRANCH   1  14
TORSDOF 6
ENDMDL
MODEL 9
REMARK VINA RESULT:      -6.7      6.513      9.167
REMARK  Name = 
REMARK  6 active torsions:
REMARK  status: ('A' for Active; 'I' for Inactive)
REMARK    1  A    between atoms: C_2  and  C_3
REMARK    2  A    between atoms: C_2  and  O_17
REMARK    3  A    between atoms: C_3  and  S_4
REMARK    4  A    between atoms: S_4  and  C_5
REMARK    5  A    between atoms: C_8  and  C_9
REMARK    6  A    between atoms: O_17  and  C_18
REMARK                            x       y       z     vdW  Elec       q    Type
REMARK                         _______ _______ _______ _____ _____    ______ ____
ROOT
ATOM      1  S   UNL     1       1.954   9.742  18.105  0.00  0.00    +0.000 S 
ENDROOT
BRANCH   1   2
ATOM      2  C   UNL     1       2.541   8.112  18.165  0.00  0.00    +0.000 A 
ATOM      3  N   UNL     1       3.554   7.637  17.475  0.00  0.00    +0.000 NA
ATOM      4  N   UNL     1       3.679   6.304  17.823  0.00  0.00    +0.000 NA
ATOM      5  C   UNL     1       2.733   6.049  18.705  0.00  0.00    +0.000 A 
ATOM      6  O   UNL     1       1.972   7.160  18.972  0.00  0.00    +0.000 OA
BRANCH   5   7
ATOM      7  C   UNL     1       2.393   4.826  19.435  0.00  0.00    +0.000 A 
ATOM      8  C   UNL     1       2.231   4.878  20.836  0.00  0.00    +0.000 A 
ATOM      9  C   UNL     1       1.930   3.732  21.581  0.00  0.00    +0.000 A 
ATOM     10  C   UNL     1       1.777   2.507  20.941  0.00  0.00    +0.000 A 
ATOM     11  C   UNL     1       1.925   2.431  19.558  0.00  0.00    +0.000 A 
ATOM     12  C   UNL     1       2.230   3.579  18.807  0.00  0.00    +0.000 A 
ATOM     13 CL   UNL     1       2.353   3.360  17.095  0.00  0.00    +0.000 Cl
ENDBRANCH   5   7
ENDBRANCH   1   2
BRANCH   1  14
ATOM     14  C   UNL     1       0.753   9.762  19.476  0.00  0.00    +0.000 C 
BRANCH  14  16
ATOM     15  O   UNL     1      -1.353  10.100  18.278  0.00  0.00    +0.000 OA
ATOM     16  C   UNL     1      -0.504  10.511  19.058  0.00  0.00    +0.000 C 
BRANCH  16  17
ATOM     17  O   UNL     1      -0.553  11.737  19.742  0.00  0.00    +0.000 OA
BRANCH  17  18
ATOM     18  C   UNL     1      -1.461  11.976  20.803  0.00  0.00    +0.000 A 
ATOM     19  C   UNL     1      -2.706  12.583  20.633  0.00  0.00    +0.000 A 
ATOM     20  C   UNL     1      -3.541  12.773  21.740  0.00  0.00    +0.000 A 
ATOM     21  C   UNL     1      -3.135  12.337  23.000  0.00  0.00    +0.000 A 
ATOM     22 BR   UNL     1      -4.263  12.607  24.494  0.00  0.00    +0.000 Br
ATOM     23  C   UNL     1      -1.906  11.700  23.166  0.00  0.00    +0.000 A 
ATOM     24  C   UNL     1      -1.066  11.516  22.063  0.00  0.00    +0.000 A 
ENDBRANCH  17  18
ENDBRANCH  16  17
ENDBRANCH  14  16
ENDBRANCH   1  14
TORSDOF 6
ENDMDL
