MODEL 1
REMARK VINA RESULT:      -6.7      0.000      0.000
REMARK  Name = 
REMARK  3 active torsions:
REMARK  status: ('A' for Active; 'I' for Inactive)
REMARK    1  A    between atoms: C_1  and  C_2
REMARK    2  A    between atoms: C_6  and  C_7
REMARK    3  A    between atoms: C_9  and  N_10
REMARK                            x       y       z     vdW  Elec       q    Type
REMARK                         _______ _______ _______ _____ _____    ______ ____
ROOT
ATOM      1  C   UNL     1       2.828   7.324  18.083  0.00  0.00    +0.000 A 
ATOM      2  C   UNL     1       4.032   7.567  17.473  0.00  0.00    +0.000 A 
ATOM      3  C   UNL     1       4.664   6.490  16.938  0.00  0.00    +0.000 A 
ATOM      4  N   UNL     1       4.183   5.255  17.052  0.00  0.00    +0.000 NA
ATOM      5  C   UNL     1       3.008   5.076  17.681  0.00  0.00    +0.000 A 
ATOM      6  N   UNL     1       2.544   3.786  17.783  0.00  0.00    +0.000 N 
ATOM      7  C   UNL     1       1.265   3.456  18.400  0.00  0.00    +0.000 C 
ATOM      8  C   UNL     1       1.466   2.567  19.639  0.00  0.00    +0.000 C 
ATOM      9  O   UNL     1       2.310   1.437  19.359  0.00  0.00    +0.000 OA
ATOM     10  C   UNL     1       3.601   1.884  18.920  0.00  0.00    +0.000 C 
ATOM     11  C   UNL     1       3.498   2.690  17.620  0.00  0.00    +0.000 C 
ATOM     12  N   UNL     1       2.290   6.090  18.178  0.00  0.00    +0.000 NA
ENDROOT
BRANCH   1  18
ATOM     13  C   UNL     1       1.520   7.525  21.006  0.00  0.00    +0.000 C 
ATOM     14  C   UNL     1       1.431   8.551  19.925  0.00  0.00    +0.000 A 
ATOM     15  C   UNL     1       0.715   9.730  20.035  0.00  0.00    +0.000 A 
ATOM     16  S   UNL     1       0.793  10.696  18.631  0.00  0.00    +0.000 S 
ATOM     17  C   UNL     1       1.783   9.557  17.847  0.00  0.00    +0.000 A 
ATOM     18  C   UNL     1       2.047   8.441  18.623  0.00  0.00    +0.000 A 
ENDBRANCH   1  18
BRANCH   3  19
ATOM     19  N   UNL     1       5.880   6.633  16.276  0.00  0.00    +0.000 N 
ATOM     20  H   UNL     1       6.116   5.803  15.739  0.00  0.00    +0.000 HD
ATOM     21  H   UNL     1       6.583   6.837  16.986  0.00  0.00    +0.000 HD
ENDBRANCH   3  19
TORSDOF 2
ENDMDL
MODEL 2
REMARK VINA RESULT:      -6.6      2.339      3.877
REMARK  Name = 
REMARK  3 active torsions:
REMARK  status: ('A' for Active; 'I' for Inactive)
REMARK    1  A    between atoms: C_1  and  C_2
REMARK    2  A    between atoms: C_6  and  C_7
REMARK    3  A    between atoms: C_9  and  N_10
REMARK                            x       y       z     vdW  Elec       q    Type
REMARK                         _______ _______ _______ _____ _____    ______ ____
ROOT
ATOM      1  C   UNL     1       2.125   6.885  20.085  0.00  0.00    +0.000 A 
ATOM      2  C   UNL     1       1.657   5.805  20.789  0.00  0.00    +0.000 A 
ATOM      3  C   UNL     1       2.331   4.637  20.617  0.00  0.00    +0.000 A 
ATOM      4  N   UNL     1       3.347   4.521  19.766  0.00  0.00    +0.000 NA
ATOM      5  C   UNL     1       3.746   5.611  19.088  0.00  0.00    +0.000 A 
ATOM      6  N   UNL     1       4.797   5.454  18.215  0.00  0.00    +0.000 N 
ATOM      7  C   UNL     1       5.359   6.561  17.450  0.00  0.00    +0.000 C 
ATOM      8  C   UNL     1       5.192   6.324  15.939  0.00  0.00    +0.000 C 
ATOM      9  O   UNL     1       5.654   5.022  15.544  0.00  0.00    +0.000 OA
ATOM     10  C   UNL     1       4.915   4.006  16.236  0.00  0.00    +0.000 C 
ATOM     11  C   UNL     1       5.118   4.104  17.753  0.00  0.00    +0.000 C 
ATOM     12  N   UNL     1       3.180   6.813  19.247  0.00  0.00    +0.000 NA
ENDROOT
BRANCH   1  18
ATOM     13  C   UNL     1       1.554   9.079  17.814  0.00  0.00    +0.000 C 
ATOM     14  C   UNL     1       1.248   9.212  19.270  0.00  0.00    +0.000 A 
ATOM     15  C   UNL     1       0.706  10.348  19.846  0.00  0.00    +0.000 A 
ATOM     16  S   UNL     1       0.480  10.204  21.531  0.00  0.00    +0.000 S 
ATOM     17  C   UNL     1       1.104   8.622  21.525  0.00  0.00    +0.000 A 
ATOM     18  C   UNL     1       1.499   8.198  20.268  0.00  0.00    +0.000 A 
ENDBRANCH   1  18
BRANCH   3  19
ATOM     19  N   UNL     1       1.951   3.488  21.303  0.00  0.00    +0.000 N 
ATOM     20  H   UNL     1       2.717   3.106  21.851  0.00  0.00    +0.000 HD
ATOM     21  H   UNL     1       1.615   2.823  20.608  0.00  0.00    +0.000 HD
ENDBRANCH   3  19
TORSDOF 2
ENDMDL
MODEL 3
REMARK VINA RESULT:      -6.6      2.557      4.149
REMARK  Name = 
REMARK  3 active torsions:
REMARK  status: ('A' for Active; 'I' for Inactive)
REMARK    1  A    between atoms: C_1  and  C_2
REMARK    2  A    between atoms: C_6  and  C_7
REMARK    3  A    between atoms: C_9  and  N_10
REMARK                            x       y       z     vdW  Elec       q    Type
REMARK                         _______ _______ _______ _____ _____    ______ ____
ROOT
ATOM      1  C   UNL     1       2.588   6.026  19.039  0.00  0.00    +0.000 A 
ATOM      2  C   UNL     1       1.843   4.895  18.825  0.00  0.00    +0.000 A 
ATOM      3  C   UNL     1       2.504   3.832  18.295  0.00  0.00    +0.000 A 
ATOM      4  N   UNL     1       3.784   3.896  17.938  0.00  0.00    +0.000 NA
ATOM      5  C   UNL     1       4.456   5.041  18.153  0.00  0.00    +0.000 A 
ATOM      6  N   UNL     1       5.775   5.072  17.769  0.00  0.00    +0.000 N 
ATOM      7  C   UNL     1       6.631   6.233  17.983  0.00  0.00    +0.000 C 
ATOM      8  C   UNL     1       7.122   6.808  16.643  0.00  0.00    +0.000 C 
ATOM      9  O   UNL     1       7.684   5.793  15.796  0.00  0.00    +0.000 OA
ATOM     10  C   UNL     1       6.701   4.787  15.512  0.00  0.00    +0.000 C 
ATOM     11  C   UNL     1       6.238   4.084  16.794  0.00  0.00    +0.000 C 
ATOM     12  N   UNL     1       3.899   6.112  18.730  0.00  0.00    +0.000 NA
ENDROOT
BRANCH   1  18
ATOM     13  C   UNL     1       2.018   8.879  17.684  0.00  0.00    +0.000 C 
ATOM     14  C   UNL     1       1.719   8.495  19.096  0.00  0.00    +0.000 A 
ATOM     15  C   UNL     1       1.185   9.359  20.036  0.00  0.00    +0.000 A 
ATOM     16  S   UNL     1       0.966   8.634  21.565  0.00  0.00    +0.000 S 
ATOM     17  C   UNL     1       1.581   7.153  21.002  0.00  0.00    +0.000 A 
ATOM     18  C   UNL     1       1.969   7.195  19.674  0.00  0.00    +0.000 A 
ENDBRANCH   1  18
BRANCH   3  19
ATOM     19  N   UNL     1       1.845   2.628  18.061  0.00  0.00    +0.000 N 
ATOM     20  H   UNL     1       2.220   1.878  18.634  0.00  0.00    +0.000 HD
ATOM     21  H   UNL     1       1.937   2.427  17.066  0.00  0.00    +0.000 HD
ENDBRANCH   3  19
TORSDOF 2
ENDMDL
MODEL 4
REMARK VINA RESULT:      -6.5      3.017      4.923
REMARK  Name = 
REMARK  3 active torsions:
REMARK  status: ('A' for Active; 'I' for Inactive)
REMARK    1  A    between atoms: C_1  and  C_2
REMARK    2  A    between atoms: C_6  and  C_7
REMARK    3  A    between atoms: C_9  and  N_10
REMARK                            x       y       z     vdW  Elec       q    Type
REMARK                         _______ _______ _______ _____ _____    ______ ____
ROOT
ATOM      1  C   UNL     1       4.471   5.829  17.135  0.00  0.00    +0.000 A 
ATOM      2  C   UNL     1       3.917   7.075  16.996  0.00  0.00    +0.000 A 
ATOM      3  C   UNL     1       3.036   7.452  17.960  0.00  0.00    +0.000 A 
ATOM      4  N   UNL     1       2.674   6.640  18.950  0.00  0.00    +0.000 NA
ATOM      5  C   UNL     1       3.237   5.420  19.020  0.00  0.00    +0.000 A 
ATOM      6  N   UNL     1       2.837   4.607  20.054  0.00  0.00    +0.000 N 
ATOM      7  C   UNL     1       3.398   3.279  20.274  0.00  0.00    +0.000 C 
ATOM      8  C   UNL     1       2.312   2.197  20.144  0.00  0.00    +0.000 C 
ATOM      9  O   UNL     1       1.152   2.500  20.937  0.00  0.00    +0.000 OA
ATOM     10  C   UNL     1       0.584   3.750  20.519  0.00  0.00    +0.000 C 
ATOM     11  C   UNL     1       1.570   4.906  20.722  0.00  0.00    +0.000 C 
ATOM     12  N   UNL     1       4.160   4.995  18.151  0.00  0.00    +0.000 NA
ENDROOT
BRANCH   1  18
ATOM     13  C   UNL     1       7.599   6.549  17.148  0.00  0.00    +0.000 C 
ATOM     14  C   UNL     1       6.892   5.696  16.147  0.00  0.00    +0.000 A 
ATOM     15  C   UNL     1       7.505   5.129  15.044  0.00  0.00    +0.000 A 
ATOM     16  S   UNL     1       6.437   4.215  14.078  0.00  0.00    +0.000 S 
ATOM     17  C   UNL     1       5.133   4.559  15.114  0.00  0.00    +0.000 A 
ATOM     18  C   UNL     1       5.484   5.372  16.178  0.00  0.00    +0.000 A 
ENDBRANCH   1  18
BRANCH   3  19
ATOM     19  N   UNL     1       2.435   8.707  17.924  0.00  0.00    +0.000 N 
ATOM     20  H   UNL     1       3.114   9.443  17.756  0.00  0.00    +0.000 HD
ATOM     21  H   UNL     1       1.954   8.832  18.814  0.00  0.00    +0.000 HD
ENDBRANCH   3  19
TORSDOF 2
ENDMDL
MODEL 5
REMARK VINA RESULT:      -6.3      0.993      1.029
REMARK  Name = 
REMARK  3 active torsions:
REMARK  status: ('A' for Active; 'I' for Inactive)
REMARK    1  A    between atoms: C_1  and  C_2
REMARK    2  A    between atoms: C_6  and  C_7
REMARK    3  A    between atoms: C_9  and  N_10
REMARK                            x       y       z     vdW  Elec       q    Type
REMARK                         _______ _______ _______ _____ _____    ______ ____
ROOT
ATOM      1  C   UNL     1       2.609   7.554  18.375  0.00  0.00    +0.000 A 
ATOM      2  C   UNL     1       3.618   7.737  17.464  0.00  0.00    +0.000 A 
ATOM      3  C   UNL     1       4.273   6.617  17.060  0.00  0.00    +0.000 A 
ATOM      4  N   UNL     1       4.003   5.415  17.563  0.00  0.00    +0.000 NA
ATOM      5  C   UNL     1       3.017   5.302  18.470  0.00  0.00    +0.000 A 
ATOM      6  N   UNL     1       2.768   4.046  18.969  0.00  0.00    +0.000 N 
ATOM      7  C   UNL     1       1.700   3.775  19.924  0.00  0.00    +0.000 C 
ATOM      8  C   UNL     1       2.271   3.252  21.254  0.00  0.00    +0.000 C 
ATOM      9  O   UNL     1       3.190   2.165  21.053  0.00  0.00    +0.000 OA
ATOM     10  C   UNL     1       4.290   2.595  20.237  0.00  0.00    +0.000 C 
ATOM     11  C   UNL     1       3.814   3.031  18.846  0.00  0.00    +0.000 C 
ATOM     12  N   UNL     1       2.279   6.343  18.873  0.00  0.00    +0.000 NA
ENDROOT
BRANCH   1  18
ATOM     13  C   UNL     1       1.280   7.992  21.263  0.00  0.00    +0.000 C 
ATOM     14  C   UNL     1       1.179   8.915  20.094  0.00  0.00    +0.000 A 
ATOM     15  C   UNL     1       0.442  10.087  20.094  0.00  0.00    +0.000 A 
ATOM     16  S   UNL     1       0.511  10.924  18.610  0.00  0.00    +0.000 S 
ATOM     17  C   UNL     1       1.525   9.737  17.936  0.00  0.00    +0.000 A 
ATOM     18  C   UNL     1       1.805   8.701  18.810  0.00  0.00    +0.000 A 
ENDBRANCH   1  18
BRANCH   3  19
ATOM     19  N   UNL     1       5.297   6.691  16.121  0.00  0.00    +0.000 N 
ATOM     20  H   UNL     1       6.209   6.754  16.564  0.00  0.00    +0.000 HD
ATOM     21  H   UNL     1       5.104   7.501  15.533  0.00  0.00    +0.000 HD
ENDBRANCH   3  19
TORSDOF 2
ENDMDL
MODEL 6
REMARK VINA RESULT:      -6.3      3.232      4.408
REMARK  Name = 
REMARK  3 active torsions:
REMARK  status: ('A' for Active; 'I' for Inactive)
REMARK    1  A    between atoms: C_1  and  C_2
REMARK    2  A    between atoms: C_6  and  C_7
REMARK    3  A    between atoms: C_9  and  N_10
REMARK                            x       y       z     vdW  Elec       q    Type
REMARK                         _______ _______ _______ _____ _____    ______ ____
ROOT
ATOM      1  C   UNL     1       6.350   5.702  17.028  0.00  0.00    +0.000 A 
ATOM      2  C   UNL     1       6.753   5.059  15.886  0.00  0.00    +0.000 A 
ATOM      3  C   UNL     1       5.891   4.139  15.379  0.00  0.00    +0.000 A 
ATOM      4  N   UNL     1       4.749   3.825  15.984  0.00  0.00    +0.000 NA
ATOM      5  C   UNL     1       4.419   4.474  17.114  0.00  0.00    +0.000 A 
ATOM      6  N   UNL     1       3.234   4.121  17.715  0.00  0.00    +0.000 N 
ATOM      7  C   UNL     1       2.734   4.775  18.919  0.00  0.00    +0.000 C 
ATOM      8  C   UNL     1       2.627   3.774  20.082  0.00  0.00    +0.000 C 
ATOM      9  O   UNL     1       1.916   2.584  19.704  0.00  0.00    +0.000 OA
ATOM     10  C   UNL     1       2.591   1.931  18.619  0.00  0.00    +0.000 C 
ATOM     11  C   UNL     1       2.644   2.826  17.376  0.00  0.00    +0.000 C 
ATOM     12  N   UNL     1       5.179   5.439  17.646  0.00  0.00    +0.000 NA
ENDROOT
BRANCH   1  18
ATOM     13  C   UNL     1       8.234   5.477  19.617  0.00  0.00    +0.000 C 
ATOM     14  C   UNL     1       8.030   6.693  18.775  0.00  0.00    +0.000 A 
ATOM     15  C   UNL     1       8.608   7.923  19.038  0.00  0.00    +0.000 A 
ATOM     16  S   UNL     1       8.179   9.123  17.904  0.00  0.00    +0.000 S 
ATOM     17  C   UNL     1       7.211   8.025  17.040  0.00  0.00    +0.000 A 
ATOM     18  C   UNL     1       7.189   6.760  17.602  0.00  0.00    +0.000 A 
ENDBRANCH   1  18
BRANCH   3  19
ATOM     19  N   UNL     1       6.194   3.448  14.209  0.00  0.00    +0.000 N 
ATOM     20  H   UNL     1       6.799   2.652  14.389  0.00  0.00    +0.000 HD
ATOM     21  H   UNL     1       6.627   4.117  13.573  0.00  0.00    +0.000 HD
ENDBRANCH   3  19
TORSDOF 2
ENDMDL
MODEL 7
REMARK VINA RESULT:      -6.1      2.287      3.601
REMARK  Name = 
REMARK  3 active torsions:
REMARK  status: ('A' for Active; 'I' for Inactive)
REMARK    1  A    between atoms: C_1  and  C_2
REMARK    2  A    between atoms: C_6  and  C_7
REMARK    3  A    between atoms: C_9  and  N_10
REMARK                            x       y       z     vdW  Elec       q    Type
REMARK                         _______ _______ _______ _____ _____    ______ ____
ROOT
ATOM      1  C   UNL     1       2.155   7.230  19.703  0.00  0.00    +0.000 A 
ATOM      2  C   UNL     1       1.695   6.251  20.547  0.00  0.00    +0.000 A 
ATOM      3  C   UNL     1       2.394   5.086  20.554  0.00  0.00    +0.000 A 
ATOM      4  N   UNL     1       3.427   4.872  19.745  0.00  0.00    +0.000 NA
ATOM      5  C   UNL     1       3.819   5.862  18.924  0.00  0.00    +0.000 A 
ATOM      6  N   UNL     1       4.888   5.604  18.100  0.00  0.00    +0.000 N 
ATOM      7  C   UNL     1       5.443   6.603  17.193  0.00  0.00    +0.000 C 
ATOM      8  C   UNL     1       5.308   6.150  15.729  0.00  0.00    +0.000 C 
ATOM      9  O   UNL     1       5.803   4.815  15.531  0.00  0.00    +0.000 OA
ATOM     10  C   UNL     1       5.071   3.892  16.350  0.00  0.00    +0.000 C 
ATOM     11  C   UNL     1       5.243   4.210  17.840  0.00  0.00    +0.000 C 
ATOM     12  N   UNL     1       3.227   7.062  18.900  0.00  0.00    +0.000 NA
ENDROOT
BRANCH   1  18
ATOM     13  C   UNL     1       1.164   8.923  22.243  0.00  0.00    +0.000 C 
ATOM     14  C   UNL     1       1.027   9.317  20.809  0.00  0.00    +0.000 A 
ATOM     15  C   UNL     1       0.398  10.473  20.381  0.00  0.00    +0.000 A 
ATOM     16  S   UNL     1       0.391  10.644  18.684  0.00  0.00    +0.000 S 
ATOM     17  C   UNL     1       1.226   9.177  18.487  0.00  0.00    +0.000 A 
ATOM     18  C   UNL     1       1.501   8.542  19.686  0.00  0.00    +0.000 A 
ENDBRANCH   1  18
BRANCH   3  19
ATOM     19  N   UNL     1       2.023   4.038  21.392  0.00  0.00    +0.000 N 
ATOM     20  H   UNL     1       1.209   4.275  21.952  0.00  0.00    +0.000 HD
ATOM     21  H   UNL     1       2.832   3.821  21.972  0.00  0.00    +0.000 HD
ENDBRANCH   3  19
TORSDOF 2
ENDMDL
MODEL 8
REMARK VINA RESULT:      -5.9      0.936      1.542
REMARK  Name = 
REMARK  3 active torsions:
REMARK  status: ('A' for Active; 'I' for Inactive)
REMARK    1  A    between atoms: C_1  and  C_2
REMARK    2  A    between atoms: C_6  and  C_7
REMARK    3  A    between atoms: C_9  and  N_10
REMARK                            x       y       z     vdW  Elec       q    Type
REMARK                         _______ _______ _______ _____ _____    ______ ____
ROOT
ATOM      1  C   UNL     1       2.619   7.139  18.698  0.00  0.00    +0.000 A 
ATOM      2  C   UNL     1       3.730   7.552  18.007  0.00  0.00    +0.000 A 
ATOM      3  C   UNL     1       4.335   6.618  17.227  0.00  0.00    +0.000 A 
ATOM      4  N   UNL     1       3.921   5.355  17.180  0.00  0.00    +0.000 NA
ATOM      5  C   UNL     1       2.839   5.004  17.897  0.00  0.00    +0.000 A 
ATOM      6  N   UNL     1       2.442   3.690  17.827  0.00  0.00    +0.000 N 
ATOM      7  C   UNL     1       1.261   3.185  18.518  0.00  0.00    +0.000 C 
ATOM      8  C   UNL     1       1.647   2.116  19.555  0.00  0.00    +0.000 C 
ATOM      9  O   UNL     1       2.495   1.102  18.991  0.00  0.00    +0.000 OA
ATOM     10  C   UNL     1       3.704   1.692  18.493  0.00  0.00    +0.000 C 
ATOM     11  C   UNL     1       3.413   2.696  17.371  0.00  0.00    +0.000 C 
ATOM     12  N   UNL     1       2.146   5.876  18.640  0.00  0.00    +0.000 NA
ENDROOT
BRANCH   1  18
ATOM     13  C   UNL     1       1.454   9.970  17.737  0.00  0.00    +0.000 C 
ATOM     14  C   UNL     1       1.348   9.390  19.109  0.00  0.00    +0.000 A 
ATOM     15  C   UNL     1       0.756  10.037  20.179  0.00  0.00    +0.000 A 
ATOM     16  S   UNL     1       0.796   9.126  21.620  0.00  0.00    +0.000 S 
ATOM     17  C   UNL     1       1.606   7.849  20.844  0.00  0.00    +0.000 A 
ATOM     18  C   UNL     1       1.866   8.102  19.508  0.00  0.00    +0.000 A 
ENDBRANCH   1  18
BRANCH   3  19
ATOM     19  N   UNL     1       5.455   6.942  16.467  0.00  0.00    +0.000 N 
ATOM     20  H   UNL     1       5.362   7.855  16.032  0.00  0.00    +0.000 HD
ATOM     21  H   UNL     1       5.569   6.203  15.775  0.00  0.00    +0.000 HD
ENDBRANCH   3  19
TORSDOF 2
ENDMDL
MODEL 9
REMARK VINA RESULT:      -5.8      2.345      3.748
REMARK  Name = 
REMARK  3 active torsions:
REMARK  status: ('A' for Active; 'I' for Inactive)
REMARK    1  A    between atoms: C_1  and  C_2
REMARK    2  A    between atoms: C_6  and  C_7
REMARK    3  A    between atoms: C_9  and  N_10
REMARK                            x       y       z     vdW  Elec       q    Type
REMARK                         _______ _______ _______ _____ _____    ______ ____
ROOT
ATOM      1  C   UNL     1       2.575   6.449  18.273  0.00  0.00    +0.000 A 
ATOM      2  C   UNL     1       1.697   5.396  18.321  0.00  0.00    +0.000 A 
ATOM      3  C   UNL     1       2.213   4.170  18.043  0.00  0.00    +0.000 A 
ATOM      4  N   UNL     1       3.481   3.998  17.680  0.00  0.00    +0.000 NA
ATOM      5  C   UNL     1       4.289   5.072  17.630  0.00  0.00    +0.000 A 
ATOM      6  N   UNL     1       5.592   4.857  17.248  0.00  0.00    +0.000 N 
ATOM      7  C   UNL     1       6.583   5.924  17.194  0.00  0.00    +0.000 C 
ATOM      8  C   UNL     1       7.100   6.122  15.758  0.00  0.00    +0.000 C 
ATOM      9  O   UNL     1       7.515   4.882  15.161  0.00  0.00    +0.000 OA
ATOM     10  C   UNL     1       6.413   3.965  15.112  0.00  0.00    +0.000 C 
ATOM     11  C   UNL     1       5.907   3.628  16.520  0.00  0.00    +0.000 C 
ATOM     12  N   UNL     1       3.878   6.304  17.951  0.00  0.00    +0.000 NA
ENDROOT
BRANCH   1  18
ATOM     13  C   UNL     1       1.423   7.406  21.112  0.00  0.00    +0.000 C 
ATOM     14  C   UNL     1       1.575   8.250  19.889  0.00  0.00    +0.000 A 
ATOM     15  C   UNL     1       1.186   9.575  19.810  0.00  0.00    +0.000 A 
ATOM     16  S   UNL     1       1.478  10.271  18.280  0.00  0.00    +0.000 S 
ATOM     17  C   UNL     1       2.128   8.814  17.691  0.00  0.00    +0.000 A 
ATOM     18  C   UNL     1       2.116   7.795  18.629  0.00  0.00    +0.000 A 
ENDBRANCH   1  18
BRANCH   3  19
ATOM     19  N   UNL     1       1.412   3.033  18.087  0.00  0.00    +0.000 N 
ATOM     20  H   UNL     1       0.527   3.178  17.609  0.00  0.00    +0.000 HD
ATOM     21  H   UNL     1       1.277   2.802  19.071  0.00  0.00    +0.000 HD
ENDBRANCH   3  19
TORSDOF 2
ENDMDL
