MODEL 1
REMARK VINA RESULT:      -8.4      0.000      0.000
REMARK  Name = 
REMARK  6 active torsions:
REMARK  status: ('A' for Active; 'I' for Inactive)
REMARK    1  A    between atoms: C_1  and  C_2
REMARK    2  A    between atoms: C_5  and  C_6
REMARK    3  A    between atoms: C_6  and  C_7
REMARK    4  A    between atoms: C_11  and  C_13
REMARK    5  A    between atoms: C_13  and  N_14
REMARK    6  A    between atoms: C_19  and  C_20
REMARK                            x       y       z     vdW  Elec       q    Type
REMARK                         _______ _______ _______ _____ _____    ______ ____
ROOT
ATOM      1  C   UNL     1      -0.216  10.197  20.634  0.00  0.00    +0.000 C 
ATOM      2  C   UNL     1      -0.025   8.921  21.474  0.00  0.00    +0.000 C 
ATOM      3  C   UNL     1       1.358   8.302  21.318  0.00  0.00    +0.000 C 
ATOM      4  N   UNL     1       1.674   8.063  19.914  0.00  0.00    +0.000 N 
ATOM      5  C   UNL     1       2.288   6.856  19.588  0.00  0.00    +0.000 C 
ATOM      6  O   UNL     1       2.379   5.929  20.403  0.00  0.00    +0.000 OA
ATOM      7  C   UNL     1       1.595   9.232  19.049  0.00  0.00    +0.000 C 
ATOM      8  C   UNL     1       0.247   9.950  19.184  0.00  0.00    +0.000 C 
ENDROOT
BRANCH   1   9
ATOM      9  C   UNL     1       0.445  11.443  21.256  0.00  0.00    +0.000 C 
BRANCH   9  14
ATOM     10  C   UNL     1      -3.314  13.195  23.970  0.00  0.00    +0.000 C 
ATOM     11  C   UNL     1      -2.017  13.044  23.283  0.00  0.00    +0.000 A 
ATOM     12  N   UNL     1      -1.049  13.969  23.363  0.00  0.00    +0.000 NA
ATOM     13  O   UNL     1      -0.023  13.426  22.591  0.00  0.00    +0.000 OA
ATOM     14  C   UNL     1      -0.487  12.231  22.115  0.00  0.00    +0.000 A 
ATOM     15  N   UNL     1      -1.706  11.950  22.513  0.00  0.00    +0.000 NA
ENDBRANCH   9  14
ENDBRANCH   1   9
BRANCH   5  16
ATOM     16  C   UNL     1       2.801   6.622  18.158  0.00  0.00    +0.000 C 
BRANCH  16  17
ATOM     17  N   UNL     1       3.329   5.296  17.857  0.00  0.00    +0.000 N 
ATOM     18  C   UNL     1       2.479   4.260  17.496  0.00  0.00    +0.000 C 
ATOM     19  O   UNL     1       1.284   4.179  17.719  0.00  0.00    +0.000 OA
ATOM     20  O   UNL     1       3.175   3.281  16.832  0.00  0.00    +0.000 OA
ATOM     21  C   UNL     1       4.553   3.668  16.808  0.00  0.00    +0.000 C 
ATOM     22  C   UNL     1       4.501   5.165  17.029  0.00  0.00    +0.000 C 
BRANCH  22  23
ATOM     23  C   UNL     1       5.756   5.751  17.613  0.00  0.00    +0.000 A 
ATOM     24  C   UNL     1       6.347   6.885  17.033  0.00  0.00    +0.000 A 
ATOM     25  C   UNL     1       7.510   7.435  17.573  0.00  0.00    +0.000 A 
ATOM     26  C   UNL     1       8.094   6.862  18.699  0.00  0.00    +0.000 A 
ATOM     27  C   UNL     1       7.521   5.735  19.285  0.00  0.00    +0.000 A 
ATOM     28  C   UNL     1       6.364   5.181  18.745  0.00  0.00    +0.000 A 
ENDBRANCH  22  23
ENDBRANCH  16  17
ENDBRANCH   5  16
TORSDOF 5
ENDMDL
MODEL 2
REMARK VINA RESULT:      -8.3      4.934      9.251
REMARK  Name = 
REMARK  6 active torsions:
REMARK  status: ('A' for Active; 'I' for Inactive)
REMARK    1  A    between atoms: C_1  and  C_2
REMARK    2  A    between atoms: C_5  and  C_6
REMARK    3  A    between atoms: C_6  and  C_7
REMARK    4  A    between atoms: C_11  and  C_13
REMARK    5  A    between atoms: C_13  and  N_14
REMARK    6  A    between atoms: C_19  and  C_20
REMARK                            x       y       z     vdW  Elec       q    Type
REMARK                         _______ _______ _______ _____ _____    ______ ____
ROOT
ATOM      1  C   UNL     1       5.671   5.218  14.946  0.00  0.00    +0.000 C 
ATOM      2  C   UNL     1       6.443   6.002  16.023  0.00  0.00    +0.000 C 
ATOM      3  C   UNL     1       6.881   5.135  17.197  0.00  0.00    +0.000 C 
ATOM      4  N   UNL     1       5.750   4.418  17.774  0.00  0.00    +0.000 N 
ATOM      5  C   UNL     1       5.668   4.356  19.163  0.00  0.00    +0.000 C 
ATOM      6  O   UNL     1       6.392   5.047  19.891  0.00  0.00    +0.000 OA
ATOM      7  C   UNL     1       4.999   3.585  16.845  0.00  0.00    +0.000 C 
ATOM      8  C   UNL     1       4.563   4.370  15.602  0.00  0.00    +0.000 C 
ENDROOT
BRANCH   1   9
ATOM      9  C   UNL     1       6.582   4.382  14.027  0.00  0.00    +0.000 C 
BRANCH   9  14
ATOM     10  C   UNL     1       3.410   2.970  10.491  0.00  0.00    +0.000 C 
ATOM     11  C   UNL     1       4.560   3.037  11.412  0.00  0.00    +0.000 A 
ATOM     12  N   UNL     1       5.548   2.131  11.396  0.00  0.00    +0.000 NA
ATOM     13  O   UNL     1       6.407   2.577  12.399  0.00  0.00    +0.000 OA
ATOM     14  C   UNL     1       5.837   3.703  12.926  0.00  0.00    +0.000 A 
ATOM     15  N   UNL     1       4.703   4.028  12.352  0.00  0.00    +0.000 NA
ENDBRANCH   9  14
ENDBRANCH   1   9
BRANCH   5  16
ATOM     16  C   UNL     1       4.600   3.471  19.827  0.00  0.00    +0.000 C 
BRANCH  16  17
ATOM     17  N   UNL     1       3.383   3.224  19.062  0.00  0.00    +0.000 N 
ATOM     18  C   UNL     1       3.043   1.937  18.668  0.00  0.00    +0.000 C 
ATOM     19  O   UNL     1       3.789   0.980  18.562  0.00  0.00    +0.000 OA
ATOM     20  O   UNL     1       1.701   1.863  18.389  0.00  0.00    +0.000 OA
ATOM     21  C   UNL     1       1.150   3.174  18.554  0.00  0.00    +0.000 C 
ATOM     22  C   UNL     1       2.154   3.866  19.450  0.00  0.00    +0.000 C 
BRANCH  22  23
ATOM     23  C   UNL     1       2.160   5.365  19.336  0.00  0.00    +0.000 A 
ATOM     24  C   UNL     1       2.453   5.982  18.109  0.00  0.00    +0.000 A 
ATOM     25  C   UNL     1       2.456   7.373  17.996  0.00  0.00    +0.000 A 
ATOM     26  C   UNL     1       2.163   8.163  19.106  0.00  0.00    +0.000 A 
ATOM     27  C   UNL     1       1.872   7.565  20.330  0.00  0.00    +0.000 A 
ATOM     28  C   UNL     1       1.874   6.179  20.446  0.00  0.00    +0.000 A 
ENDBRANCH  22  23
ENDBRANCH  16  17
ENDBRANCH   5  16
TORSDOF 5
ENDMDL
MODEL 3
REMARK VINA RESULT:      -8.1      4.913      9.413
REMARK  Name = 
REMARK  6 active torsions:
REMARK  status: ('A' for Active; 'I' for Inactive)
REMARK    1  A    between atoms: C_1  and  C_2
REMARK    2  A    between atoms: C_5  and  C_6
REMARK    3  A    between atoms: C_6  and  C_7
REMARK    4  A    between atoms: C_11  and  C_13
REMARK    5  A    between atoms: C_13  and  N_14
REMARK    6  A    between atoms: C_19  and  C_20
REMARK                            x       y       z     vdW  Elec       q    Type
REMARK                         _______ _______ _______ _____ _____    ______ ____
ROOT
ATOM      1  C   UNL     1       5.568   5.386  14.825  0.00  0.00    +0.000 C 
ATOM      2  C   UNL     1       6.066   6.334  15.930  0.00  0.00    +0.000 C 
ATOM      3  C   UNL     1       6.635   5.600  17.138  0.00  0.00    +0.000 C 
ATOM      4  N   UNL     1       5.681   4.630  17.664  0.00  0.00    +0.000 N 
ATOM      5  C   UNL     1       5.539   4.551  19.047  0.00  0.00    +0.000 C 
ATOM      6  O   UNL     1       6.032   5.397  19.803  0.00  0.00    +0.000 OA
ATOM      7  C   UNL     1       5.207   3.639  16.706  0.00  0.00    +0.000 C 
ATOM      8  C   UNL     1       4.663   4.294  15.432  0.00  0.00    +0.000 C 
ENDROOT
BRANCH   1   9
ATOM      9  C   UNL     1       6.704   4.796  13.967  0.00  0.00    +0.000 C 
BRANCH   9  14
ATOM     10  C   UNL     1       6.111   0.994  10.844  0.00  0.00    +0.000 C 
ATOM     11  C   UNL     1       5.885   2.209  11.650  0.00  0.00    +0.000 A 
ATOM     12  N   UNL     1       4.722   2.876  11.636  0.00  0.00    +0.000 NA
ATOM     13  O   UNL     1       4.943   3.923  12.529  0.00  0.00    +0.000 OA
ATOM     14  C   UNL     1       6.226   3.784  12.979  0.00  0.00    +0.000 A 
ATOM     15  N   UNL     1       6.846   2.745  12.471  0.00  0.00    +0.000 NA
ENDBRANCH   9  14
ENDBRANCH   1   9
BRANCH   5  16
ATOM     16  C   UNL     1       4.683   3.433  19.664  0.00  0.00    +0.000 C 
BRANCH  16  17
ATOM     17  N   UNL     1       3.402   3.156  19.024  0.00  0.00    +0.000 N 
ATOM     18  C   UNL     1       3.043   1.857  18.689  0.00  0.00    +0.000 C 
ATOM     19  O   UNL     1       3.789   0.908  18.530  0.00  0.00    +0.000 OA
ATOM     20  O   UNL     1       1.682   1.762  18.540  0.00  0.00    +0.000 OA
ATOM     21  C   UNL     1       1.131   3.069  18.732  0.00  0.00    +0.000 C 
ATOM     22  C   UNL     1       2.206   3.792  19.515  0.00  0.00    +0.000 C 
BRANCH  22  23
ATOM     23  C   UNL     1       2.181   5.288  19.372  0.00  0.00    +0.000 A 
ATOM     24  C   UNL     1       1.893   6.103  20.478  0.00  0.00    +0.000 A 
ATOM     25  C   UNL     1       1.872   7.492  20.352  0.00  0.00    +0.000 A 
ATOM     26  C   UNL     1       2.142   8.084  19.119  0.00  0.00    +0.000 A 
ATOM     27  C   UNL     1       2.427   7.288  18.012  0.00  0.00    +0.000 A 
ATOM     28  C   UNL     1       2.443   5.902  18.134  0.00  0.00    +0.000 A 
ENDBRANCH  22  23
ENDBRANCH  16  17
ENDBRANCH   5  16
TORSDOF 5
ENDMDL
MODEL 4
REMARK VINA RESULT:      -8.1      1.883      2.639
REMARK  Name = 
REMARK  6 active torsions:
REMARK  status: ('A' for Active; 'I' for Inactive)
REMARK    1  A    between atoms: C_1  and  C_2
REMARK    2  A    between atoms: C_5  and  C_6
REMARK    3  A    between atoms: C_6  and  C_7
REMARK    4  A    between atoms: C_11  and  C_13
REMARK    5  A    between atoms: C_13  and  N_14
REMARK    6  A    between atoms: C_19  and  C_20
REMARK                            x       y       z     vdW  Elec       q    Type
REMARK                         _______ _______ _______ _____ _____    ______ ____
ROOT
ATOM      1  C   UNL     1      -0.178  10.387  20.526  0.00  0.00    +0.000 C 
ATOM      2  C   UNL     1      -0.082   9.105  21.372  0.00  0.00    +0.000 C 
ATOM      3  C   UNL     1       1.274   8.418  21.268  0.00  0.00    +0.000 C 
ATOM      4  N   UNL     1       1.630   8.162  19.876  0.00  0.00    +0.000 N 
ATOM      5  C   UNL     1       2.196   6.926  19.573  0.00  0.00    +0.000 C 
ATOM      6  O   UNL     1       2.211   5.997  20.391  0.00  0.00    +0.000 OA
ATOM      7  C   UNL     1       1.641   9.333  19.009  0.00  0.00    +0.000 C 
ATOM      8  C   UNL     1       0.326  10.116  19.094  0.00  0.00    +0.000 C 
ENDROOT
BRANCH   1   9
ATOM      9  C   UNL     1       0.519  11.600  21.173  0.00  0.00    +0.000 C 
BRANCH   9  14
ATOM     10  C   UNL     1       2.811  14.679  18.038  0.00  0.00    +0.000 C 
ATOM     11  C   UNL     1       1.785  13.982  18.836  0.00  0.00    +0.000 A 
ATOM     12  N   UNL     1       0.483  14.292  18.764  0.00  0.00    +0.000 NA
ATOM     13  O   UNL     1      -0.109  13.399  19.655  0.00  0.00    +0.000 OA
ATOM     14  C   UNL     1       0.904  12.649  20.184  0.00  0.00    +0.000 A 
ATOM     15  N   UNL     1       2.087  12.967  19.711  0.00  0.00    +0.000 NA
ENDBRANCH   9  14
ENDBRANCH   1   9
BRANCH   5  16
ATOM     16  C   UNL     1       2.750   6.665  18.163  0.00  0.00    +0.000 C 
BRANCH  16  17
ATOM     17  N   UNL     1       3.255   5.323  17.892  0.00  0.00    +0.000 N 
ATOM     18  C   UNL     1       2.386   4.295  17.553  0.00  0.00    +0.000 C 
ATOM     19  O   UNL     1       1.190   4.240  17.776  0.00  0.00    +0.000 OA
ATOM     20  O   UNL     1       3.065   3.290  16.911  0.00  0.00    +0.000 OA
ATOM     21  C   UNL     1       4.450   3.652  16.880  0.00  0.00    +0.000 C 
ATOM     22  C   UNL     1       4.424   5.153  17.069  0.00  0.00    +0.000 C 
BRANCH  22  23
ATOM     23  C   UNL     1       5.689   5.730  17.640  0.00  0.00    +0.000 A 
ATOM     24  C   UNL     1       6.259   5.183  18.801  0.00  0.00    +0.000 A 
ATOM     25  C   UNL     1       7.435   5.711  19.334  0.00  0.00    +0.000 A 
ATOM     26  C   UNL     1       8.058   6.791  18.711  0.00  0.00    +0.000 A 
ATOM     27  C   UNL     1       7.504   7.346  17.560  0.00  0.00    +0.000 A 
ATOM     28  C   UNL     1       6.328   6.824  17.030  0.00  0.00    +0.000 A 
ENDBRANCH  22  23
ENDBRANCH  16  17
ENDBRANCH   5  16
TORSDOF 5
ENDMDL
MODEL 5
REMARK VINA RESULT:      -8.0      1.613      1.941
REMARK  Name = 
REMARK  6 active torsions:
REMARK  status: ('A' for Active; 'I' for Inactive)
REMARK    1  A    between atoms: C_1  and  C_2
REMARK    2  A    between atoms: C_5  and  C_6
REMARK    3  A    between atoms: C_6  and  C_7
REMARK    4  A    between atoms: C_11  and  C_13
REMARK    5  A    between atoms: C_13  and  N_14
REMARK    6  A    between atoms: C_19  and  C_20
REMARK                            x       y       z     vdW  Elec       q    Type
REMARK                         _______ _______ _______ _____ _____    ______ ____
ROOT
ATOM      1  C   UNL     1      -0.373  10.091  20.904  0.00  0.00    +0.000 C 
ATOM      2  C   UNL     1      -0.211   8.769  21.675  0.00  0.00    +0.000 C 
ATOM      3  C   UNL     1       1.181   8.165  21.543  0.00  0.00    +0.000 C 
ATOM      4  N   UNL     1       1.559   8.010  20.143  0.00  0.00    +0.000 N 
ATOM      5  C   UNL     1       2.194   6.826  19.774  0.00  0.00    +0.000 C 
ATOM      6  O   UNL     1       2.256   5.854  20.537  0.00  0.00    +0.000 OA
ATOM      7  C   UNL     1       1.510   9.228  19.345  0.00  0.00    +0.000 C 
ATOM      8  C   UNL     1       0.153   9.931  19.463  0.00  0.00    +0.000 C 
ENDROOT
BRANCH   1   9
ATOM      9  C   UNL     1       0.252  11.301  21.626  0.00  0.00    +0.000 C 
BRANCH   9  14
ATOM     10  C   UNL     1      -0.190  15.322  18.763  0.00  0.00    +0.000 C 
ATOM     11  C   UNL     1       0.356  14.177  19.515  0.00  0.00    +0.000 A 
ATOM     12  N   UNL     1       1.666  13.896  19.547  0.00  0.00    +0.000 NA
ATOM     13  O   UNL     1       1.732  12.768  20.364  0.00  0.00    +0.000 OA
ATOM     14  C   UNL     1       0.447  12.479  20.730  0.00  0.00    +0.000 A 
ATOM     15  N   UNL     1      -0.435  13.316  20.236  0.00  0.00    +0.000 NA
ENDBRANCH   9  14
ENDBRANCH   1   9
BRANCH   5  16
ATOM     16  C   UNL     1       2.770   6.678  18.356  0.00  0.00    +0.000 C 
BRANCH  16  17
ATOM     17  N   UNL     1       3.271   5.360  17.984  0.00  0.00    +0.000 N 
ATOM     18  C   UNL     1       2.395   4.346  17.622  0.00  0.00    +0.000 C 
ATOM     19  O   UNL     1       1.210   4.267  17.893  0.00  0.00    +0.000 OA
ATOM     20  O   UNL     1       3.052   3.387  16.892  0.00  0.00    +0.000 OA
ATOM     21  C   UNL     1       4.431   3.763  16.822  0.00  0.00    +0.000 C 
ATOM     22  C   UNL     1       4.404   5.250  17.101  0.00  0.00    +0.000 C 
BRANCH  22  23
ATOM     23  C   UNL     1       5.689   5.803  17.651  0.00  0.00    +0.000 A 
ATOM     24  C   UNL     1       6.309   6.904  17.037  0.00  0.00    +0.000 A 
ATOM     25  C   UNL     1       7.500   7.424  17.546  0.00  0.00    +0.000 A 
ATOM     26  C   UNL     1       8.084   6.853  18.674  0.00  0.00    +0.000 A 
ATOM     27  C   UNL     1       7.482   5.760  19.293  0.00  0.00    +0.000 A 
ATOM     28  C   UNL     1       6.297   5.236  18.784  0.00  0.00    +0.000 A 
ENDBRANCH  22  23
ENDBRANCH  16  17
ENDBRANCH   5  16
TORSDOF 5
ENDMDL
MODEL 6
REMARK VINA RESULT:      -8.0      0.986      1.359
REMARK  Name = 
REMARK  6 active torsions:
REMARK  status: ('A' for Active; 'I' for Inactive)
REMARK    1  A    between atoms: C_1  and  C_2
REMARK    2  A    between atoms: C_5  and  C_6
REMARK    3  A    between atoms: C_6  and  C_7
REMARK    4  A    between atoms: C_11  and  C_13
REMARK    5  A    between atoms: C_13  and  N_14
REMARK    6  A    between atoms: C_19  and  C_20
REMARK                            x       y       z     vdW  Elec       q    Type
REMARK                         _______ _______ _______ _____ _____    ______ ____
ROOT
ATOM      1  C   UNL     1      -0.094  10.632  19.714  0.00  0.00    +0.000 C 
ATOM      2  C   UNL     1       0.095   9.530  20.772  0.00  0.00    +0.000 C 
ATOM      3  C   UNL     1       1.452   8.843  20.686  0.00  0.00    +0.000 C 
ATOM      4  N   UNL     1       1.701   8.334  19.342  0.00  0.00    +0.000 N 
ATOM      5  C   UNL     1       2.266   7.066  19.228  0.00  0.00    +0.000 C 
ATOM      6  O   UNL     1       2.365   6.306  20.199  0.00  0.00    +0.000 OA
ATOM      7  C   UNL     1       1.619   9.323  18.275  0.00  0.00    +0.000 C 
ATOM      8  C   UNL     1       0.299  10.101  18.321  0.00  0.00    +0.000 C 
ENDROOT
BRANCH   1   9
ATOM      9  C   UNL     1       0.628  11.948  20.066  0.00  0.00    +0.000 C 
BRANCH   9  14
ATOM     10  C   UNL     1      -1.430  14.251  23.942  0.00  0.00    +0.000 C 
ATOM     11  C   UNL     1      -1.064  13.842  22.572  0.00  0.00    +0.000 A 
ATOM     12  N   UNL     1      -1.572  14.438  21.484  0.00  0.00    +0.000 NA
ATOM     13  O   UNL     1      -0.960  13.759  20.432  0.00  0.00    +0.000 OA
ATOM     14  C   UNL     1      -0.153  12.812  20.999  0.00  0.00    +0.000 A 
ATOM     15  N   UNL     1      -0.181  12.824  22.311  0.00  0.00    +0.000 NA
ENDBRANCH   9  14
ENDBRANCH   1   9
BRANCH   5  16
ATOM     16  C   UNL     1       2.711   6.549  17.849  0.00  0.00    +0.000 C 
BRANCH  16  17
ATOM     17  N   UNL     1       3.218   5.183  17.791  0.00  0.00    +0.000 N 
ATOM     18  C   UNL     1       2.363   4.121  17.534  0.00  0.00    +0.000 C 
ATOM     19  O   UNL     1       1.154   4.097  17.683  0.00  0.00    +0.000 OA
ATOM     20  O   UNL     1       3.072   3.038  17.076  0.00  0.00    +0.000 OA
ATOM     21  C   UNL     1       4.459   3.391  17.089  0.00  0.00    +0.000 C 
ATOM     22  C   UNL     1       4.437   4.904  17.076  0.00  0.00    +0.000 C 
BRANCH  22  23
ATOM     23  C   UNL     1       5.668   5.549  17.648  0.00  0.00    +0.000 A 
ATOM     24  C   UNL     1       6.209   5.095  18.862  0.00  0.00    +0.000 A 
ATOM     25  C   UNL     1       7.354   5.687  19.396  0.00  0.00    +0.000 A 
ATOM     26  C   UNL     1       7.973   6.738  18.722  0.00  0.00    +0.000 A 
ATOM     27  C   UNL     1       7.448   7.200  17.518  0.00  0.00    +0.000 A 
ATOM     28  C   UNL     1       6.303   6.615  16.987  0.00  0.00    +0.000 A 
ENDBRANCH  22  23
ENDBRANCH  16  17
ENDBRANCH   5  16
TORSDOF 5
ENDMDL
MODEL 7
REMARK VINA RESULT:      -7.8      1.041      1.436
REMARK  Name = 
REMARK  6 active torsions:
REMARK  status: ('A' for Active; 'I' for Inactive)
REMARK    1  A    between atoms: C_1  and  C_2
REMARK    2  A    between atoms: C_5  and  C_6
REMARK    3  A    between atoms: C_6  and  C_7
REMARK    4  A    between atoms: C_11  and  C_13
REMARK    5  A    between atoms: C_13  and  N_14
REMARK    6  A    between atoms: C_19  and  C_20
REMARK                            x       y       z     vdW  Elec       q    Type
REMARK                         _______ _______ _______ _____ _____    ______ ____
ROOT
ATOM      1  C   UNL     1       0.663  11.138  20.527  0.00  0.00    +0.000 C 
ATOM      2  C   UNL     1       1.163  11.071  19.073  0.00  0.00    +0.000 C 
ATOM      3  C   UNL     1       0.999   9.693  18.446  0.00  0.00    +0.000 C 
ATOM      4  N   UNL     1       1.622   8.661  19.267  0.00  0.00    +0.000 N 
ATOM      5  C   UNL     1       2.359   7.675  18.615  0.00  0.00    +0.000 C 
ATOM      6  O   UNL     1       2.658   7.769  17.418  0.00  0.00    +0.000 OA
ATOM      7  C   UNL     1       1.157   8.596  20.647  0.00  0.00    +0.000 C 
ATOM      8  C   UNL     1       1.239   9.961  21.340  0.00  0.00    +0.000 C 
ENDROOT
BRANCH   1   9
ATOM      9  C   UNL     1      -0.870  11.236  20.643  0.00  0.00    +0.000 C 
BRANCH   9  14
ATOM     10  C   UNL     1      -3.356  13.678  24.168  0.00  0.00    +0.000 C 
ATOM     11  C   UNL     1      -2.282  13.137  23.313  0.00  0.00    +0.000 A 
ATOM     12  N   UNL     1      -0.987  13.417  23.521  0.00  0.00    +0.000 NA
ATOM     13  O   UNL     1      -0.340  12.706  22.512  0.00  0.00    +0.000 OA
ATOM     14  C   UNL     1      -1.318  12.079  21.790  0.00  0.00    +0.000 A 
ATOM     15  N   UNL     1      -2.527  12.311  22.243  0.00  0.00    +0.000 NA
ENDBRANCH   9  14
ENDBRANCH   1   9
BRANCH   5  16
ATOM     16  C   UNL     1       2.891   6.470  19.407  0.00  0.00    +0.000 C 
BRANCH  16  17
ATOM     17  N   UNL     1       3.285   5.297  18.634  0.00  0.00    +0.000 N 
ATOM     18  C   UNL     1       2.342   4.355  18.245  0.00  0.00    +0.000 C 
ATOM     19  O   UNL     1       1.248   4.163  18.744  0.00  0.00    +0.000 OA
ATOM     20  O   UNL     1       2.811   3.622  17.184  0.00  0.00    +0.000 OA
ATOM     21  C   UNL     1       4.142   4.065  16.904  0.00  0.00    +0.000 C 
ATOM     22  C   UNL     1       4.190   5.445  17.524  0.00  0.00    +0.000 C 
BRANCH  22  23
ATOM     23  C   UNL     1       5.570   5.913  17.892  0.00  0.00    +0.000 A 
ATOM     24  C   UNL     1       6.172   6.971  17.191  0.00  0.00    +0.000 A 
ATOM     25  C   UNL     1       7.451   7.413  17.531  0.00  0.00    +0.000 A 
ATOM     26  C   UNL     1       8.143   6.805  18.576  0.00  0.00    +0.000 A 
ATOM     27  C   UNL     1       7.561   5.753  19.280  0.00  0.00    +0.000 A 
ATOM     28  C   UNL     1       6.287   5.307  18.939  0.00  0.00    +0.000 A 
ENDBRANCH  22  23
ENDBRANCH  16  17
ENDBRANCH   5  16
TORSDOF 5
ENDMDL
MODEL 8
REMARK VINA RESULT:      -7.8      1.734      2.077
REMARK  Name = 
REMARK  6 active torsions:
REMARK  status: ('A' for Active; 'I' for Inactive)
REMARK    1  A    between atoms: C_1  and  C_2
REMARK    2  A    between atoms: C_5  and  C_6
REMARK    3  A    between atoms: C_6  and  C_7
REMARK    4  A    between atoms: C_11  and  C_13
REMARK    5  A    between atoms: C_13  and  N_14
REMARK    6  A    between atoms: C_19  and  C_20
REMARK                            x       y       z     vdW  Elec       q    Type
REMARK                         _______ _______ _______ _____ _____    ______ ____
ROOT
ATOM      1  C   UNL     1       0.128  10.567  19.949  0.00  0.00    +0.000 C 
ATOM      2  C   UNL     1       0.200   9.392  20.940  0.00  0.00    +0.000 C 
ATOM      3  C   UNL     1       1.507   8.614  20.853  0.00  0.00    +0.000 C 
ATOM      4  N   UNL     1       1.769   8.171  19.487  0.00  0.00    +0.000 N 
ATOM      5  C   UNL     1       2.245   6.875  19.311  0.00  0.00    +0.000 C 
ATOM      6  O   UNL     1       2.255   6.051  20.234  0.00  0.00    +0.000 OA
ATOM      7  C   UNL     1       1.795   9.227  18.484  0.00  0.00    +0.000 C 
ATOM      8  C   UNL     1       0.533  10.095  18.538  0.00  0.00    +0.000 C 
ENDROOT
BRANCH   1   9
ATOM      9  C   UNL     1       0.928  11.803  20.406  0.00  0.00    +0.000 C 
BRANCH   9  14
ATOM     10  C   UNL     1      -1.590  16.070  20.300  0.00  0.00    +0.000 C 
ATOM     11  C   UNL     1      -0.769  14.904  19.922  0.00  0.00    +0.000 A 
ATOM     12  N   UNL     1      -0.255  14.755  18.693  0.00  0.00    +0.000 NA
ATOM     13  O   UNL     1       0.442  13.551  18.781  0.00  0.00    +0.000 OA
ATOM     14  C   UNL     1       0.263  13.092  20.056  0.00  0.00    +0.000 A 
ATOM     15  N   UNL     1      -0.471  13.889  20.797  0.00  0.00    +0.000 NA
ENDBRANCH   9  14
ENDBRANCH   1   9
BRANCH   5  16
ATOM     16  C   UNL     1       2.703   6.413  17.917  0.00  0.00    +0.000 C 
BRANCH  16  17
ATOM     17  N   UNL     1       3.254   5.066  17.819  0.00  0.00    +0.000 N 
ATOM     18  C   UNL     1       2.429   3.980  17.562  0.00  0.00    +0.000 C 
ATOM     19  O   UNL     1       1.227   3.912  17.741  0.00  0.00    +0.000 OA
ATOM     20  O   UNL     1       3.163   2.932  17.065  0.00  0.00    +0.000 OA
ATOM     21  C   UNL     1       4.537   3.331  17.049  0.00  0.00    +0.000 C 
ATOM     22  C   UNL     1       4.463   4.843  17.068  0.00  0.00    +0.000 C 
BRANCH  22  23
ATOM     23  C   UNL     1       5.686   5.519  17.622  0.00  0.00    +0.000 A 
ATOM     24  C   UNL     1       6.263   5.072  18.821  0.00  0.00    +0.000 A 
ATOM     25  C   UNL     1       7.401   5.693  19.338  0.00  0.00    +0.000 A 
ATOM     26  C   UNL     1       7.976   6.766  18.661  0.00  0.00    +0.000 A 
ATOM     27  C   UNL     1       7.414   7.222  17.472  0.00  0.00    +0.000 A 
ATOM     28  C   UNL     1       6.277   6.608  16.957  0.00  0.00    +0.000 A 
ENDBRANCH  22  23
ENDBRANCH  16  17
ENDBRANCH   5  16
TORSDOF 5
ENDMDL
MODEL 9
REMARK VINA RESULT:      -7.7      1.668      1.862
REMARK  Name = 
REMARK  6 active torsions:
REMARK  status: ('A' for Active; 'I' for Inactive)
REMARK    1  A    between atoms: C_1  and  C_2
REMARK    2  A    between atoms: C_5  and  C_6
REMARK    3  A    between atoms: C_6  and  C_7
REMARK    4  A    between atoms: C_11  and  C_13
REMARK    5  A    between atoms: C_13  and  N_14
REMARK    6  A    between atoms: C_19  and  C_20
REMARK                            x       y       z     vdW  Elec       q    Type
REMARK                         _______ _______ _______ _____ _____    ______ ____
ROOT
ATOM      1  C   UNL     1       0.543  10.435  19.300  0.00  0.00    +0.000 C 
ATOM      2  C   UNL     1       0.548   9.519  20.537  0.00  0.00    +0.000 C 
ATOM      3  C   UNL     1       1.727   8.554  20.564  0.00  0.00    +0.000 C 
ATOM      4  N   UNL     1       1.800   7.777  19.331  0.00  0.00    +0.000 N 
ATOM      5  C   UNL     1       2.082   6.418  19.441  0.00  0.00    +0.000 C 
ATOM      6  O   UNL     1       2.067   5.835  20.533  0.00  0.00    +0.000 OA
ATOM      7  C   UNL     1       1.875   8.560  18.104  0.00  0.00    +0.000 C 
ATOM      8  C   UNL     1       0.751   9.598  18.022  0.00  0.00    +0.000 C 
ENDROOT
BRANCH   1   9
ATOM      9  C   UNL     1       1.539  11.607  19.402  0.00  0.00    +0.000 C 
BRANCH   9  14
ATOM     10  C   UNL     1      -0.751  14.633  22.589  0.00  0.00    +0.000 C 
ATOM     11  C   UNL     1       0.278  13.910  21.819  0.00  0.00    +0.000 A 
ATOM     12  N   UNL     1       1.591  14.099  22.017  0.00  0.00    +0.000 NA
ATOM     13  O   UNL     1       2.182  13.226  21.105  0.00  0.00    +0.000 OA
ATOM     14  C   UNL     1       1.158  12.609  20.441  0.00  0.00    +0.000 A 
ATOM     15  N   UNL     1      -0.030  12.993  20.844  0.00  0.00    +0.000 NA
ENDBRANCH   9  14
ENDBRANCH   1   9
BRANCH   5  16
ATOM     16  C   UNL     1       2.344   5.587  18.174  0.00  0.00    +0.000 C 
BRANCH  16  17
ATOM     17  N   UNL     1       2.769   4.205  18.370  0.00  0.00    +0.000 N 
ATOM     18  C   UNL     1       1.833   3.184  18.471  0.00  0.00    +0.000 C 
ATOM     19  O   UNL     1       0.658   3.293  18.769  0.00  0.00    +0.000 OA
ATOM     20  O   UNL     1       2.417   1.974  18.191  0.00  0.00    +0.000 OA
ATOM     21  C   UNL     1       3.809   2.208  17.952  0.00  0.00    +0.000 C 
ATOM     22  C   UNL     1       3.861   3.677  17.594  0.00  0.00    +0.000 C 
BRANCH  22  23
ATOM     23  C   UNL     1       5.191   4.332  17.848  0.00  0.00    +0.000 A 
ATOM     24  C   UNL     1       6.122   4.476  16.806  0.00  0.00    +0.000 A 
ATOM     25  C   UNL     1       7.355   5.087  17.035  0.00  0.00    +0.000 A 
ATOM     26  C   UNL     1       7.673   5.562  18.305  0.00  0.00    +0.000 A 
ATOM     27  C   UNL     1       6.761   5.424  19.349  0.00  0.00    +0.000 A 
ATOM     28  C   UNL     1       5.532   4.811  19.125  0.00  0.00    +0.000 A 
ENDBRANCH  22  23
ENDBRANCH  16  17
ENDBRANCH   5  16
TORSDOF 5
ENDMDL
