MODEL 1
REMARK VINA RESULT:      -6.9      0.000      0.000
REMARK  Name = 
REMARK  5 active torsions:
REMARK  status: ('A' for Active; 'I' for Inactive)
REMARK    1  A    between atoms: C_1  and  C_2
REMARK    2  A    between atoms: C_2  and  O_3
REMARK    3  A    between atoms: O_3  and  C_4
REMARK    4  A    between atoms: C_7  and  N_8
REMARK    5  A    between atoms: N_17  and  C_18
REMARK                            x       y       z     vdW  Elec       q    Type
REMARK                         _______ _______ _______ _____ _____    ______ ____
ROOT
ATOM      1  N   UNL     1       3.853   5.445  18.763  0.00  0.00    +0.000 N 
ATOM      2  C   UNL     1       2.997   6.459  19.050  0.00  0.00    +0.000 A 
ATOM      3  N   UNL     1       2.780   7.577  18.388  0.00  0.00    +0.000 NA
ATOM      4  C   UNL     1       1.904   8.313  19.136  0.00  0.00    +0.000 A 
ATOM      5  C   UNL     1       1.341   9.570  18.870  0.00  0.00    +0.000 A 
ATOM      6  C   UNL     1       0.491  10.144  19.823  0.00  0.00    +0.000 A 
ATOM      7  C   UNL     1       0.226   9.489  21.027  0.00  0.00    +0.000 A 
ATOM      8  C   UNL     1       0.758   8.223  21.297  0.00  0.00    +0.000 A 
ATOM      9  C   UNL     1       1.574   7.651  20.311  0.00  0.00    +0.000 A 
ATOM     10  N   UNL     1       2.174   6.419  20.165  0.00  0.00    +0.000 N 
ATOM     11  C   UNL     1       1.818   5.240  20.918  0.00  0.00    +0.000 C 
ATOM     12  H   UNL     1       4.029   4.741  19.469  0.00  0.00    +0.000 HD
ENDROOT
BRANCH   1  16
ATOM     13  C   UNL     1       6.820   5.349  15.702  0.00  0.00    +0.000 A 
ATOM     14  C   UNL     1       5.623   4.663  15.529  0.00  0.00    +0.000 A 
ATOM     15  C   UNL     1       4.632   4.682  16.523  0.00  0.00    +0.000 A 
ATOM     16  C   UNL     1       4.808   5.390  17.718  0.00  0.00    +0.000 A 
ATOM     17  C   UNL     1       6.043   6.036  17.894  0.00  0.00    +0.000 A 
ATOM     18  C   UNL     1       7.042   6.016  16.904  0.00  0.00    +0.000 A 
BRANCH  13  19
ATOM     19  O   UNL     1       7.692   5.286  14.648  0.00  0.00    +0.000 OA
BRANCH  19  21
ATOM     20  C   UNL     1       7.765   5.347  12.254  0.00  0.00    +0.000 C 
ATOM     21  C   UNL     1       7.218   4.625  13.474  0.00  0.00    +0.000 C 
ENDBRANCH  19  21
ENDBRANCH  13  19
ENDBRANCH   1  16
TORSDOF 3
ENDMDL
MODEL 2
REMARK VINA RESULT:      -6.8      0.141      1.077
REMARK  Name = 
REMARK  5 active torsions:
REMARK  status: ('A' for Active; 'I' for Inactive)
REMARK    1  A    between atoms: C_1  and  C_2
REMARK    2  A    between atoms: C_2  and  O_3
REMARK    3  A    between atoms: O_3  and  C_4
REMARK    4  A    between atoms: C_7  and  N_8
REMARK    5  A    between atoms: N_17  and  C_18
REMARK                            x       y       z     vdW  Elec       q    Type
REMARK                         _______ _______ _______ _____ _____    ______ ____
ROOT
ATOM      1  N   UNL     1       3.906   5.494  18.788  0.00  0.00    +0.000 N 
ATOM      2  C   UNL     1       3.022   6.491  19.045  0.00  0.00    +0.000 A 
ATOM      3  N   UNL     1       2.795   7.598  18.366  0.00  0.00    +0.000 NA
ATOM      4  C   UNL     1       1.885   8.321  19.087  0.00  0.00    +0.000 A 
ATOM      5  C   UNL     1       1.300   9.561  18.795  0.00  0.00    +0.000 A 
ATOM      6  C   UNL     1       0.415  10.125  19.722  0.00  0.00    +0.000 A 
ATOM      7  C   UNL     1       0.137   9.475  20.926  0.00  0.00    +0.000 A 
ATOM      8  C   UNL     1       0.691   8.225  21.221  0.00  0.00    +0.000 A 
ATOM      9  C   UNL     1       1.543   7.662  20.260  0.00  0.00    +0.000 A 
ATOM     10  N   UNL     1       2.173   6.443  20.140  0.00  0.00    +0.000 N 
ATOM     11  C   UNL     1       1.826   5.264  20.897  0.00  0.00    +0.000 C 
ATOM     12  H   UNL     1       4.082   4.801  19.505  0.00  0.00    +0.000 HD
ENDROOT
BRANCH   1  16
ATOM     13  C   UNL     1       6.765   5.295  15.631  0.00  0.00    +0.000 A 
ATOM     14  C   UNL     1       7.041   6.043  16.770  0.00  0.00    +0.000 A 
ATOM     15  C   UNL     1       6.115   6.122  17.822  0.00  0.00    +0.000 A 
ATOM     16  C   UNL     1       4.887   5.451  17.767  0.00  0.00    +0.000 A 
ATOM     17  C   UNL     1       4.607   4.741  16.587  0.00  0.00    +0.000 A 
ATOM     18  C   UNL     1       5.530   4.663  15.528  0.00  0.00    +0.000 A 
BRANCH  13  19
ATOM     19  O   UNL     1       7.761   5.265  14.691  0.00  0.00    +0.000 OA
BRANCH  19  21
ATOM     20  C   UNL     1       8.019   5.683  12.345  0.00  0.00    +0.000 C 
ATOM     21  C   UNL     1       7.394   4.781  13.398  0.00  0.00    +0.000 C 
ENDBRANCH  19  21
ENDBRANCH  13  19
ENDBRANCH   1  16
TORSDOF 3
ENDMDL
MODEL 3
REMARK VINA RESULT:      -6.6      1.130      1.445
REMARK  Name = 
REMARK  5 active torsions:
REMARK  status: ('A' for Active; 'I' for Inactive)
REMARK    1  A    between atoms: C_1  and  C_2
REMARK    2  A    between atoms: C_2  and  O_3
REMARK    3  A    between atoms: O_3  and  C_4
REMARK    4  A    between atoms: C_7  and  N_8
REMARK    5  A    between atoms: N_17  and  C_18
REMARK                            x       y       z     vdW  Elec       q    Type
REMARK                         _______ _______ _______ _____ _____    ______ ____
ROOT
ATOM      1  N   UNL     1       3.733   5.213  18.327  0.00  0.00    +0.000 N 
ATOM      2  C   UNL     1       2.976   6.280  18.689  0.00  0.00    +0.000 A 
ATOM      3  N   UNL     1       2.684   7.365  18.001  0.00  0.00    +0.000 NA
ATOM      4  C   UNL     1       1.978   8.183  18.840  0.00  0.00    +0.000 A 
ATOM      5  C   UNL     1       1.419   9.446  18.592  0.00  0.00    +0.000 A 
ATOM      6  C   UNL     1       0.770  10.113  19.637  0.00  0.00    +0.000 A 
ATOM      7  C   UNL     1       0.699   9.543  20.910  0.00  0.00    +0.000 A 
ATOM      8  C   UNL     1       1.227   8.273  21.167  0.00  0.00    +0.000 A 
ATOM      9  C   UNL     1       1.837   7.608  20.095  0.00  0.00    +0.000 A 
ATOM     10  N   UNL     1       2.360   6.343  19.929  0.00  0.00    +0.000 N 
ATOM     11  C   UNL     1       2.102   5.229  20.809  0.00  0.00    +0.000 C 
ATOM     12  H   UNL     1       4.007   4.545  19.036  0.00  0.00    +0.000 HD
ENDROOT
BRANCH   1  16
ATOM     13  C   UNL     1       5.993   4.592  14.764  0.00  0.00    +0.000 A 
ATOM     14  C   UNL     1       5.612   5.879  15.128  0.00  0.00    +0.000 A 
ATOM     15  C   UNL     1       4.869   6.107  16.297  0.00  0.00    +0.000 A 
ATOM     16  C   UNL     1       4.488   5.053  17.138  0.00  0.00    +0.000 A 
ATOM     17  C   UNL     1       4.841   3.757  16.727  0.00  0.00    +0.000 A 
ATOM     18  C   UNL     1       5.581   3.523  15.554  0.00  0.00    +0.000 A 
BRANCH  13  19
ATOM     19  O   UNL     1       6.746   4.501  13.623  0.00  0.00    +0.000 OA
BRANCH  19  21
ATOM     20  C   UNL     1       5.041   3.679  12.154  0.00  0.00    +0.000 C 
ATOM     21  C   UNL     1       6.422   3.429  12.737  0.00  0.00    +0.000 C 
ENDBRANCH  19  21
ENDBRANCH  13  19
ENDBRANCH   1  16
TORSDOF 3
ENDMDL
MODEL 4
REMARK VINA RESULT:      -6.6      2.750      4.291
REMARK  Name = 
REMARK  5 active torsions:
REMARK  status: ('A' for Active; 'I' for Inactive)
REMARK    1  A    between atoms: C_1  and  C_2
REMARK    2  A    between atoms: C_2  and  O_3
REMARK    3  A    between atoms: O_3  and  C_4
REMARK    4  A    between atoms: C_7  and  N_8
REMARK    5  A    between atoms: N_17  and  C_18
REMARK                            x       y       z     vdW  Elec       q    Type
REMARK                         _______ _______ _______ _____ _____    ______ ____
ROOT
ATOM      1  N   UNL     1       2.268   8.188  18.247  0.00  0.00    +0.000 N 
ATOM      2  C   UNL     1       1.670   8.713  19.347  0.00  0.00    +0.000 A 
ATOM      3  N   UNL     1       1.459   8.160  20.524  0.00  0.00    +0.000 NA
ATOM      4  C   UNL     1       0.733   9.059  21.256  0.00  0.00    +0.000 A 
ATOM      5  C   UNL     1       0.266   8.964  22.575  0.00  0.00    +0.000 A 
ATOM      6  C   UNL     1      -0.503  10.012  23.095  0.00  0.00    +0.000 A 
ATOM      7  C   UNL     1      -0.817  11.122  22.309  0.00  0.00    +0.000 A 
ATOM      8  C   UNL     1      -0.337  11.245  21.000  0.00  0.00    +0.000 A 
ATOM      9  C   UNL     1       0.463  10.201  20.515  0.00  0.00    +0.000 A 
ATOM     10  N   UNL     1       1.186  10.012  19.357  0.00  0.00    +0.000 N 
ATOM     11  C   UNL     1       1.553  11.064  18.440  0.00  0.00    +0.000 C 
ATOM     12  H   UNL     1       2.191   8.681  17.367  0.00  0.00    +0.000 HD
ENDROOT
BRANCH   1  16
ATOM     13  C   UNL     1       3.509   4.145  17.698  0.00  0.00    +0.000 A 
ATOM     14  C   UNL     1       4.446   5.171  17.646  0.00  0.00    +0.000 A 
ATOM     15  C   UNL     1       4.060   6.509  17.825  0.00  0.00    +0.000 A 
ATOM     16  C   UNL     1       2.725   6.859  18.065  0.00  0.00    +0.000 A 
ATOM     17  C   UNL     1       1.788   5.813  18.066  0.00  0.00    +0.000 A 
ATOM     18  C   UNL     1       2.169   4.471  17.882  0.00  0.00    +0.000 A 
BRANCH  13  19
ATOM     19  O   UNL     1       4.012   2.880  17.546  0.00  0.00    +0.000 OA
BRANCH  19  21
ATOM     20  C   UNL     1       4.296   2.183  19.822  0.00  0.00    +0.000 C 
ATOM     21  C   UNL     1       3.586   1.911  18.505  0.00  0.00    +0.000 C 
ENDBRANCH  19  21
ENDBRANCH  13  19
ENDBRANCH   1  16
TORSDOF 3
ENDMDL
MODEL 5
REMARK VINA RESULT:      -6.6      1.131      1.218
REMARK  Name = 
REMARK  5 active torsions:
REMARK  status: ('A' for Active; 'I' for Inactive)
REMARK    1  A    between atoms: C_1  and  C_2
REMARK    2  A    between atoms: C_2  and  O_3
REMARK    3  A    between atoms: O_3  and  C_4
REMARK    4  A    between atoms: C_7  and  N_8
REMARK    5  A    between atoms: N_17  and  C_18
REMARK                            x       y       z     vdW  Elec       q    Type
REMARK                         _______ _______ _______ _____ _____    ______ ____
ROOT
ATOM      1  N   UNL     1       3.658   5.173  18.392  0.00  0.00    +0.000 N 
ATOM      2  C   UNL     1       2.924   6.258  18.749  0.00  0.00    +0.000 A 
ATOM      3  N   UNL     1       2.659   7.348  18.057  0.00  0.00    +0.000 NA
ATOM      4  C   UNL     1       1.968   8.183  18.891  0.00  0.00    +0.000 A 
ATOM      5  C   UNL     1       1.439   9.457  18.638  0.00  0.00    +0.000 A 
ATOM      6  C   UNL     1       0.801  10.142  19.679  0.00  0.00    +0.000 A 
ATOM      7  C   UNL     1       0.712   9.577  20.952  0.00  0.00    +0.000 A 
ATOM      8  C   UNL     1       1.210   8.296  21.215  0.00  0.00    +0.000 A 
ATOM      9  C   UNL     1       1.809   7.614  20.147  0.00  0.00    +0.000 A 
ATOM     10  N   UNL     1       2.304   6.338  19.986  0.00  0.00    +0.000 N 
ATOM     11  C   UNL     1       2.017   5.232  20.868  0.00  0.00    +0.000 C 
ATOM     12  H   UNL     1       3.913   4.501  19.104  0.00  0.00    +0.000 HD
ENDROOT
BRANCH   1  16
ATOM     13  C   UNL     1       5.943   4.775  14.813  0.00  0.00    +0.000 A 
ATOM     14  C   UNL     1       5.615   3.646  15.556  0.00  0.00    +0.000 A 
ATOM     15  C   UNL     1       4.863   3.753  16.737  0.00  0.00    +0.000 A 
ATOM     16  C   UNL     1       4.414   4.994  17.207  0.00  0.00    +0.000 A 
ATOM     17  C   UNL     1       4.796   6.126  16.468  0.00  0.00    +0.000 A 
ATOM     18  C   UNL     1       5.553   6.024  15.288  0.00  0.00    +0.000 A 
BRANCH  13  19
ATOM     19  O   UNL     1       6.647   4.539  13.663  0.00  0.00    +0.000 OA
BRANCH  19  21
ATOM     20  C   UNL     1       5.150   3.589  12.051  0.00  0.00    +0.000 C 
ATOM     21  C   UNL     1       6.334   3.331  12.968  0.00  0.00    +0.000 C 
ENDBRANCH  19  21
ENDBRANCH  13  19
ENDBRANCH   1  16
TORSDOF 3
ENDMDL
MODEL 6
REMARK VINA RESULT:      -6.6      2.738      4.178
REMARK  Name = 
REMARK  5 active torsions:
REMARK  status: ('A' for Active; 'I' for Inactive)
REMARK    1  A    between atoms: C_1  and  C_2
REMARK    2  A    between atoms: C_2  and  O_3
REMARK    3  A    between atoms: O_3  and  C_4
REMARK    4  A    between atoms: C_7  and  N_8
REMARK    5  A    between atoms: N_17  and  C_18
REMARK                            x       y       z     vdW  Elec       q    Type
REMARK                         _______ _______ _______ _____ _____    ______ ____
ROOT
ATOM      1  N   UNL     1       2.218   8.135  18.233  0.00  0.00    +0.000 N 
ATOM      2  C   UNL     1       1.640   8.678  19.335  0.00  0.00    +0.000 A 
ATOM      3  N   UNL     1       1.434   8.139  20.519  0.00  0.00    +0.000 NA
ATOM      4  C   UNL     1       0.728   9.054  21.250  0.00  0.00    +0.000 A 
ATOM      5  C   UNL     1       0.275   8.977  22.575  0.00  0.00    +0.000 A 
ATOM      6  C   UNL     1      -0.475  10.040  23.094  0.00  0.00    +0.000 A 
ATOM      7  C   UNL     1      -0.784  11.146  22.302  0.00  0.00    +0.000 A 
ATOM      8  C   UNL     1      -0.316  11.251  20.986  0.00  0.00    +0.000 A 
ATOM      9  C   UNL     1       0.465  10.193  20.502  0.00  0.00    +0.000 A 
ATOM     10  N   UNL     1       1.173   9.984  19.338  0.00  0.00    +0.000 N 
ATOM     11  C   UNL     1       1.543  11.023  18.407  0.00  0.00    +0.000 C 
ATOM     12  H   UNL     1       2.137   8.622  17.349  0.00  0.00    +0.000 HD
ENDROOT
BRANCH   1  16
ATOM     13  C   UNL     1       3.671   4.161  17.707  0.00  0.00    +0.000 A 
ATOM     14  C   UNL     1       2.316   4.380  17.927  0.00  0.00    +0.000 A 
ATOM     15  C   UNL     1       1.815   5.680  18.101  0.00  0.00    +0.000 A 
ATOM     16  C   UNL     1       2.656   6.799  18.058  0.00  0.00    +0.000 A 
ATOM     17  C   UNL     1       4.028   6.553  17.883  0.00  0.00    +0.000 A 
ATOM     18  C   UNL     1       4.535   5.252  17.712  0.00  0.00    +0.000 A 
BRANCH  13  19
ATOM     19  O   UNL     1       4.032   2.854  17.514  0.00  0.00    +0.000 OA
BRANCH  19  21
ATOM     20  C   UNL     1       4.316   2.128  19.780  0.00  0.00    +0.000 C 
ATOM     21  C   UNL     1       3.555   1.917  18.481  0.00  0.00    +0.000 C 
ENDBRANCH  19  21
ENDBRANCH  13  19
ENDBRANCH   1  16
TORSDOF 3
ENDMDL
MODEL 7
REMARK VINA RESULT:      -6.5      3.405      7.817
REMARK  Name = 
REMARK  5 active torsions:
REMARK  status: ('A' for Active; 'I' for Inactive)
REMARK    1  A    between atoms: C_1  and  C_2
REMARK    2  A    between atoms: C_2  and  O_3
REMARK    3  A    between atoms: O_3  and  C_4
REMARK    4  A    between atoms: C_7  and  N_8
REMARK    5  A    between atoms: N_17  and  C_18
REMARK                            x       y       z     vdW  Elec       q    Type
REMARK                         _______ _______ _______ _____ _____    ______ ____
ROOT
ATOM      1  N   UNL     1       2.760   7.655  18.224  0.00  0.00    +0.000 N 
ATOM      2  C   UNL     1       2.675   6.302  18.145  0.00  0.00    +0.000 A 
ATOM      3  N   UNL     1       1.692   5.506  18.514  0.00  0.00    +0.000 NA
ATOM      4  C   UNL     1       2.130   4.225  18.323  0.00  0.00    +0.000 A 
ATOM      5  C   UNL     1       1.462   3.012  18.543  0.00  0.00    +0.000 A 
ATOM      6  C   UNL     1       2.146   1.813  18.310  0.00  0.00    +0.000 A 
ATOM      7  C   UNL     1       3.476   1.823  17.887  0.00  0.00    +0.000 A 
ATOM      8  C   UNL     1       4.149   3.024  17.637  0.00  0.00    +0.000 A 
ATOM      9  C   UNL     1       3.431   4.211  17.839  0.00  0.00    +0.000 A 
ATOM     10  N   UNL     1       3.702   5.542  17.606  0.00  0.00    +0.000 N 
ATOM     11  C   UNL     1       4.759   6.025  16.750  0.00  0.00    +0.000 C 
ATOM     12  H   UNL     1       3.656   8.098  18.063  0.00  0.00    +0.000 HD
ENDROOT
BRANCH   1  16
ATOM     13  C   UNL     1       0.012  10.278  20.161  0.00  0.00    +0.000 A 
ATOM     14  C   UNL     1       0.256  10.412  18.799  0.00  0.00    +0.000 A 
ATOM     15  C   UNL     1       1.155   9.559  18.140  0.00  0.00    +0.000 A 
ATOM     16  C   UNL     1       1.835   8.544  18.825  0.00  0.00    +0.000 A 
ATOM     17  C   UNL     1       1.612   8.456  20.210  0.00  0.00    +0.000 A 
ATOM     18  C   UNL     1       0.715   9.311  20.875  0.00  0.00    +0.000 A 
BRANCH  13  19
ATOM     19  O   UNL     1      -0.913  11.143  20.682  0.00  0.00    +0.000 OA
BRANCH  19  21
ATOM     20  C   UNL     1      -1.541  11.464  22.973  0.00  0.00    +0.000 C 
ATOM     21  C   UNL     1      -0.539  11.817  21.885  0.00  0.00    +0.000 C 
ENDBRANCH  19  21
ENDBRANCH  13  19
ENDBRANCH   1  16
TORSDOF 3
ENDMDL
MODEL 8
REMARK VINA RESULT:      -6.5      3.420      7.827
REMARK  Name = 
REMARK  5 active torsions:
REMARK  status: ('A' for Active; 'I' for Inactive)
REMARK    1  A    between atoms: C_1  and  C_2
REMARK    2  A    between atoms: C_2  and  O_3
REMARK    3  A    between atoms: O_3  and  C_4
REMARK    4  A    between atoms: C_7  and  N_8
REMARK    5  A    between atoms: N_17  and  C_18
REMARK                            x       y       z     vdW  Elec       q    Type
REMARK                         _______ _______ _______ _____ _____    ______ ____
ROOT
ATOM      1  N   UNL     1       2.757   7.688  18.271  0.00  0.00    +0.000 N 
ATOM      2  C   UNL     1       2.674   6.336  18.176  0.00  0.00    +0.000 A 
ATOM      3  N   UNL     1       1.687   5.536  18.525  0.00  0.00    +0.000 NA
ATOM      4  C   UNL     1       2.128   4.257  18.323  0.00  0.00    +0.000 A 
ATOM      5  C   UNL     1       1.458   3.041  18.523  0.00  0.00    +0.000 A 
ATOM      6  C   UNL     1       2.146   1.845  18.283  0.00  0.00    +0.000 A 
ATOM      7  C   UNL     1       3.480   1.861  17.875  0.00  0.00    +0.000 A 
ATOM      8  C   UNL     1       4.156   3.065  17.645  0.00  0.00    +0.000 A 
ATOM      9  C   UNL     1       3.435   4.249  17.854  0.00  0.00    +0.000 A 
ATOM     10  N   UNL     1       3.707   5.583  17.639  0.00  0.00    +0.000 N 
ATOM     11  C   UNL     1       4.773   6.076  16.800  0.00  0.00    +0.000 C 
ATOM     12  H   UNL     1       3.654   8.133  18.125  0.00  0.00    +0.000 HD
ENDROOT
BRANCH   1  16
ATOM     13  C   UNL     1      -0.076  10.394  19.954  0.00  0.00    +0.000 A 
ATOM     14  C   UNL     1       0.518   9.426  20.755  0.00  0.00    +0.000 A 
ATOM     15  C   UNL     1       1.454   8.525  20.223  0.00  0.00    +0.000 A 
ATOM     16  C   UNL     1       1.826   8.569  18.873  0.00  0.00    +0.000 A 
ATOM     17  C   UNL     1       1.178   9.523  18.070  0.00  0.00    +0.000 A 
ATOM     18  C   UNL     1       0.236  10.425  18.598  0.00  0.00    +0.000 A 
BRANCH  13  19
ATOM     19  O   UNL     1      -0.944  11.237  20.595  0.00  0.00    +0.000 OA
BRANCH  19  21
ATOM     20  C   UNL     1      -1.183  11.961  22.867  0.00  0.00    +0.000 C 
ATOM     21  C   UNL     1      -0.376  12.095  21.586  0.00  0.00    +0.000 C 
ENDBRANCH  19  21
ENDBRANCH  13  19
ENDBRANCH   1  16
TORSDOF 3
ENDMDL
MODEL 9
REMARK VINA RESULT:      -6.5      3.699      4.949
REMARK  Name = 
REMARK  5 active torsions:
REMARK  status: ('A' for Active; 'I' for Inactive)
REMARK    1  A    between atoms: C_1  and  C_2
REMARK    2  A    between atoms: C_2  and  O_3
REMARK    3  A    between atoms: O_3  and  C_4
REMARK    4  A    between atoms: C_7  and  N_8
REMARK    5  A    between atoms: N_17  and  C_18
REMARK                            x       y       z     vdW  Elec       q    Type
REMARK                         _______ _______ _______ _____ _____    ______ ____
ROOT
ATOM      1  N   UNL     1       1.919   7.924  19.461  0.00  0.00    +0.000 N 
ATOM      2  C   UNL     1       1.215   8.758  20.268  0.00  0.00    +0.000 A 
ATOM      3  N   UNL     1       0.827   8.579  21.514  0.00  0.00    +0.000 NA
ATOM      4  C   UNL     1       0.062   9.663  21.847  0.00  0.00    +0.000 A 
ATOM      5  C   UNL     1      -0.573   9.968  23.060  0.00  0.00    +0.000 A 
ATOM      6  C   UNL     1      -1.346  11.132  23.143  0.00  0.00    +0.000 A 
ATOM      7  C   UNL     1      -1.499  11.965  22.033  0.00  0.00    +0.000 A 
ATOM      8  C   UNL     1      -0.851  11.691  20.824  0.00  0.00    +0.000 A 
ATOM      9  C   UNL     1      -0.051  10.540  20.777  0.00  0.00    +0.000 A 
ATOM     10  N   UNL     1       0.803  10.009  19.834  0.00  0.00    +0.000 N 
ATOM     11  C   UNL     1       1.338  10.739  18.710  0.00  0.00    +0.000 C 
ATOM     12  H   UNL     1       1.980   8.137  18.473  0.00  0.00    +0.000 HD
ENDROOT
BRANCH   1  16
ATOM     13  C   UNL     1       3.266   3.951  20.227  0.00  0.00    +0.000 A 
ATOM     14  C   UNL     1       2.067   4.394  20.774  0.00  0.00    +0.000 A 
ATOM     15  C   UNL     1       1.604   5.698  20.534  0.00  0.00    +0.000 A 
ATOM     16  C   UNL     1       2.326   6.595  19.737  0.00  0.00    +0.000 A 
ATOM     17  C   UNL     1       3.557   6.144  19.233  0.00  0.00    +0.000 A 
ATOM     18  C   UNL     1       4.028   4.841  19.475  0.00  0.00    +0.000 A 
BRANCH  13  19
ATOM     19  O   UNL     1       3.593   2.650  20.501  0.00  0.00    +0.000 OA
BRANCH  19  21
ATOM     20  C   UNL     1       3.409   1.528  18.392  0.00  0.00    +0.000 C 
ATOM     21  C   UNL     1       4.351   1.965  19.502  0.00  0.00    +0.000 C 
ENDBRANCH  19  21
ENDBRANCH  13  19
ENDBRANCH   1  16
TORSDOF 3
ENDMDL
