MODEL 1
REMARK VINA RESULT:      -7.0      0.000      0.000
REMARK  Name = 
REMARK  11 active torsions:
REMARK  status: ('A' for Active; 'I' for Inactive)
REMARK    1  A    between atoms: C_1  and  O_2
REMARK    2  A    between atoms: O_2  and  N_3
REMARK    3  A    between atoms: C_4  and  C_5
REMARK    4  A    between atoms: C_8  and  O_9
REMARK    5  A    between atoms: O_9  and  C_10
REMARK    6  A    between atoms: C_11  and  O_12
REMARK    7  A    between atoms: O_12  and  C_13
REMARK    8  A    between atoms: C_15  and  O_16
REMARK    9  A    between atoms: O_16  and  C_17
REMARK   10  A    between atoms: C_19  and  O_20
REMARK   11  A    between atoms: O_20  and  C_21
REMARK                            x       y       z     vdW  Elec       q    Type
REMARK                         _______ _______ _______ _____ _____    ______ ____
ROOT
ATOM      1  C   UNL     1       2.130   6.917  19.195  0.00  0.00    +0.000 A 
ATOM      2  C   UNL     1       1.745   6.496  20.464  0.00  0.00    +0.000 A 
ATOM      3  C   UNL     1       1.899   5.155  20.819  0.00  0.00    +0.000 A 
ATOM      4  C   UNL     1       2.456   4.221  19.931  0.00  0.00    +0.000 A 
ATOM      5  C   UNL     1       2.861   4.658  18.661  0.00  0.00    +0.000 A 
ATOM      6  C   UNL     1       2.653   5.998  18.285  0.00  0.00    +0.000 A 
ENDROOT
BRANCH   1   8
ATOM      7  N   UNL     1       2.325   8.719  17.594  0.00  0.00    +0.000 NA
ATOM      8  C   UNL     1       2.009   8.328  18.787  0.00  0.00    +0.000 C 
BRANCH   7  10
ATOM      9  C   UNL     1       1.335  10.505  18.620  0.00  0.00    +0.000 C 
ATOM     10  O   UNL     1       2.106  10.101  17.495  0.00  0.00    +0.000 OA
ENDBRANCH   7  10
ENDBRANCH   1   8
BRANCH   4  11
ATOM     11  O   UNL     1       2.513   2.965  20.469  0.00  0.00    +0.000 OA
ATOM     12  C   UNL     1       1.813   2.688  21.672  0.00  0.00    +0.000 C 
ENDBRANCH   4  11
BRANCH   5  13
ATOM     13  O   UNL     1       3.376   3.755  17.758  0.00  0.00    +0.000 OA
BRANCH  13  14
ATOM     14  C   UNL     1       4.660   3.966  17.277  0.00  0.00    +0.000 A 
ATOM     15  N   UNL     1       5.669   4.141  18.137  0.00  0.00    +0.000 NA
ATOM     16  C   UNL     1       6.857   4.450  17.602  0.00  0.00    +0.000 A 
ATOM     17  C   UNL     1       7.078   4.547  16.252  0.00  0.00    +0.000 A 
ATOM     18  C   UNL     1       5.980   4.298  15.467  0.00  0.00    +0.000 A 
ATOM     19  N   UNL     1       4.761   4.008  15.948  0.00  0.00    +0.000 NA
BRANCH  16  20
ATOM     20  O   UNL     1       7.918   4.726  18.441  0.00  0.00    +0.000 OA
ATOM     21  C   UNL     1       7.800   6.004  19.069  0.00  0.00    +0.000 C 
ENDBRANCH  16  20
BRANCH  18  22
ATOM     22  O   UNL     1       6.161   4.381  14.100  0.00  0.00    +0.000 OA
ATOM     23  C   UNL     1       7.413   4.967  13.745  0.00  0.00    +0.000 C 
ENDBRANCH  18  22
ENDBRANCH  13  14
ENDBRANCH   5  13
TORSDOF 7
ENDMDL
MODEL 2
REMARK VINA RESULT:      -6.9      1.573      2.932
REMARK  Name = 
REMARK  11 active torsions:
REMARK  status: ('A' for Active; 'I' for Inactive)
REMARK    1  A    between atoms: C_1  and  O_2
REMARK    2  A    between atoms: O_2  and  N_3
REMARK    3  A    between atoms: C_4  and  C_5
REMARK    4  A    between atoms: C_8  and  O_9
REMARK    5  A    between atoms: O_9  and  C_10
REMARK    6  A    between atoms: C_11  and  O_12
REMARK    7  A    between atoms: O_12  and  C_13
REMARK    8  A    between atoms: C_15  and  O_16
REMARK    9  A    between atoms: O_16  and  C_17
REMARK   10  A    between atoms: C_19  and  O_20
REMARK   11  A    between atoms: O_20  and  C_21
REMARK                            x       y       z     vdW  Elec       q    Type
REMARK                         _______ _______ _______ _____ _____    ______ ____
ROOT
ATOM      1  C   UNL     1       2.058   6.044  19.761  0.00  0.00    +0.000 A 
ATOM      2  C   UNL     1       1.637   5.065  20.655  0.00  0.00    +0.000 A 
ATOM      3  C   UNL     1       1.773   3.718  20.313  0.00  0.00    +0.000 A 
ATOM      4  C   UNL     1       2.348   3.327  19.093  0.00  0.00    +0.000 A 
ATOM      5  C   UNL     1       2.788   4.320  18.206  0.00  0.00    +0.000 A 
ATOM      6  C   UNL     1       2.599   5.677  18.528  0.00  0.00    +0.000 A 
ENDROOT
BRANCH   1   8
ATOM      7  N   UNL     1       1.290   7.891  21.122  0.00  0.00    +0.000 NA
ATOM      8  C   UNL     1       1.956   7.477  20.091  0.00  0.00    +0.000 C 
BRANCH   7  10
ATOM      9  C   UNL     1       0.644   9.821  20.084  0.00  0.00    +0.000 C 
ATOM     10  O   UNL     1       1.371   9.289  21.184  0.00  0.00    +0.000 OA
ENDBRANCH   7  10
ENDBRANCH   1   8
BRANCH   4  11
ATOM     11  O   UNL     1       2.383   1.967  18.950  0.00  0.00    +0.000 OA
ATOM     12  C   UNL     1       3.637   1.310  18.839  0.00  0.00    +0.000 C 
ENDBRANCH   4  11
BRANCH   5  13
ATOM     13  O   UNL     1       3.321   3.964  16.987  0.00  0.00    +0.000 OA
BRANCH  13  14
ATOM     14  C   UNL     1       4.656   4.252  16.744  0.00  0.00    +0.000 A 
ATOM     15  N   UNL     1       5.083   4.403  15.486  0.00  0.00    +0.000 NA
ATOM     16  C   UNL     1       6.403   4.567  15.324  0.00  0.00    +0.000 A 
ATOM     17  C   UNL     1       7.292   4.628  16.365  0.00  0.00    +0.000 A 
ATOM     18  C   UNL     1       6.731   4.510  17.613  0.00  0.00    +0.000 A 
ATOM     19  N   UNL     1       5.422   4.319  17.834  0.00  0.00    +0.000 NA
BRANCH  16  20
ATOM     20  O   UNL     1       6.915   4.644  14.044  0.00  0.00    +0.000 OA
ATOM     21  C   UNL     1       6.249   3.765  13.135  0.00  0.00    +0.000 C 
ENDBRANCH  16  20
BRANCH  18  22
ATOM     22  O   UNL     1       7.594   4.569  18.690  0.00  0.00    +0.000 OA
ATOM     23  C   UNL     1       7.886   5.908  19.089  0.00  0.00    +0.000 C 
ENDBRANCH  18  22
ENDBRANCH  13  14
ENDBRANCH   5  13
TORSDOF 7
ENDMDL
MODEL 3
REMARK VINA RESULT:      -6.8      1.951      2.909
REMARK  Name = 
REMARK  11 active torsions:
REMARK  status: ('A' for Active; 'I' for Inactive)
REMARK    1  A    between atoms: C_1  and  O_2
REMARK    2  A    between atoms: O_2  and  N_3
REMARK    3  A    between atoms: C_4  and  C_5
REMARK    4  A    between atoms: C_8  and  O_9
REMARK    5  A    between atoms: O_9  and  C_10
REMARK    6  A    between atoms: C_11  and  O_12
REMARK    7  A    between atoms: O_12  and  C_13
REMARK    8  A    between atoms: C_15  and  O_16
REMARK    9  A    between atoms: O_16  and  C_17
REMARK   10  A    between atoms: C_19  and  O_20
REMARK   11  A    between atoms: O_20  and  C_21
REMARK                            x       y       z     vdW  Elec       q    Type
REMARK                         _______ _______ _______ _____ _____    ______ ____
ROOT
ATOM      1  C   UNL     1       2.377   6.089  20.006  0.00  0.00    +0.000 A 
ATOM      2  C   UNL     1       1.505   5.036  20.266  0.00  0.00    +0.000 A 
ATOM      3  C   UNL     1       1.968   3.722  20.174  0.00  0.00    +0.000 A 
ATOM      4  C   UNL     1       3.303   3.437  19.848  0.00  0.00    +0.000 A 
ATOM      5  C   UNL     1       4.180   4.505  19.608  0.00  0.00    +0.000 A 
ATOM      6  C   UNL     1       3.699   5.827  19.645  0.00  0.00    +0.000 A 
ENDROOT
BRANCH   1   8
ATOM      7  N   UNL     1       1.152   7.885  21.067  0.00  0.00    +0.000 NA
ATOM      8  C   UNL     1       1.937   7.491  20.116  0.00  0.00    +0.000 C 
BRANCH   7  10
ATOM      9  C   UNL     1       0.946   9.563  19.530  0.00  0.00    +0.000 C 
ATOM     10  O   UNL     1       0.910   9.258  20.918  0.00  0.00    +0.000 OA
ENDBRANCH   7  10
ENDBRANCH   1   8
BRANCH   4  11
ATOM     11  O   UNL     1       3.551   2.093  19.805  0.00  0.00    +0.000 OA
ATOM     12  C   UNL     1       3.468   1.407  18.565  0.00  0.00    +0.000 C 
ENDBRANCH   4  11
BRANCH   5  13
ATOM     13  O   UNL     1       5.486   4.252  19.249  0.00  0.00    +0.000 OA
BRANCH  13  14
ATOM     14  C   UNL     1       5.902   4.623  17.979  0.00  0.00    +0.000 A 
ATOM     15  N   UNL     1       5.609   3.846  16.931  0.00  0.00    +0.000 NA
ATOM     16  C   UNL     1       6.139   4.209  15.756  0.00  0.00    +0.000 A 
ATOM     17  C   UNL     1       6.907   5.332  15.587  0.00  0.00    +0.000 A 
ATOM     18  C   UNL     1       7.100   6.078  16.723  0.00  0.00    +0.000 A 
ATOM     19  N   UNL     1       6.614   5.750  17.931  0.00  0.00    +0.000 NA
BRANCH  16  20
ATOM     20  O   UNL     1       5.942   3.401  14.655  0.00  0.00    +0.000 OA
ATOM     21  C   UNL     1       6.391   4.011  13.442  0.00  0.00    +0.000 C 
ENDBRANCH  16  20
BRANCH  18  22
ATOM     22  O   UNL     1       7.866   7.221  16.595  0.00  0.00    +0.000 OA
ATOM     23  C   UNL     1       7.759   8.086  17.724  0.00  0.00    +0.000 C 
ENDBRANCH  18  22
ENDBRANCH  13  14
ENDBRANCH   5  13
TORSDOF 7
ENDMDL
MODEL 4
REMARK VINA RESULT:      -6.8      0.824      2.595
REMARK  Name = 
REMARK  11 active torsions:
REMARK  status: ('A' for Active; 'I' for Inactive)
REMARK    1  A    between atoms: C_1  and  O_2
REMARK    2  A    between atoms: O_2  and  N_3
REMARK    3  A    between atoms: C_4  and  C_5
REMARK    4  A    between atoms: C_8  and  O_9
REMARK    5  A    between atoms: O_9  and  C_10
REMARK    6  A    between atoms: C_11  and  O_12
REMARK    7  A    between atoms: O_12  and  C_13
REMARK    8  A    between atoms: C_15  and  O_16
REMARK    9  A    between atoms: O_16  and  C_17
REMARK   10  A    between atoms: C_19  and  O_20
REMARK   11  A    between atoms: O_20  and  C_21
REMARK                            x       y       z     vdW  Elec       q    Type
REMARK                         _______ _______ _______ _____ _____    ______ ____
ROOT
ATOM      1  C   UNL     1       2.165   6.898  19.301  0.00  0.00    +0.000 A 
ATOM      2  C   UNL     1       1.881   6.276  20.513  0.00  0.00    +0.000 A 
ATOM      3  C   UNL     1       2.114   4.907  20.653  0.00  0.00    +0.000 A 
ATOM      4  C   UNL     1       2.651   4.144  19.604  0.00  0.00    +0.000 A 
ATOM      5  C   UNL     1       2.954   4.783  18.393  0.00  0.00    +0.000 A 
ATOM      6  C   UNL     1       2.666   6.152  18.235  0.00  0.00    +0.000 A 
ENDROOT
BRANCH   1   8
ATOM      7  N   UNL     1       1.911   8.881  17.939  0.00  0.00    +0.000 NA
ATOM      8  C   UNL     1       1.959   8.346  19.117  0.00  0.00    +0.000 C 
BRANCH   7  10
ATOM      9  C   UNL     1       0.397  10.460  18.598  0.00  0.00    +0.000 C 
ATOM     10  O   UNL     1       1.704  10.261  18.074  0.00  0.00    +0.000 OA
ENDBRANCH   7  10
ENDBRANCH   1   8
BRANCH   4  11
ATOM     11  O   UNL     1       2.796   2.827  19.943  0.00  0.00    +0.000 OA
ATOM     12  C   UNL     1       4.097   2.297  20.145  0.00  0.00    +0.000 C 
ENDBRANCH   4  11
BRANCH   5  13
ATOM     13  O   UNL     1       3.446   4.051  17.336  0.00  0.00    +0.000 OA
BRANCH  13  14
ATOM     14  C   UNL     1       4.761   4.262  16.945  0.00  0.00    +0.000 A 
ATOM     15  N   UNL     1       5.079   4.237  15.647  0.00  0.00    +0.000 NA
ATOM     16  C   UNL     1       6.382   4.337  15.354  0.00  0.00    +0.000 A 
ATOM     17  C   UNL     1       7.361   4.502  16.300  0.00  0.00    +0.000 A 
ATOM     18  C   UNL     1       6.910   4.563  17.595  0.00  0.00    +0.000 A 
ATOM     19  N   UNL     1       5.620   4.445  17.949  0.00  0.00    +0.000 NA
BRANCH  16  20
ATOM     20  O   UNL     1       6.782   4.232  14.037  0.00  0.00    +0.000 OA
ATOM     21  C   UNL     1       5.743   3.738  13.188  0.00  0.00    +0.000 C 
ENDBRANCH  16  20
BRANCH  18  22
ATOM     22  O   UNL     1       7.864   4.733  18.579  0.00  0.00    +0.000 OA
ATOM     23  C   UNL     1       7.536   5.781  19.490  0.00  0.00    +0.000 C 
ENDBRANCH  18  22
ENDBRANCH  13  14
ENDBRANCH   5  13
TORSDOF 7
ENDMDL
MODEL 5
REMARK VINA RESULT:      -6.6      2.086      2.474
REMARK  Name = 
REMARK  11 active torsions:
REMARK  status: ('A' for Active; 'I' for Inactive)
REMARK    1  A    between atoms: C_1  and  O_2
REMARK    2  A    between atoms: O_2  and  N_3
REMARK    3  A    between atoms: C_4  and  C_5
REMARK    4  A    between atoms: C_8  and  O_9
REMARK    5  A    between atoms: O_9  and  C_10
REMARK    6  A    between atoms: C_11  and  O_12
REMARK    7  A    between atoms: O_12  and  C_13
REMARK    8  A    between atoms: C_15  and  O_16
REMARK    9  A    between atoms: O_16  and  C_17
REMARK   10  A    between atoms: C_19  and  O_20
REMARK   11  A    between atoms: O_20  and  C_21
REMARK                            x       y       z     vdW  Elec       q    Type
REMARK                         _______ _______ _______ _____ _____    ______ ____
ROOT
ATOM      1  C   UNL     1       2.171   5.463  19.981  0.00  0.00    +0.000 A 
ATOM      2  C   UNL     1       1.328   4.531  19.385  0.00  0.00    +0.000 A 
ATOM      3  C   UNL     1       1.878   3.431  18.724  0.00  0.00    +0.000 A 
ATOM      4  C   UNL     1       3.266   3.231  18.665  0.00  0.00    +0.000 A 
ATOM      5  C   UNL     1       4.108   4.165  19.286  0.00  0.00    +0.000 A 
ATOM      6  C   UNL     1       3.555   5.302  19.904  0.00  0.00    +0.000 A 
ENDROOT
BRANCH   1   8
ATOM      7  N   UNL     1       1.800   7.835  20.279  0.00  0.00    +0.000 NA
ATOM      8  C   UNL     1       1.633   6.626  20.710  0.00  0.00    +0.000 C 
BRANCH   7  10
ATOM      9  C   UNL     1       0.501   9.711  20.404  0.00  0.00    +0.000 C 
ATOM     10  O   UNL     1       1.183   8.725  21.169  0.00  0.00    +0.000 OA
ENDBRANCH   7  10
ENDBRANCH   1   8
BRANCH   4  11
ATOM     11  O   UNL     1       3.598   2.101  17.969  0.00  0.00    +0.000 OA
ATOM     12  C   UNL     1       3.896   0.908  18.678  0.00  0.00    +0.000 C 
ENDBRANCH   4  11
BRANCH   5  13
ATOM     13  O   UNL     1       5.474   4.012  19.212  0.00  0.00    +0.000 OA
BRANCH  13  14
ATOM     14  C   UNL     1       6.192   4.887  18.409  0.00  0.00    +0.000 A 
ATOM     15  N   UNL     1       7.022   5.772  18.970  0.00  0.00    +0.000 NA
ATOM     16  C   UNL     1       7.593   6.657  18.141  0.00  0.00    +0.000 A 
ATOM     17  C   UNL     1       7.398   6.659  16.784  0.00  0.00    +0.000 A 
ATOM     18  C   UNL     1       6.564   5.674  16.318  0.00  0.00    +0.000 A 
ATOM     19  N   UNL     1       5.946   4.777  17.102  0.00  0.00    +0.000 NA
BRANCH  16  20
ATOM     20  O   UNL     1       8.394   7.649  18.671  0.00  0.00    +0.000 OA
ATOM     21  C   UNL     1       8.229   8.901  18.001  0.00  0.00    +0.000 C 
ENDBRANCH  16  20
BRANCH  18  22
ATOM     22  O   UNL     1       6.343   5.639  14.955  0.00  0.00    +0.000 OA
ATOM     23  C   UNL     1       6.469   4.326  14.409  0.00  0.00    +0.000 C 
ENDBRANCH  18  22
ENDBRANCH  13  14
ENDBRANCH   5  13
TORSDOF 7
ENDMDL
MODEL 6
REMARK VINA RESULT:      -6.6      1.404      1.523
REMARK  Name = 
REMARK  11 active torsions:
REMARK  status: ('A' for Active; 'I' for Inactive)
REMARK    1  A    between atoms: C_1  and  O_2
REMARK    2  A    between atoms: O_2  and  N_3
REMARK    3  A    between atoms: C_4  and  C_5
REMARK    4  A    between atoms: C_8  and  O_9
REMARK    5  A    between atoms: O_9  and  C_10
REMARK    6  A    between atoms: C_11  and  O_12
REMARK    7  A    between atoms: O_12  and  C_13
REMARK    8  A    between atoms: C_15  and  O_16
REMARK    9  A    between atoms: O_16  and  C_17
REMARK   10  A    between atoms: C_19  and  O_20
REMARK   11  A    between atoms: O_20  and  C_21
REMARK                            x       y       z     vdW  Elec       q    Type
REMARK                         _______ _______ _______ _____ _____    ______ ____
ROOT
ATOM      1  C   UNL     1       2.297   6.731  19.635  0.00  0.00    +0.000 A 
ATOM      2  C   UNL     1       1.408   6.042  20.454  0.00  0.00    +0.000 A 
ATOM      3  C   UNL     1       1.699   4.731  20.834  0.00  0.00    +0.000 A 
ATOM      4  C   UNL     1       2.882   4.095  20.426  0.00  0.00    +0.000 A 
ATOM      5  C   UNL     1       3.782   4.803  19.617  0.00  0.00    +0.000 A 
ATOM      6  C   UNL     1       3.462   6.105  19.189  0.00  0.00    +0.000 A 
ENDROOT
BRANCH   1   8
ATOM      7  N   UNL     1       1.804   8.442  17.998  0.00  0.00    +0.000 NA
ATOM      8  C   UNL     1       2.043   8.125  19.231  0.00  0.00    +0.000 C 
BRANCH   7  10
ATOM      9  C   UNL     1       0.260  10.098  18.309  0.00  0.00    +0.000 C 
ATOM     10  O   UNL     1       1.600   9.827  17.916  0.00  0.00    +0.000 OA
ENDBRANCH   7  10
ENDBRANCH   1   8
BRANCH   4  11
ATOM     11  O   UNL     1       2.972   2.815  20.899  0.00  0.00    +0.000 OA
ATOM     12  C   UNL     1       1.933   2.299  21.717  0.00  0.00    +0.000 C 
ENDBRANCH   4  11
BRANCH   5  13
ATOM     13  O   UNL     1       4.932   4.190  19.172  0.00  0.00    +0.000 OA
BRANCH  13  14
ATOM     14  C   UNL     1       5.800   4.921  18.373  0.00  0.00    +0.000 A 
ATOM     15  N   UNL     1       6.716   5.712  18.940  0.00  0.00    +0.000 NA
ATOM     16  C   UNL     1       7.442   6.470  18.108  0.00  0.00    +0.000 A 
ATOM     17  C   UNL     1       7.314   6.433  16.744  0.00  0.00    +0.000 A 
ATOM     18  C   UNL     1       6.376   5.547  16.274  0.00  0.00    +0.000 A 
ATOM     19  N   UNL     1       5.604   4.781  17.061  0.00  0.00    +0.000 NA
BRANCH  16  20
ATOM     20  O   UNL     1       8.345   7.370  18.638  0.00  0.00    +0.000 OA
ATOM     21  C   UNL     1       8.258   8.658  18.024  0.00  0.00    +0.000 C 
ENDBRANCH  16  20
BRANCH  18  22
ATOM     22  O   UNL     1       6.219   5.476  14.904  0.00  0.00    +0.000 OA
ATOM     23  C   UNL     1       6.241   4.136  14.415  0.00  0.00    +0.000 C 
ENDBRANCH  18  22
ENDBRANCH  13  14
ENDBRANCH   5  13
TORSDOF 7
ENDMDL
MODEL 7
REMARK VINA RESULT:      -6.6      2.793      5.038
REMARK  Name = 
REMARK  11 active torsions:
REMARK  status: ('A' for Active; 'I' for Inactive)
REMARK    1  A    between atoms: C_1  and  O_2
REMARK    2  A    between atoms: O_2  and  N_3
REMARK    3  A    between atoms: C_4  and  C_5
REMARK    4  A    between atoms: C_8  and  O_9
REMARK    5  A    between atoms: O_9  and  C_10
REMARK    6  A    between atoms: C_11  and  O_12
REMARK    7  A    between atoms: O_12  and  C_13
REMARK    8  A    between atoms: C_15  and  O_16
REMARK    9  A    between atoms: O_16  and  C_17
REMARK   10  A    between atoms: C_19  and  O_20
REMARK   11  A    between atoms: O_20  and  C_21
REMARK                            x       y       z     vdW  Elec       q    Type
REMARK                         _______ _______ _______ _____ _____    ______ ____
ROOT
ATOM      1  C   UNL     1       3.192   5.082  17.723  0.00  0.00    +0.000 A 
ATOM      2  C   UNL     1       3.232   6.469  17.820  0.00  0.00    +0.000 A 
ATOM      3  C   UNL     1       4.385   7.152  17.430  0.00  0.00    +0.000 A 
ATOM      4  C   UNL     1       5.501   6.472  16.918  0.00  0.00    +0.000 A 
ATOM      5  C   UNL     1       5.445   5.076  16.803  0.00  0.00    +0.000 A 
ATOM      6  C   UNL     1       4.303   4.384  17.250  0.00  0.00    +0.000 A 
ENDROOT
BRANCH   1   8
ATOM      7  N   UNL     1       1.802   3.102  17.708  0.00  0.00    +0.000 NA
ATOM      8  C   UNL     1       1.987   4.322  18.100  0.00  0.00    +0.000 C 
BRANCH   7  10
ATOM      9  C   UNL     1       0.642   2.711  19.637  0.00  0.00    +0.000 C 
ATOM     10  O   UNL     1       0.581   2.639  18.218  0.00  0.00    +0.000 OA
ENDBRANCH   7  10
ENDBRANCH   1   8
BRANCH   4  11
ATOM     11  O   UNL     1       6.525   7.322  16.600  0.00  0.00    +0.000 OA
ATOM     12  C   UNL     1       7.497   7.641  17.584  0.00  0.00    +0.000 C 
ENDBRANCH   4  11
BRANCH   5  13
ATOM     13  O   UNL     1       6.540   4.381  16.339  0.00  0.00    +0.000 OA
BRANCH  13  14
ATOM     14  C   UNL     1       6.785   4.377  14.974  0.00  0.00    +0.000 A 
ATOM     15  N   UNL     1       7.664   5.241  14.455  0.00  0.00    +0.000 NA
ATOM     16  C   UNL     1       7.765   5.254  13.120  0.00  0.00    +0.000 A 
ATOM     17  C   UNL     1       7.059   4.414  12.298  0.00  0.00    +0.000 A 
ATOM     18  C   UNL     1       6.224   3.537  12.946  0.00  0.00    +0.000 A 
ATOM     19  N   UNL     1       6.064   3.496  14.278  0.00  0.00    +0.000 NA
BRANCH  16  20
ATOM     20  O   UNL     1       8.593   6.182  12.520  0.00  0.00    +0.000 OA
ATOM     21  C   UNL     1       8.107   6.605  11.245  0.00  0.00    +0.000 C 
ENDBRANCH  16  20
BRANCH  18  22
ATOM     22  O   UNL     1       5.496   2.671  12.155  0.00  0.00    +0.000 OA
ATOM     23  C   UNL     1       4.358   3.293  11.559  0.00  0.00    +0.000 C 
ENDBRANCH  18  22
ENDBRANCH  13  14
ENDBRANCH   5  13
TORSDOF 7
ENDMDL
MODEL 8
REMARK VINA RESULT:      -6.5      2.090      6.631
REMARK  Name = 
REMARK  11 active torsions:
REMARK  status: ('A' for Active; 'I' for Inactive)
REMARK    1  A    between atoms: C_1  and  O_2
REMARK    2  A    between atoms: O_2  and  N_3
REMARK    3  A    between atoms: C_4  and  C_5
REMARK    4  A    between atoms: C_8  and  O_9
REMARK    5  A    between atoms: O_9  and  C_10
REMARK    6  A    between atoms: C_11  and  O_12
REMARK    7  A    between atoms: O_12  and  C_13
REMARK    8  A    between atoms: C_15  and  O_16
REMARK    9  A    between atoms: O_16  and  C_17
REMARK   10  A    between atoms: C_19  and  O_20
REMARK   11  A    between atoms: O_20  and  C_21
REMARK                            x       y       z     vdW  Elec       q    Type
REMARK                         _______ _______ _______ _____ _____    ______ ____
ROOT
ATOM      1  C   UNL     1       5.977   4.509  15.164  0.00  0.00    +0.000 A 
ATOM      2  C   UNL     1       7.131   4.208  15.879  0.00  0.00    +0.000 A 
ATOM      3  C   UNL     1       7.260   4.656  17.195  0.00  0.00    +0.000 A 
ATOM      4  C   UNL     1       6.239   5.385  17.824  0.00  0.00    +0.000 A 
ATOM      5  C   UNL     1       5.070   5.667  17.102  0.00  0.00    +0.000 A 
ATOM      6  C   UNL     1       4.965   5.263  15.758  0.00  0.00    +0.000 A 
ENDROOT
BRANCH   1   8
ATOM      7  N   UNL     1       6.791   3.854  12.982  0.00  0.00    +0.000 NA
ATOM      8  C   UNL     1       5.788   4.035  13.781  0.00  0.00    +0.000 C 
BRANCH   7  10
ATOM      9  C   UNL     1       4.912   3.180  11.870  0.00  0.00    +0.000 C 
ATOM     10  O   UNL     1       6.311   3.401  11.744  0.00  0.00    +0.000 OA
ENDBRANCH   7  10
ENDBRANCH   1   8
BRANCH   4  11
ATOM     11  O   UNL     1       6.564   5.732  19.107  0.00  0.00    +0.000 OA
ATOM     12  C   UNL     1       7.923   5.693  19.517  0.00  0.00    +0.000 C 
ENDBRANCH   4  11
BRANCH   5  13
ATOM     13  O   UNL     1       4.069   6.413  17.683  0.00  0.00    +0.000 OA
BRANCH  13  14
ATOM     14  C   UNL     1       3.255   5.801  18.626  0.00  0.00    +0.000 A 
ATOM     15  N   UNL     1       3.079   4.475  18.590  0.00  0.00    +0.000 NA
ATOM     16  C   UNL     1       2.193   3.972  19.459  0.00  0.00    +0.000 A 
ATOM     17  C   UNL     1       1.519   4.731  20.380  0.00  0.00    +0.000 A 
ATOM     18  C   UNL     1       1.818   6.071  20.355  0.00  0.00    +0.000 A 
ATOM     19  N   UNL     1       2.677   6.635  19.492  0.00  0.00    +0.000 NA
BRANCH  16  20
ATOM     20  O   UNL     1       1.905   2.623  19.414  0.00  0.00    +0.000 OA
ATOM     21  C   UNL     1       2.921   1.868  18.749  0.00  0.00    +0.000 C 
ENDBRANCH  16  20
BRANCH  18  22
ATOM     22  O   UNL     1       1.162   6.872  21.270  0.00  0.00    +0.000 OA
ATOM     23  C   UNL     1       1.304   8.263  20.987  0.00  0.00    +0.000 C 
ENDBRANCH  18  22
ENDBRANCH  13  14
ENDBRANCH   5  13
TORSDOF 7
ENDMDL
MODEL 9
REMARK VINA RESULT:      -6.5      1.110      1.132
REMARK  Name = 
REMARK  11 active torsions:
REMARK  status: ('A' for Active; 'I' for Inactive)
REMARK    1  A    between atoms: C_1  and  O_2
REMARK    2  A    between atoms: O_2  and  N_3
REMARK    3  A    between atoms: C_4  and  C_5
REMARK    4  A    between atoms: C_8  and  O_9
REMARK    5  A    between atoms: O_9  and  C_10
REMARK    6  A    between atoms: C_11  and  O_12
REMARK    7  A    between atoms: O_12  and  C_13
REMARK    8  A    between atoms: C_15  and  O_16
REMARK    9  A    between atoms: O_16  and  C_17
REMARK   10  A    between atoms: C_19  and  O_20
REMARK   11  A    between atoms: O_20  and  C_21
REMARK                            x       y       z     vdW  Elec       q    Type
REMARK                         _______ _______ _______ _____ _____    ______ ____
ROOT
ATOM      1  C   UNL     1       2.113   6.744  19.758  0.00  0.00    +0.000 A 
ATOM      2  C   UNL     1       1.872   5.808  20.759  0.00  0.00    +0.000 A 
ATOM      3  C   UNL     1       2.115   4.456  20.508  0.00  0.00    +0.000 A 
ATOM      4  C   UNL     1       2.620   4.020  19.274  0.00  0.00    +0.000 A 
ATOM      5  C   UNL     1       2.880   4.972  18.277  0.00  0.00    +0.000 A 
ATOM      6  C   UNL     1       2.581   6.327  18.512  0.00  0.00    +0.000 A 
ENDROOT
BRANCH   1   8
ATOM      7  N   UNL     1       1.331   8.935  19.096  0.00  0.00    +0.000 NA
ATOM      8  C   UNL     1       1.895   8.183  19.987  0.00  0.00    +0.000 C 
BRANCH   7  10
ATOM      9  C   UNL     1       1.540  11.136  18.517  0.00  0.00    +0.000 C 
ATOM     10  O   UNL     1       1.255  10.246  19.589  0.00  0.00    +0.000 OA
ENDBRANCH   7  10
ENDBRANCH   1   8
BRANCH   4  11
ATOM     11  O   UNL     1       2.781   2.662  19.231  0.00  0.00    +0.000 OA
ATOM     12  C   UNL     1       1.663   1.835  18.947  0.00  0.00    +0.000 C 
ENDBRANCH   4  11
BRANCH   5  13
ATOM     13  O   UNL     1       3.340   4.566  17.044  0.00  0.00    +0.000 OA
BRANCH  13  14
ATOM     14  C   UNL     1       4.711   4.519  16.837  0.00  0.00    +0.000 A 
ATOM     15  N   UNL     1       5.539   4.475  17.887  0.00  0.00    +0.000 NA
ATOM     16  C   UNL     1       6.848   4.544  17.612  0.00  0.00    +0.000 A 
ATOM     17  C   UNL     1       7.353   4.612  16.339  0.00  0.00    +0.000 A 
ATOM     18  C   UNL     1       6.409   4.601  15.341  0.00  0.00    +0.000 A 
ATOM     19  N   UNL     1       5.086   4.558  15.558  0.00  0.00    +0.000 NA
BRANCH  16  20
ATOM     20  O   UNL     1       7.750   4.589  18.656  0.00  0.00    +0.000 OA
ATOM     21  C   UNL     1       7.784   5.867  19.295  0.00  0.00    +0.000 C 
ENDBRANCH  16  20
BRANCH  18  22
ATOM     22  O   UNL     1       6.877   4.665  14.043  0.00  0.00    +0.000 OA
ATOM     23  C   UNL     1       6.245   3.717  13.183  0.00  0.00    +0.000 C 
ENDBRANCH  18  22
ENDBRANCH  13  14
ENDBRANCH   5  13
TORSDOF 7
ENDMDL
