MODEL 1
REMARK VINA RESULT:      -7.8      0.000      0.000
REMARK  Name = 
REMARK  2 active torsions:
REMARK  status: ('A' for Active; 'I' for Inactive)
REMARK    1  A    between atoms: C_2  and  C_3
REMARK    2  A    between atoms: N_15  and  C_16
REMARK                            x       y       z     vdW  Elec       q    Type
REMARK                         _______ _______ _______ _____ _____    ______ ____
ROOT
ATOM      1  O   UNL     1       6.939   3.912  18.305  0.00  0.00    +0.000 OA
ATOM      2  C   UNL     1       6.349   4.690  17.550  0.00  0.00    +0.000 C 
ATOM      3  N   UNL     1       5.480   5.659  18.063  0.00  0.00    +0.000 N 
ATOM      4  C   UNL     1       4.778   6.703  17.300  0.00  0.00    +0.000 C 
ATOM      5  C   UNL     1       3.264   6.542  17.481  0.00  0.00    +0.000 C 
ATOM      6  N   UNL     1       2.943   6.634  18.917  0.00  0.00    +0.000 N 
ATOM      7  C   UNL     1       3.646   5.659  19.774  0.00  0.00    +0.000 C 
ATOM      8  C   UNL     1       5.171   5.684  19.499  0.00  0.00    +0.000 C 
ENDROOT
BRANCH   2   9
ATOM      9  C   UNL     1       6.550   4.620  16.080  0.00  0.00    +0.000 A 
ATOM     10  N   UNL     1       7.343   5.502  15.373  0.00  0.00    +0.000 NA
ATOM     11  C   UNL     1       7.299   5.067  14.138  0.00  0.00    +0.000 A 
ATOM     12  N   UNL     1       7.962   5.527  13.035  0.00  0.00    +0.000 NA
ATOM     13  C   UNL     1       7.671   4.935  11.919  0.00  0.00    +0.000 A 
ATOM     14  C   UNL     1       6.697   3.822  11.735  0.00  0.00    +0.000 A 
ATOM     15  C   UNL     1       6.111   3.389  12.860  0.00  0.00    +0.000 A 
ATOM     16  N   UNL     1       6.409   3.992  14.073  0.00  0.00    +0.000 N 
ATOM     17  N   UNL     1       5.946   3.698  15.305  0.00  0.00    +0.000 NA
ENDBRANCH   2   9
BRANCH   6  18
ATOM     18  C   UNL     1       2.117   7.622  19.413  0.00  0.00    +0.000 A 
ATOM     19  C   UNL     1       1.604   7.560  20.718  0.00  0.00    +0.000 A 
ATOM     20  C   UNL     1       0.724   8.536  21.210  0.00  0.00    +0.000 A 
ATOM     21  C   UNL     1       0.339   9.601  20.405  0.00  0.00    +0.000 A 
ATOM     22  C   UNL     1       0.844   9.699  19.114  0.00  0.00    +0.000 A 
ATOM     23  C   UNL     1       1.722   8.720  18.633  0.00  0.00    +0.000 A 
ENDBRANCH   6  18
TORSDOF 2
ENDMDL
MODEL 2
REMARK VINA RESULT:      -7.8      0.648      1.191
REMARK  Name = 
REMARK  2 active torsions:
REMARK  status: ('A' for Active; 'I' for Inactive)
REMARK    1  A    between atoms: C_2  and  C_3
REMARK    2  A    between atoms: N_15  and  C_16
REMARK                            x       y       z     vdW  Elec       q    Type
REMARK                         _______ _______ _______ _____ _____    ______ ____
ROOT
ATOM      1  O   UNL     1       5.940   3.624  18.528  0.00  0.00    +0.000 OA
ATOM      2  C   UNL     1       5.656   4.570  17.787  0.00  0.00    +0.000 C 
ATOM      3  N   UNL     1       4.916   5.655  18.270  0.00  0.00    +0.000 N 
ATOM      4  C   UNL     1       4.577   6.884  17.536  0.00  0.00    +0.000 C 
ATOM      5  C   UNL     1       3.053   7.034  17.459  0.00  0.00    +0.000 C 
ATOM      6  N   UNL     1       2.509   7.073  18.829  0.00  0.00    +0.000 N 
ATOM      7  C   UNL     1       2.845   5.902  19.663  0.00  0.00    +0.000 C 
ATOM      8  C   UNL     1       4.370   5.625  19.634  0.00  0.00    +0.000 C 
ENDROOT
BRANCH   2   9
ATOM      9  C   UNL     1       6.094   4.582  16.368  0.00  0.00    +0.000 A 
ATOM     10  N   UNL     1       7.045   5.449  15.868  0.00  0.00    +0.000 NA
ATOM     11  C   UNL     1       7.182   5.100  14.613  0.00  0.00    +0.000 A 
ATOM     12  N   UNL     1       8.046   5.583  13.670  0.00  0.00    +0.000 NA
ATOM     13  C   UNL     1       7.911   5.086  12.481  0.00  0.00    +0.000 A 
ATOM     14  C   UNL     1       6.917   4.060  12.056  0.00  0.00    +0.000 A 
ATOM     15  C   UNL     1       6.127   3.597  13.035  0.00  0.00    +0.000 A 
ATOM     16  N   UNL     1       6.254   4.097  14.323  0.00  0.00    +0.000 N 
ATOM     17  N   UNL     1       5.575   3.758  15.438  0.00  0.00    +0.000 NA
ENDBRANCH   2   9
BRANCH   6  18
ATOM     18  C   UNL     1       1.817   8.168  19.303  0.00  0.00    +0.000 A 
ATOM     19  C   UNL     1       1.506   9.254  18.469  0.00  0.00    +0.000 A 
ATOM     20  C   UNL     1       0.847  10.392  18.958  0.00  0.00    +0.000 A 
ATOM     21  C   UNL     1       0.480  10.468  20.296  0.00  0.00    +0.000 A 
ATOM     22  C   UNL     1       0.758   9.402  21.142  0.00  0.00    +0.000 A 
ATOM     23  C   UNL     1       1.416   8.270  20.644  0.00  0.00    +0.000 A 
ENDBRANCH   6  18
TORSDOF 2
ENDMDL
MODEL 3
REMARK VINA RESULT:      -7.6      0.611      1.608
REMARK  Name = 
REMARK  2 active torsions:
REMARK  status: ('A' for Active; 'I' for Inactive)
REMARK    1  A    between atoms: C_2  and  C_3
REMARK    2  A    between atoms: N_15  and  C_16
REMARK                            x       y       z     vdW  Elec       q    Type
REMARK                         _______ _______ _______ _____ _____    ______ ____
ROOT
ATOM      1  O   UNL     1       7.351   4.087  18.154  0.00  0.00    +0.000 OA
ATOM      2  C   UNL     1       6.639   4.758  17.401  0.00  0.00    +0.000 C 
ATOM      3  N   UNL     1       5.715   5.671  17.920  0.00  0.00    +0.000 N 
ATOM      4  C   UNL     1       4.865   6.595  17.152  0.00  0.00    +0.000 C 
ATOM      5  C   UNL     1       3.389   6.303  17.450  0.00  0.00    +0.000 C 
ATOM      6  N   UNL     1       3.156   6.455  18.898  0.00  0.00    +0.000 N 
ATOM      7  C   UNL     1       4.006   5.605  19.755  0.00  0.00    +0.000 C 
ATOM      8  C   UNL     1       5.500   5.756  19.371  0.00  0.00    +0.000 C 
ENDROOT
BRANCH   2   9
ATOM      9  C   UNL     1       6.748   4.616  15.927  0.00  0.00    +0.000 A 
ATOM     10  N   UNL     1       6.065   3.665  15.196  0.00  0.00    +0.000 NA
ATOM     11  C   UNL     1       6.387   3.911  13.951  0.00  0.00    +0.000 A 
ATOM     12  N   UNL     1       5.937   3.314  12.806  0.00  0.00    +0.000 NA
ATOM     13  C   UNL     1       6.485   3.725  11.707  0.00  0.00    +0.000 A 
ATOM     14  C   UNL     1       7.543   4.768  11.581  0.00  0.00    +0.000 A 
ATOM     15  C   UNL     1       7.911   5.345  12.733  0.00  0.00    +0.000 A 
ATOM     16  N   UNL     1       7.334   4.937  13.927  0.00  0.00    +0.000 N 
ATOM     17  N   UNL     1       7.553   5.395  15.177  0.00  0.00    +0.000 NA
ENDBRANCH   2   9
BRANCH   6  18
ATOM     18  C   UNL     1       2.271   7.389  19.395  0.00  0.00    +0.000 A 
ATOM     19  C   UNL     1       1.933   8.538  18.664  0.00  0.00    +0.000 A 
ATOM     20  C   UNL     1       1.072   9.516  19.185  0.00  0.00    +0.000 A 
ATOM     21  C   UNL     1       0.526   9.363  20.453  0.00  0.00    +0.000 A 
ATOM     22  C   UNL     1       0.827   8.227  21.195  0.00  0.00    +0.000 A 
ATOM     23  C   UNL     1       1.687   7.257  20.665  0.00  0.00    +0.000 A 
ENDBRANCH   6  18
TORSDOF 2
ENDMDL
MODEL 4
REMARK VINA RESULT:      -7.6      0.570      1.239
REMARK  Name = 
REMARK  2 active torsions:
REMARK  status: ('A' for Active; 'I' for Inactive)
REMARK    1  A    between atoms: C_2  and  C_3
REMARK    2  A    between atoms: N_15  and  C_16
REMARK                            x       y       z     vdW  Elec       q    Type
REMARK                         _______ _______ _______ _____ _____    ______ ____
ROOT
ATOM      1  O   UNL     1       7.125   3.996  18.237  0.00  0.00    +0.000 OA
ATOM      2  C   UNL     1       6.475   4.716  17.473  0.00  0.00    +0.000 C 
ATOM      3  N   UNL     1       5.587   5.671  17.979  0.00  0.00    +0.000 N 
ATOM      4  C   UNL     1       4.812   6.651  17.201  0.00  0.00    +0.000 C 
ATOM      5  C   UNL     1       3.314   6.437  17.449  0.00  0.00    +0.000 C 
ATOM      6  N   UNL     1       3.045   6.580  18.892  0.00  0.00    +0.000 N 
ATOM      7  C   UNL     1       3.820   5.673  19.760  0.00  0.00    +0.000 C 
ATOM      8  C   UNL     1       5.332   5.746  19.424  0.00  0.00    +0.000 C 
ENDROOT
BRANCH   2   9
ATOM      9  C   UNL     1       6.622   4.589  16.001  0.00  0.00    +0.000 A 
ATOM     10  N   UNL     1       5.929   3.670  15.238  0.00  0.00    +0.000 NA
ATOM     11  C   UNL     1       6.294   3.922  14.006  0.00  0.00    +0.000 A 
ATOM     12  N   UNL     1       5.858   3.354  12.841  0.00  0.00    +0.000 NA
ATOM     13  C   UNL     1       6.451   3.762  11.763  0.00  0.00    +0.000 A 
ATOM     14  C   UNL     1       7.545   4.771  11.681  0.00  0.00    +0.000 A 
ATOM     15  C   UNL     1       7.899   5.320  12.852  0.00  0.00    +0.000 A 
ATOM     16  N   UNL     1       7.275   4.916  14.023  0.00  0.00    +0.000 N 
ATOM     17  N   UNL     1       7.472   5.351  15.285  0.00  0.00    +0.000 NA
ENDBRANCH   2   9
BRANCH   6  18
ATOM     18  C   UNL     1       2.198   7.555  19.377  0.00  0.00    +0.000 A 
ATOM     19  C   UNL     1       1.642   7.466  20.663  0.00  0.00    +0.000 A 
ATOM     20  C   UNL     1       0.741   8.429  21.143  0.00  0.00    +0.000 A 
ATOM     21  C   UNL     1       0.379   9.507  20.346  0.00  0.00    +0.000 A 
ATOM     22  C   UNL     1       0.926   9.632  19.075  0.00  0.00    +0.000 A 
ATOM     23  C   UNL     1       1.825   8.666  18.606  0.00  0.00    +0.000 A 
ENDBRANCH   6  18
TORSDOF 2
ENDMDL
MODEL 5
REMARK VINA RESULT:      -6.9      1.267      1.824
REMARK  Name = 
REMARK  2 active torsions:
REMARK  status: ('A' for Active; 'I' for Inactive)
REMARK    1  A    between atoms: C_2  and  C_3
REMARK    2  A    between atoms: N_15  and  C_16
REMARK                            x       y       z     vdW  Elec       q    Type
REMARK                         _______ _______ _______ _____ _____    ______ ____
ROOT
ATOM      1  O   UNL     1       4.657   3.058  18.997  0.00  0.00    +0.000 OA
ATOM      2  C   UNL     1       4.680   4.149  18.419  0.00  0.00    +0.000 C 
ATOM      3  N   UNL     1       4.106   5.280  19.009  0.00  0.00    +0.000 N 
ATOM      4  C   UNL     1       4.130   6.654  18.483  0.00  0.00    +0.000 C 
ATOM      5  C   UNL     1       2.695   7.147  18.265  0.00  0.00    +0.000 C 
ATOM      6  N   UNL     1       1.970   7.087  19.549  0.00  0.00    +0.000 N 
ATOM      7  C   UNL     1       1.940   5.754  20.182  0.00  0.00    +0.000 C 
ATOM      8  C   UNL     1       3.367   5.155  20.273  0.00  0.00    +0.000 C 
ENDROOT
BRANCH   2   9
ATOM      9  C   UNL     1       5.319   4.288  17.085  0.00  0.00    +0.000 A 
ATOM     10  N   UNL     1       6.403   5.107  16.837  0.00  0.00    +0.000 NA
ATOM     11  C   UNL     1       6.690   4.901  15.576  0.00  0.00    +0.000 A 
ATOM     12  N   UNL     1       7.719   5.403  14.830  0.00  0.00    +0.000 NA
ATOM     13  C   UNL     1       7.717   5.072  13.577  0.00  0.00    +0.000 A 
ATOM     14  C   UNL     1       6.710   4.214  12.890  0.00  0.00    +0.000 A 
ATOM     15  C   UNL     1       5.750   3.719  13.683  0.00  0.00    +0.000 A 
ATOM     16  N   UNL     1       5.731   4.042  15.032  0.00  0.00    +0.000 N 
ATOM     17  N   UNL     1       4.871   3.642  15.991  0.00  0.00    +0.000 NA
ENDBRANCH   2   9
BRANCH   6  18
ATOM     18  C   UNL     1       1.447   8.219  20.138  0.00  0.00    +0.000 A 
ATOM     19  C   UNL     1       1.006   9.307  19.368  0.00  0.00    +0.000 A 
ATOM     20  C   UNL     1       0.519  10.481  19.964  0.00  0.00    +0.000 A 
ATOM     21  C   UNL     1       0.458  10.590  21.348  0.00  0.00    +0.000 A 
ATOM     22  C   UNL     1       0.870   9.523  22.136  0.00  0.00    +0.000 A 
ATOM     23  C   UNL     1       1.354   8.356  21.532  0.00  0.00    +0.000 A 
ENDBRANCH   6  18
TORSDOF 2
ENDMDL
MODEL 6
REMARK VINA RESULT:      -6.5      1.655      2.397
REMARK  Name = 
REMARK  2 active torsions:
REMARK  status: ('A' for Active; 'I' for Inactive)
REMARK    1  A    between atoms: C_2  and  C_3
REMARK    2  A    between atoms: N_15  and  C_16
REMARK                            x       y       z     vdW  Elec       q    Type
REMARK                         _______ _______ _______ _____ _____    ______ ____
ROOT
ATOM      1  O   UNL     1       3.790   2.972  19.575  0.00  0.00    +0.000 OA
ATOM      2  C   UNL     1       3.974   4.086  19.075  0.00  0.00    +0.000 C 
ATOM      3  N   UNL     1       3.467   5.235  19.690  0.00  0.00    +0.000 N 
ATOM      4  C   UNL     1       3.677   6.627  19.262  0.00  0.00    +0.000 C 
ATOM      5  C   UNL     1       2.324   7.282  18.958  0.00  0.00    +0.000 C 
ATOM      6  N   UNL     1       1.484   7.225  20.169  0.00  0.00    +0.000 N 
ATOM      7  C   UNL     1       1.263   5.868  20.707  0.00  0.00    +0.000 C 
ATOM      8  C   UNL     1       2.608   5.117  20.877  0.00  0.00    +0.000 C 
ENDROOT
BRANCH   2   9
ATOM      9  C   UNL     1       4.742   4.234  17.813  0.00  0.00    +0.000 A 
ATOM     10  N   UNL     1       6.047   4.680  17.758  0.00  0.00    +0.000 NA
ATOM     11  C   UNL     1       6.366   4.611  16.489  0.00  0.00    +0.000 A 
ATOM     12  N   UNL     1       7.565   4.867  15.883  0.00  0.00    +0.000 NA
ATOM     13  C   UNL     1       7.570   4.775  14.591  0.00  0.00    +0.000 A 
ATOM     14  C   UNL     1       6.410   4.426  13.723  0.00  0.00    +0.000 A 
ATOM     15  C   UNL     1       5.275   4.147  14.379  0.00  0.00    +0.000 A 
ATOM     16  N   UNL     1       5.238   4.222  15.763  0.00  0.00    +0.000 N 
ATOM     17  N   UNL     1       4.213   3.968  16.602  0.00  0.00    +0.000 NA
ENDBRANCH   2   9
BRANCH   6  18
ATOM     18  C   UNL     1       1.026   8.370  20.788  0.00  0.00    +0.000 A 
ATOM     19  C   UNL     1       0.548   8.348  22.107  0.00  0.00    +0.000 A 
ATOM     20  C   UNL     1       0.035   9.499  22.724  0.00  0.00    +0.000 A 
ATOM     21  C   UNL     1      -0.007  10.704  22.032  0.00  0.00    +0.000 A 
ATOM     22  C   UNL     1       0.475  10.762  20.730  0.00  0.00    +0.000 A 
ATOM     23  C   UNL     1       0.986   9.607  20.125  0.00  0.00    +0.000 A 
ENDBRANCH   6  18
TORSDOF 2
ENDMDL
MODEL 7
REMARK VINA RESULT:      -6.3      3.311      8.502
REMARK  Name = 
REMARK  2 active torsions:
REMARK  status: ('A' for Active; 'I' for Inactive)
REMARK    1  A    between atoms: C_2  and  C_3
REMARK    2  A    between atoms: N_15  and  C_16
REMARK                            x       y       z     vdW  Elec       q    Type
REMARK                         _______ _______ _______ _____ _____    ______ ____
ROOT
ATOM      1  O   UNL     1       1.080   7.777  21.469  0.00  0.00    +0.000 OA
ATOM      2  C   UNL     1       1.321   8.241  20.350  0.00  0.00    +0.000 C 
ATOM      3  N   UNL     1       1.932   7.452  19.369  0.00  0.00    +0.000 N 
ATOM      4  C   UNL     1       2.202   7.837  17.975  0.00  0.00    +0.000 C 
ATOM      5  C   UNL     1       3.709   7.756  17.701  0.00  0.00    +0.000 C 
ATOM      6  N   UNL     1       4.167   6.379  17.966  0.00  0.00    +0.000 N 
ATOM      7  C   UNL     1       3.889   5.885  19.329  0.00  0.00    +0.000 C 
ATOM      8  C   UNL     1       2.399   6.099  19.699  0.00  0.00    +0.000 C 
ENDROOT
BRANCH   2   9
ATOM      9  C   UNL     1       0.965   9.644  20.016  0.00  0.00    +0.000 A 
ATOM     10  N   UNL     1       0.126   9.995  18.977  0.00  0.00    +0.000 NA
ATOM     11  C   UNL     1       0.029  11.298  19.059  0.00  0.00    +0.000 A 
ATOM     12  N   UNL     1      -0.733  12.157  18.317  0.00  0.00    +0.000 NA
ATOM     13  C   UNL     1      -0.578  13.416  18.581  0.00  0.00    +0.000 A 
ATOM     14  C   UNL     1       0.341  14.000  19.599  0.00  0.00    +0.000 A 
ATOM     15  C   UNL     1       1.030  13.106  20.321  0.00  0.00    +0.000 A 
ATOM     16  N   UNL     1       0.877  11.750  20.073  0.00  0.00    +0.000 N 
ATOM     17  N   UNL     1       1.459  10.701  20.690  0.00  0.00    +0.000 NA
ENDBRANCH   2   9
BRANCH   6  18
ATOM     18  C   UNL     1       4.730   5.601  16.976  0.00  0.00    +0.000 A 
ATOM     19  C   UNL     1       4.879   4.214  17.133  0.00  0.00    +0.000 A 
ATOM     20  C   UNL     1       5.495   3.424  16.150  0.00  0.00    +0.000 A 
ATOM     21  C   UNL     1       5.974   4.007  14.983  0.00  0.00    +0.000 A 
ATOM     22  C   UNL     1       5.826   5.374  14.791  0.00  0.00    +0.000 A 
ATOM     23  C   UNL     1       5.208   6.153  15.778  0.00  0.00    +0.000 A 
ENDBRANCH   6  18
TORSDOF 2
ENDMDL
MODEL 8
REMARK VINA RESULT:      -6.2      2.365      8.235
REMARK  Name = 
REMARK  2 active torsions:
REMARK  status: ('A' for Active; 'I' for Inactive)
REMARK    1  A    between atoms: C_2  and  C_3
REMARK    2  A    between atoms: N_15  and  C_16
REMARK                            x       y       z     vdW  Elec       q    Type
REMARK                         _______ _______ _______ _____ _____    ______ ____
ROOT
ATOM      1  O   UNL     1       1.902   5.503  21.140  0.00  0.00    +0.000 OA
ATOM      2  C   UNL     1       2.088   6.302  20.218  0.00  0.00    +0.000 C 
ATOM      3  N   UNL     1       2.735   5.897  19.045  0.00  0.00    +0.000 N 
ATOM      4  C   UNL     1       2.951   6.708  17.836  0.00  0.00    +0.000 C 
ATOM      5  C   UNL     1       4.454   6.825  17.557  0.00  0.00    +0.000 C 
ATOM      6  N   UNL     1       5.015   5.470  17.390  0.00  0.00    +0.000 N 
ATOM      7  C   UNL     1       4.797   4.564  18.535  0.00  0.00    +0.000 C 
ATOM      8  C   UNL     1       3.303   4.546  18.947  0.00  0.00    +0.000 C 
ENDROOT
BRANCH   2   9
ATOM      9  C   UNL     1       1.628   7.710  20.328  0.00  0.00    +0.000 A 
ATOM     10  N   UNL     1       1.214   8.290  21.511  0.00  0.00    +0.000 NA
ATOM     11  C   UNL     1       0.951   9.533  21.194  0.00  0.00    +0.000 A 
ATOM     12  N   UNL     1       0.572  10.570  22.000  0.00  0.00    +0.000 NA
ATOM     13  C   UNL     1       0.317  11.686  21.394  0.00  0.00    +0.000 A 
ATOM     14  C   UNL     1       0.395  11.936  19.926  0.00  0.00    +0.000 A 
ATOM     15  C   UNL     1       0.813  10.893  19.195  0.00  0.00    +0.000 A 
ATOM     16  N   UNL     1       1.107   9.687  19.814  0.00  0.00    +0.000 N 
ATOM     17  N   UNL     1       1.550   8.537  19.267  0.00  0.00    +0.000 NA
ENDBRANCH   2   9
BRANCH   6  18
ATOM     18  C   UNL     1       5.613   5.074  16.212  0.00  0.00    +0.000 A 
ATOM     19  C   UNL     1       6.944   5.408  15.920  0.00  0.00    +0.000 A 
ATOM     20  C   UNL     1       7.542   5.050  14.701  0.00  0.00    +0.000 A 
ATOM     21  C   UNL     1       6.819   4.345  13.747  0.00  0.00    +0.000 A 
ATOM     22  C   UNL     1       5.504   3.985  14.015  0.00  0.00    +0.000 A 
ATOM     23  C   UNL     1       4.917   4.347  15.234  0.00  0.00    +0.000 A 
ENDBRANCH   6  18
TORSDOF 2
ENDMDL
MODEL 9
REMARK VINA RESULT:      -6.2      4.609      6.814
REMARK  Name = 
REMARK  2 active torsions:
REMARK  status: ('A' for Active; 'I' for Inactive)
REMARK    1  A    between atoms: C_2  and  C_3
REMARK    2  A    between atoms: N_15  and  C_16
REMARK                            x       y       z     vdW  Elec       q    Type
REMARK                         _______ _______ _______ _____ _____    ______ ____
ROOT
ATOM      1  O   UNL     1       2.511   9.090  17.412  0.00  0.00    +0.000 OA
ATOM      2  C   UNL     1       1.947   8.662  18.424  0.00  0.00    +0.000 C 
ATOM      3  N   UNL     1       1.096   9.486  19.168  0.00  0.00    +0.000 N 
ATOM      4  C   UNL     1       0.295   9.095  20.338  0.00  0.00    +0.000 C 
ATOM      5  C   UNL     1       0.703   9.942  21.549  0.00  0.00    +0.000 C 
ATOM      6  N   UNL     1       0.499  11.366  21.224  0.00  0.00    +0.000 N 
ATOM      7  C   UNL     1       1.223  11.839  20.028  0.00  0.00    +0.000 C 
ATOM      8  C   UNL     1       0.957  10.906  18.818  0.00  0.00    +0.000 C 
ENDROOT
BRANCH   2   9
ATOM      9  C   UNL     1       2.154   7.262  18.873  0.00  0.00    +0.000 A 
ATOM     10  N   UNL     1       2.123   6.870  20.197  0.00  0.00    +0.000 NA
ATOM     11  C   UNL     1       2.290   5.571  20.160  0.00  0.00    +0.000 A 
ATOM     12  N   UNL     1       2.271   4.667  21.185  0.00  0.00    +0.000 NA
ATOM     13  C   UNL     1       2.531   3.441  20.855  0.00  0.00    +0.000 A 
ATOM     14  C   UNL     1       2.847   2.939  19.488  0.00  0.00    +0.000 A 
ATOM     15  C   UNL     1       2.809   3.866  18.520  0.00  0.00    +0.000 A 
ATOM     16  N   UNL     1       2.519   5.185  18.837  0.00  0.00    +0.000 N 
ATOM     17  N   UNL     1       2.419   6.253  18.019  0.00  0.00    +0.000 NA
ENDBRANCH   2   9
BRANCH   6  18
ATOM     18  C   UNL     1      -0.375  12.155  21.943  0.00  0.00    +0.000 A 
ATOM     19  C   UNL     1      -0.149  13.530  22.113  0.00  0.00    +0.000 A 
ATOM     20  C   UNL     1      -1.009  14.327  22.884  0.00  0.00    +0.000 A 
ATOM     21  C   UNL     1      -2.119  13.764  23.501  0.00  0.00    +0.000 A 
ATOM     22  C   UNL     1      -2.379  12.410  23.337  0.00  0.00    +0.000 A 
ATOM     23  C   UNL     1      -1.516  11.623  22.565  0.00  0.00    +0.000 A 
ENDBRANCH   6  18
TORSDOF 2
ENDMDL
