MODEL 1
REMARK VINA RESULT:      -6.4      0.000      0.000
REMARK  Name = 
REMARK  6 active torsions:
REMARK  status: ('A' for Active; 'I' for Inactive)
REMARK    1  A    between atoms: C_1  and  C_2
REMARK    2  A    between atoms: C_2  and  C_3
REMARK    3  A    between atoms: N_5  and  C_6
REMARK    4  A    between atoms: N_5  and  C_12
REMARK    5  A    between atoms: N_15  and  C_16
REMARK    6  A    between atoms: C_16  and  C_17
REMARK                            x       y       z     vdW  Elec       q    Type
REMARK                         _______ _______ _______ _____ _____    ______ ____
ROOT
ATOM      1  C   UNL     1       4.605   6.189  18.756  0.00  0.00    +0.000 C 
ATOM      2  C   UNL     1       5.410   6.801  17.598  0.00  0.00    +0.000 C 
ATOM      3  C   UNL     1       5.135   6.023  16.319  0.00  0.00    +0.000 C 
ATOM      4  N   UNL     1       5.680   4.662  16.421  0.00  0.00    +0.000 NA
ATOM      5  C   UNL     1       5.247   3.955  17.640  0.00  0.00    +0.000 C 
ATOM      6  C   UNL     1       5.276   4.798  18.930  0.00  0.00    +0.000 C 
ENDROOT
BRANCH   1   9
ATOM      7  C   UNL     1       2.308   7.252  18.089  0.00  0.00    +0.000 C 
ATOM      8  O   UNL     1       1.093   7.142  17.897  0.00  0.00    +0.000 OA
ATOM      9  N   UNL     1       3.109   6.184  18.534  0.00  0.00    +0.000 N 
BRANCH   9  10
ATOM     10  C   UNL     1       2.387   5.014  18.920  0.00  0.00    +0.000 A 
ATOM     11  C   UNL     1       2.101   4.808  20.275  0.00  0.00    +0.000 A 
ATOM     12  C   UNL     1       1.318   3.727  20.676  0.00  0.00    +0.000 A 
ATOM     13  C   UNL     1       0.863   2.811  19.730  0.00  0.00    +0.000 A 
ATOM     14  C   UNL     1       1.191   2.978  18.383  0.00  0.00    +0.000 A 
ATOM     15  C   UNL     1       1.943   4.082  17.973  0.00  0.00    +0.000 A 
ENDBRANCH   9  10
BRANCH   7  17
ATOM     16  C   UNL     1       2.015   9.762  17.845  0.00  0.00    +0.000 C 
ATOM     17  C   UNL     1       2.977   8.585  17.807  0.00  0.00    +0.000 C 
ENDBRANCH   7  17
ENDBRANCH   1   9
BRANCH   4  18
ATOM     18  C   UNL     1       5.311   3.863  15.227  0.00  0.00    +0.000 C 
BRANCH  18  19
ATOM     19  C   UNL     1       6.220   4.140  14.058  0.00  0.00    +0.000 A 
ATOM     20  C   UNL     1       7.279   5.021  13.995  0.00  0.00    +0.000 A 
ATOM     21  C   UNL     1       7.831   5.116  12.685  0.00  0.00    +0.000 A 
ATOM     22  C   UNL     1       7.203   4.271  11.802  0.00  0.00    +0.000 A 
ATOM     23  S   UNL     1       5.959   3.365  12.550  0.00  0.00    +0.000 S 
ENDBRANCH  18  19
ENDBRANCH   4  18
TORSDOF 5
ENDMDL
MODEL 2
REMARK VINA RESULT:      -6.3      0.149      1.019
REMARK  Name = 
REMARK  6 active torsions:
REMARK  status: ('A' for Active; 'I' for Inactive)
REMARK    1  A    between atoms: C_1  and  C_2
REMARK    2  A    between atoms: C_2  and  C_3
REMARK    3  A    between atoms: N_5  and  C_6
REMARK    4  A    between atoms: N_5  and  C_12
REMARK    5  A    between atoms: N_15  and  C_16
REMARK    6  A    between atoms: C_16  and  C_17
REMARK                            x       y       z     vdW  Elec       q    Type
REMARK                         _______ _______ _______ _____ _____    ______ ____
ROOT
ATOM      1  C   UNL     1       4.592   6.075  18.800  0.00  0.00    +0.000 C 
ATOM      2  C   UNL     1       5.380   6.729  17.652  0.00  0.00    +0.000 C 
ATOM      3  C   UNL     1       5.097   5.986  16.354  0.00  0.00    +0.000 C 
ATOM      4  N   UNL     1       5.655   4.628  16.409  0.00  0.00    +0.000 NA
ATOM      5  C   UNL     1       5.241   3.881  17.610  0.00  0.00    +0.000 C 
ATOM      6  C   UNL     1       5.276   4.685  18.924  0.00  0.00    +0.000 C 
ENDROOT
BRANCH   1   9
ATOM      7  C   UNL     1       2.286   7.123  18.138  0.00  0.00    +0.000 C 
ATOM      8  O   UNL     1       1.070   7.007  17.961  0.00  0.00    +0.000 OA
ATOM      9  N   UNL     1       3.094   6.064  18.594  0.00  0.00    +0.000 N 
BRANCH   9  10
ATOM     10  C   UNL     1       2.378   4.899  19.007  0.00  0.00    +0.000 A 
ATOM     11  C   UNL     1       1.990   3.962  18.043  0.00  0.00    +0.000 A 
ATOM     12  C   UNL     1       1.373   2.771  18.422  0.00  0.00    +0.000 A 
ATOM     13  C   UNL     1       1.088   2.534  19.765  0.00  0.00    +0.000 A 
ATOM     14  C   UNL     1       1.421   3.489  20.728  0.00  0.00    +0.000 A 
ATOM     15  C   UNL     1       2.075   4.667  20.355  0.00  0.00    +0.000 A 
ENDBRANCH   9  10
BRANCH   7  17
ATOM     16  C   UNL     1       1.984   9.626  17.847  0.00  0.00    +0.000 C 
ATOM     17  C   UNL     1       2.949   8.452  17.826  0.00  0.00    +0.000 C 
ENDBRANCH   7  17
ENDBRANCH   1   9
BRANCH   4  18
ATOM     18  C   UNL     1       5.280   3.862  15.195  0.00  0.00    +0.000 C 
BRANCH  18  19
ATOM     19  C   UNL     1       6.212   4.134  14.044  0.00  0.00    +0.000 A 
ATOM     20  C   UNL     1       7.308   4.972  14.017  0.00  0.00    +0.000 A 
ATOM     21  C   UNL     1       7.877   5.082  12.715  0.00  0.00    +0.000 A 
ATOM     22  C   UNL     1       7.223   4.291  11.802  0.00  0.00    +0.000 A 
ATOM     23  S   UNL     1       5.935   3.417  12.510  0.00  0.00    +0.000 S 
ENDBRANCH  18  19
ENDBRANCH   4  18
TORSDOF 5
ENDMDL
MODEL 3
REMARK VINA RESULT:      -6.1      1.446      1.845
REMARK  Name = 
REMARK  6 active torsions:
REMARK  status: ('A' for Active; 'I' for Inactive)
REMARK    1  A    between atoms: C_1  and  C_2
REMARK    2  A    between atoms: C_2  and  C_3
REMARK    3  A    between atoms: N_5  and  C_6
REMARK    4  A    between atoms: N_5  and  C_12
REMARK    5  A    between atoms: N_15  and  C_16
REMARK    6  A    between atoms: C_16  and  C_17
REMARK                            x       y       z     vdW  Elec       q    Type
REMARK                         _______ _______ _______ _____ _____    ______ ____
ROOT
ATOM      1  C   UNL     1       5.005   6.210  18.642  0.00  0.00    +0.000 C 
ATOM      2  C   UNL     1       5.197   6.891  17.276  0.00  0.00    +0.000 C 
ATOM      3  C   UNL     1       5.073   5.854  16.168  0.00  0.00    +0.000 C 
ATOM      4  N   UNL     1       6.192   4.904  16.227  0.00  0.00    +0.000 NA
ATOM      5  C   UNL     1       6.378   4.311  17.563  0.00  0.00    +0.000 C 
ATOM      6  C   UNL     1       6.262   5.300  18.740  0.00  0.00    +0.000 C 
ENDROOT
BRANCH   1   9
ATOM      7  C   UNL     1       2.423   6.122  19.061  0.00  0.00    +0.000 C 
ATOM      8  O   UNL     1       1.373   5.477  19.139  0.00  0.00    +0.000 OA
ATOM      9  N   UNL     1       3.670   5.520  18.806  0.00  0.00    +0.000 N 
BRANCH   9  10
ATOM     10  C   UNL     1       3.660   4.091  18.823  0.00  0.00    +0.000 A 
ATOM     11  C   UNL     1       3.184   3.401  17.703  0.00  0.00    +0.000 A 
ATOM     12  C   UNL     1       3.248   2.010  17.649  0.00  0.00    +0.000 A 
ATOM     13  C   UNL     1       3.736   1.296  18.741  0.00  0.00    +0.000 A 
ATOM     14  C   UNL     1       4.160   1.973  19.886  0.00  0.00    +0.000 A 
ATOM     15  C   UNL     1       4.134   3.370  19.927  0.00  0.00    +0.000 A 
ENDBRANCH   9  10
BRANCH   7  17
ATOM     16  C   UNL     1       1.880   8.347  17.967  0.00  0.00    +0.000 C 
ATOM     17  C   UNL     1       2.370   7.630  19.215  0.00  0.00    +0.000 C 
ENDBRANCH   7  17
ENDBRANCH   1   9
BRANCH   4  18
ATOM     18  C   UNL     1       6.012   3.825  15.226  0.00  0.00    +0.000 C 
BRANCH  18  19
ATOM     19  C   UNL     1       6.640   4.170  13.902  0.00  0.00    +0.000 A 
ATOM     20  C   UNL     1       7.582   5.143  13.636  0.00  0.00    +0.000 A 
ATOM     21  C   UNL     1       7.850   5.274  12.242  0.00  0.00    +0.000 A 
ATOM     22  C   UNL     1       7.137   4.367  11.496  0.00  0.00    +0.000 A 
ATOM     23  S   UNL     1       6.155   3.360  12.469  0.00  0.00    +0.000 S 
ENDBRANCH  18  19
ENDBRANCH   4  18
TORSDOF 5
ENDMDL
MODEL 4
REMARK VINA RESULT:      -6.1      1.482      1.643
REMARK  Name = 
REMARK  6 active torsions:
REMARK  status: ('A' for Active; 'I' for Inactive)
REMARK    1  A    between atoms: C_1  and  C_2
REMARK    2  A    between atoms: C_2  and  C_3
REMARK    3  A    between atoms: N_5  and  C_6
REMARK    4  A    between atoms: N_5  and  C_12
REMARK    5  A    between atoms: N_15  and  C_16
REMARK    6  A    between atoms: C_16  and  C_17
REMARK                            x       y       z     vdW  Elec       q    Type
REMARK                         _______ _______ _______ _____ _____    ______ ____
ROOT
ATOM      1  C   UNL     1       5.013   6.205  18.663  0.00  0.00    +0.000 C 
ATOM      2  C   UNL     1       5.150   6.890  17.293  0.00  0.00    +0.000 C 
ATOM      3  C   UNL     1       5.039   5.847  16.190  0.00  0.00    +0.000 C 
ATOM      4  N   UNL     1       6.193   4.939  16.224  0.00  0.00    +0.000 NA
ATOM      5  C   UNL     1       6.430   4.356  17.557  0.00  0.00    +0.000 C 
ATOM      6  C   UNL     1       6.303   5.342  18.735  0.00  0.00    +0.000 C 
ENDROOT
BRANCH   1   9
ATOM      7  C   UNL     1       2.459   6.017  19.205  0.00  0.00    +0.000 C 
ATOM      8  O   UNL     1       1.433   5.337  19.302  0.00  0.00    +0.000 OA
ATOM      9  N   UNL     1       3.707   5.467  18.858  0.00  0.00    +0.000 N 
BRANCH   9  10
ATOM     10  C   UNL     1       3.739   4.040  18.802  0.00  0.00    +0.000 A 
ATOM     11  C   UNL     1       4.249   3.329  19.894  0.00  0.00    +0.000 A 
ATOM     12  C   UNL     1       4.208   1.936  19.913  0.00  0.00    +0.000 A 
ATOM     13  C   UNL     1       3.708   1.242  18.813  0.00  0.00    +0.000 A 
ATOM     14  C   UNL     1       3.249   1.943  17.696  0.00  0.00    +0.000 A 
ATOM     15  C   UNL     1       3.253   3.340  17.690  0.00  0.00    +0.000 A 
ENDBRANCH   9  10
BRANCH   7  17
ATOM     16  C   UNL     1       1.974   8.296  18.198  0.00  0.00    +0.000 C 
ATOM     17  C   UNL     1       2.371   7.514  19.440  0.00  0.00    +0.000 C 
ENDBRANCH   7  17
ENDBRANCH   1   9
BRANCH   4  18
ATOM     18  C   UNL     1       6.030   3.852  15.229  0.00  0.00    +0.000 C 
BRANCH  18  19
ATOM     19  C   UNL     1       6.655   4.200  13.904  0.00  0.00    +0.000 A 
ATOM     20  C   UNL     1       7.584   5.184  13.634  0.00  0.00    +0.000 A 
ATOM     21  C   UNL     1       7.852   5.312  12.240  0.00  0.00    +0.000 A 
ATOM     22  C   UNL     1       7.152   4.393  11.497  0.00  0.00    +0.000 A 
ATOM     23  S   UNL     1       6.182   3.377  12.474  0.00  0.00    +0.000 S 
ENDBRANCH  18  19
ENDBRANCH   4  18
TORSDOF 5
ENDMDL
MODEL 5
REMARK VINA RESULT:      -5.9      3.333      7.083
REMARK  Name = 
REMARK  6 active torsions:
REMARK  status: ('A' for Active; 'I' for Inactive)
REMARK    1  A    between atoms: C_1  and  C_2
REMARK    2  A    between atoms: C_2  and  C_3
REMARK    3  A    between atoms: N_5  and  C_6
REMARK    4  A    between atoms: N_5  and  C_12
REMARK    5  A    between atoms: N_15  and  C_16
REMARK    6  A    between atoms: C_16  and  C_17
REMARK                            x       y       z     vdW  Elec       q    Type
REMARK                         _______ _______ _______ _____ _____    ______ ____
ROOT
ATOM      1  C   UNL     1       5.205   4.296  17.773  0.00  0.00    +0.000 C 
ATOM      2  C   UNL     1       3.768   4.238  17.227  0.00  0.00    +0.000 C 
ATOM      3  C   UNL     1       3.218   5.651  17.091  0.00  0.00    +0.000 C 
ATOM      4  N   UNL     1       3.046   6.263  18.416  0.00  0.00    +0.000 NA
ATOM      5  C   UNL     1       4.259   6.186  19.250  0.00  0.00    +0.000 C 
ATOM      6  C   UNL     1       4.991   4.831  19.216  0.00  0.00    +0.000 C 
ENDROOT
BRANCH   1   9
ATOM      7  C   UNL     1       6.515   4.822  15.569  0.00  0.00    +0.000 C 
ATOM      8  O   UNL     1       7.281   5.546  14.926  0.00  0.00    +0.000 OA
ATOM      9  N   UNL     1       6.164   5.081  16.907  0.00  0.00    +0.000 N 
BRANCH   9  10
ATOM     10  C   UNL     1       6.897   6.141  17.524  0.00  0.00    +0.000 A 
ATOM     11  C   UNL     1       7.760   5.842  18.585  0.00  0.00    +0.000 A 
ATOM     12  C   UNL     1       8.560   6.835  19.146  0.00  0.00    +0.000 A 
ATOM     13  C   UNL     1       8.459   8.147  18.690  0.00  0.00    +0.000 A 
ATOM     14  C   UNL     1       7.560   8.465  17.670  0.00  0.00    +0.000 A 
ATOM     15  C   UNL     1       6.785   7.464  17.078  0.00  0.00    +0.000 A 
ENDBRANCH   9  10
BRANCH   7  17
ATOM     16  C   UNL     1       6.095   3.614  13.376  0.00  0.00    +0.000 C 
ATOM     17  C   UNL     1       5.900   3.615  14.883  0.00  0.00    +0.000 C 
ENDBRANCH   7  17
ENDBRANCH   1   9
BRANCH   4  18
ATOM     18  C   UNL     1       2.624   7.679  18.284  0.00  0.00    +0.000 C 
BRANCH  18  19
ATOM     19  C   UNL     1       1.802   8.136  19.459  0.00  0.00    +0.000 A 
ATOM     20  C   UNL     1       1.558   7.463  20.639  0.00  0.00    +0.000 A 
ATOM     21  C   UNL     1       0.626   8.148  21.473  0.00  0.00    +0.000 A 
ATOM     22  C   UNL     1       0.225   9.341  20.921  0.00  0.00    +0.000 A 
ATOM     23  S   UNL     1       0.971   9.637  19.411  0.00  0.00    +0.000 S 
ENDBRANCH  18  19
ENDBRANCH   4  18
TORSDOF 5
ENDMDL
MODEL 6
REMARK VINA RESULT:      -5.9      1.761      2.242
REMARK  Name = 
REMARK  6 active torsions:
REMARK  status: ('A' for Active; 'I' for Inactive)
REMARK    1  A    between atoms: C_1  and  C_2
REMARK    2  A    between atoms: C_2  and  C_3
REMARK    3  A    between atoms: N_5  and  C_6
REMARK    4  A    between atoms: N_5  and  C_12
REMARK    5  A    between atoms: N_15  and  C_16
REMARK    6  A    between atoms: C_16  and  C_17
REMARK                            x       y       z     vdW  Elec       q    Type
REMARK                         _______ _______ _______ _____ _____    ______ ____
ROOT
ATOM      1  C   UNL     1       4.841   6.158  18.823  0.00  0.00    +0.000 C 
ATOM      2  C   UNL     1       4.903   6.778  17.417  0.00  0.00    +0.000 C 
ATOM      3  C   UNL     1       4.784   5.679  16.371  0.00  0.00    +0.000 C 
ATOM      4  N   UNL     1       5.968   4.809  16.403  0.00  0.00    +0.000 NA
ATOM      5  C   UNL     1       6.274   4.300  17.752  0.00  0.00    +0.000 C 
ATOM      6  C   UNL     1       6.161   5.339  18.885  0.00  0.00    +0.000 C 
ENDROOT
BRANCH   1   9
ATOM      7  C   UNL     1       2.336   5.914  19.539  0.00  0.00    +0.000 C 
ATOM      8  O   UNL     1       1.334   5.211  19.705  0.00  0.00    +0.000 OA
ATOM      9  N   UNL     1       3.569   5.392  19.105  0.00  0.00    +0.000 N 
BRANCH   9  10
ATOM     10  C   UNL     1       3.627   3.966  19.043  0.00  0.00    +0.000 A 
ATOM     11  C   UNL     1       3.079   3.310  17.935  0.00  0.00    +0.000 A 
ATOM     12  C   UNL     1       3.203   1.929  17.798  0.00  0.00    +0.000 A 
ATOM     13  C   UNL     1       3.825   1.186  18.798  0.00  0.00    +0.000 A 
ATOM     14  C   UNL     1       4.324   1.825  19.935  0.00  0.00    +0.000 A 
ATOM     15  C   UNL     1       4.237   3.214  20.057  0.00  0.00    +0.000 A 
ENDBRANCH   9  10
BRANCH   7  17
ATOM     16  C   UNL     1       1.413   7.761  21.015  0.00  0.00    +0.000 C 
ATOM     17  C   UNL     1       2.231   7.408  19.783  0.00  0.00    +0.000 C 
ENDBRANCH   7  17
ENDBRANCH   1   9
BRANCH   4  18
ATOM     18  C   UNL     1       5.802   3.669  15.469  0.00  0.00    +0.000 C 
BRANCH  18  19
ATOM     19  C   UNL     1       6.310   3.991  14.088  0.00  0.00    +0.000 A 
ATOM     20  C   UNL     1       5.952   3.403  12.892  0.00  0.00    +0.000 A 
ATOM     21  C   UNL     1       6.736   3.874  11.799  0.00  0.00    +0.000 A 
ATOM     22  C   UNL     1       7.635   4.837  12.190  0.00  0.00    +0.000 A 
ATOM     23  S   UNL     1       7.531   5.175  13.864  0.00  0.00    +0.000 S 
ENDBRANCH  18  19
ENDBRANCH   4  18
TORSDOF 5
ENDMDL
MODEL 7
REMARK VINA RESULT:      -5.9      0.955      1.505
REMARK  Name = 
REMARK  6 active torsions:
REMARK  status: ('A' for Active; 'I' for Inactive)
REMARK    1  A    between atoms: C_1  and  C_2
REMARK    2  A    between atoms: C_2  and  C_3
REMARK    3  A    between atoms: N_5  and  C_6
REMARK    4  A    between atoms: N_5  and  C_12
REMARK    5  A    between atoms: N_15  and  C_16
REMARK    6  A    between atoms: C_16  and  C_17
REMARK                            x       y       z     vdW  Elec       q    Type
REMARK                         _______ _______ _______ _____ _____    ______ ____
ROOT
ATOM      1  C   UNL     1       4.953   6.464  18.421  0.00  0.00    +0.000 C 
ATOM      2  C   UNL     1       5.551   6.916  17.078  0.00  0.00    +0.000 C 
ATOM      3  C   UNL     1       5.329   5.832  16.032  0.00  0.00    +0.000 C 
ATOM      4  N   UNL     1       6.116   4.635  16.360  0.00  0.00    +0.000 NA
ATOM      5  C   UNL     1       5.905   4.166  17.741  0.00  0.00    +0.000 C 
ATOM      6  C   UNL     1       5.873   5.274  18.812  0.00  0.00    +0.000 C 
ENDROOT
BRANCH   1   9
ATOM      7  C   UNL     1       2.431   7.072  18.075  0.00  0.00    +0.000 C 
ATOM      8  O   UNL     1       1.246   6.730  18.017  0.00  0.00    +0.000 OA
ATOM      9  N   UNL     1       3.471   6.170  18.371  0.00  0.00    +0.000 N 
BRANCH   9  10
ATOM     10  C   UNL     1       3.040   4.870  18.775  0.00  0.00    +0.000 A 
ATOM     11  C   UNL     1       2.657   3.946  17.796  0.00  0.00    +0.000 A 
ATOM     12  C   UNL     1       2.322   2.640  18.149  0.00  0.00    +0.000 A 
ATOM     13  C   UNL     1       2.310   2.265  19.491  0.00  0.00    +0.000 A 
ATOM     14  C   UNL     1       2.635   3.197  20.479  0.00  0.00    +0.000 A 
ATOM     15  C   UNL     1       3.010   4.496  20.125  0.00  0.00    +0.000 A 
ENDBRANCH   9  10
BRANCH   7  17
ATOM     16  C   UNL     1       1.617   9.472  17.939  0.00  0.00    +0.000 C 
ATOM     17  C   UNL     1       2.791   8.518  17.788  0.00  0.00    +0.000 C 
ENDBRANCH   7  17
ENDBRANCH   1   9
BRANCH   4  18
ATOM     18  C   UNL     1       5.812   3.537  15.411  0.00  0.00    +0.000 C 
BRANCH  18  19
ATOM     19  C   UNL     1       6.242   3.868  14.006  0.00  0.00    +0.000 A 
ATOM     20  C   UNL     1       5.728   3.380  12.822  0.00  0.00    +0.000 A 
ATOM     21  C   UNL     1       6.470   3.816  11.686  0.00  0.00    +0.000 A 
ATOM     22  C   UNL     1       7.498   4.657  12.038  0.00  0.00    +0.000 A 
ATOM     23  S   UNL     1       7.564   4.924  13.727  0.00  0.00    +0.000 S 
ENDBRANCH  18  19
ENDBRANCH   4  18
TORSDOF 5
ENDMDL
MODEL 8
REMARK VINA RESULT:      -5.9      3.487      7.279
REMARK  Name = 
REMARK  6 active torsions:
REMARK  status: ('A' for Active; 'I' for Inactive)
REMARK    1  A    between atoms: C_1  and  C_2
REMARK    2  A    between atoms: C_2  and  C_3
REMARK    3  A    between atoms: N_5  and  C_6
REMARK    4  A    between atoms: N_5  and  C_12
REMARK    5  A    between atoms: N_15  and  C_16
REMARK    6  A    between atoms: C_16  and  C_17
REMARK                            x       y       z     vdW  Elec       q    Type
REMARK                         _______ _______ _______ _____ _____    ______ ____
ROOT
ATOM      1  C   UNL     1       2.735   4.308  17.955  0.00  0.00    +0.000 C 
ATOM      2  C   UNL     1       2.862   5.783  17.538  0.00  0.00    +0.000 C 
ATOM      3  C   UNL     1       3.077   6.645  18.773  0.00  0.00    +0.000 C 
ATOM      4  N   UNL     1       1.872   6.642  19.616  0.00  0.00    +0.000 NA
ATOM      5  C   UNL     1       1.390   5.284  19.927  0.00  0.00    +0.000 C 
ATOM      6  C   UNL     1       1.394   4.300  18.742  0.00  0.00    +0.000 C 
ENDROOT
BRANCH   1   9
ATOM      7  C   UNL     1       3.954   2.802  19.715  0.00  0.00    +0.000 C 
ATOM      8  O   UNL     1       4.997   2.390  20.231  0.00  0.00    +0.000 OA
ATOM      9  N   UNL     1       3.940   3.767  18.690  0.00  0.00    +0.000 N 
BRANCH   9  10
ATOM     10  C   UNL     1       5.207   4.368  18.416  0.00  0.00    +0.000 A 
ATOM     11  C   UNL     1       5.793   4.174  17.159  0.00  0.00    +0.000 A 
ATOM     12  C   UNL     1       6.981   4.822  16.826  0.00  0.00    +0.000 A 
ATOM     13  C   UNL     1       7.623   5.622  17.769  0.00  0.00    +0.000 A 
ATOM     14  C   UNL     1       7.076   5.775  19.044  0.00  0.00    +0.000 A 
ATOM     15  C   UNL     1       5.864   5.159  19.368  0.00  0.00    +0.000 A 
ENDBRANCH   9  10
BRANCH   7  17
ATOM     16  C   UNL     1       2.383   2.406  21.669  0.00  0.00    +0.000 C 
ATOM     17  C   UNL     1       2.629   2.226  20.179  0.00  0.00    +0.000 C 
ENDBRANCH   7  17
ENDBRANCH   1   9
BRANCH   4  18
ATOM     18  C   UNL     1       2.117   7.383  20.877  0.00  0.00    +0.000 C 
BRANCH  18  19
ATOM     19  C   UNL     1       1.210   8.576  21.017  0.00  0.00    +0.000 A 
ATOM     20  C   UNL     1       0.509   8.985  22.134  0.00  0.00    +0.000 A 
ATOM     21  C   UNL     1      -0.353  10.086  21.861  0.00  0.00    +0.000 A 
ATOM     22  C   UNL     1      -0.250  10.508  20.558  0.00  0.00    +0.000 A 
ATOM     23  S   UNL     1       0.884   9.586  19.669  0.00  0.00    +0.000 S 
ENDBRANCH  18  19
ENDBRANCH   4  18
TORSDOF 5
ENDMDL
MODEL 9
REMARK VINA RESULT:      -5.9      3.516      7.233
REMARK  Name = 
REMARK  6 active torsions:
REMARK  status: ('A' for Active; 'I' for Inactive)
REMARK    1  A    between atoms: C_1  and  C_2
REMARK    2  A    between atoms: C_2  and  C_3
REMARK    3  A    between atoms: N_5  and  C_6
REMARK    4  A    between atoms: N_5  and  C_12
REMARK    5  A    between atoms: N_15  and  C_16
REMARK    6  A    between atoms: C_16  and  C_17
REMARK                            x       y       z     vdW  Elec       q    Type
REMARK                         _______ _______ _______ _____ _____    ______ ____
ROOT
ATOM      1  C   UNL     1       2.734   4.380  17.952  0.00  0.00    +0.000 C 
ATOM      2  C   UNL     1       2.876   5.865  17.574  0.00  0.00    +0.000 C 
ATOM      3  C   UNL     1       3.079   6.693  18.835  0.00  0.00    +0.000 C 
ATOM      4  N   UNL     1       1.864   6.675  19.661  0.00  0.00    +0.000 NA
ATOM      5  C   UNL     1       1.368   5.313  19.931  0.00  0.00    +0.000 C 
ATOM      6  C   UNL     1       1.383   4.360  18.720  0.00  0.00    +0.000 C 
ENDROOT
BRANCH   1   9
ATOM      7  C   UNL     1       3.916   2.852  19.717  0.00  0.00    +0.000 C 
ATOM      8  O   UNL     1       4.949   2.416  20.235  0.00  0.00    +0.000 OA
ATOM      9  N   UNL     1       3.926   3.813  18.688  0.00  0.00    +0.000 N 
BRANCH   9  10
ATOM     10  C   UNL     1       5.208   4.379  18.409  0.00  0.00    +0.000 A 
ATOM     11  C   UNL     1       5.836   5.154  19.391  0.00  0.00    +0.000 A 
ATOM     12  C   UNL     1       7.126   5.643  19.188  0.00  0.00    +0.000 A 
ATOM     13  C   UNL     1       7.773   5.408  17.978  0.00  0.00    +0.000 A 
ATOM     14  C   UNL     1       7.132   4.684  16.971  0.00  0.00    +0.000 A 
ATOM     15  C   UNL     1       5.854   4.160  17.186  0.00  0.00    +0.000 A 
ENDBRANCH   9  10
BRANCH   7  17
ATOM     16  C   UNL     1       2.354   2.473  21.681  0.00  0.00    +0.000 C 
ATOM     17  C   UNL     1       2.578   2.313  20.186  0.00  0.00    +0.000 C 
ENDBRANCH   7  17
ENDBRANCH   1   9
BRANCH   4  18
ATOM     18  C   UNL     1       2.097   7.382  20.945  0.00  0.00    +0.000 C 
BRANCH  18  19
ATOM     19  C   UNL     1       1.198   8.579  21.102  0.00  0.00    +0.000 A 
ATOM     20  C   UNL     1       0.546   9.010  22.239  0.00  0.00    +0.000 A 
ATOM     21  C   UNL     1      -0.325  10.109  21.984  0.00  0.00    +0.000 A 
ATOM     22  C   UNL     1      -0.275  10.507  20.670  0.00  0.00    +0.000 A 
ATOM     23  S   UNL     1       0.819   9.567  19.751  0.00  0.00    +0.000 S 
ENDBRANCH  18  19
ENDBRANCH   4  18
TORSDOF 5
ENDMDL
