MODEL 1
REMARK VINA RESULT:      -5.7      0.000      0.000
REMARK  Name = 
REMARK  7 active torsions:
REMARK  status: ('A' for Active; 'I' for Inactive)
REMARK    1  A    between atoms: O_1  and  C_2
REMARK    2  A    between atoms: C_2  and  C_3
REMARK    3  A    between atoms: C_3  and  N_4
REMARK    4  A    between atoms: N_7  and  N_8
REMARK    5  A    between atoms: N_8  and  C_9
REMARK    6  A    between atoms: N_8  and  C_16
REMARK    7  A    between atoms: C_9  and  C_10
REMARK                            x       y       z     vdW  Elec       q    Type
REMARK                         _______ _______ _______ _____ _____    ______ ____
ROOT
ATOM      1  N   UNL     1       8.031  13.864  21.938  0.00  0.00    +0.000 NA
ENDROOT
BRANCH   1   2
ATOM      2  C   UNL     1       9.434  13.690  21.362  0.00  0.00    +0.000 C 
ATOM      3  C   UNL     1      10.237  15.016  21.211  0.00  0.00    +0.000 C 
ATOM      4  C   UNL     1      11.423  14.925  20.257  0.00  0.00    +0.000 C 
ATOM      5  C   UNL     1      11.003  14.343  18.910  0.00  0.00    +0.000 C 
ATOM      6  C   UNL     1      10.357  13.002  19.072  0.00  0.00    +0.000 A 
ATOM      7  C   UNL     1      10.501  12.021  18.078  0.00  0.00    +0.000 A 
ATOM      8  C   UNL     1       9.995  10.743  18.272  0.00  0.00    +0.000 A 
ATOM      9  C   UNL     1       9.359  10.484  19.455  0.00  0.00    +0.000 A 
ATOM     10  N   UNL     1       9.166  11.418  20.405  0.00  0.00    +0.000 NA
ATOM     11  C   UNL     1       9.614  12.689  20.207  0.00  0.00    +0.000 A 
ENDBRANCH   1   2
BRANCH   1  15
ATOM     12  N   UNL     1       6.300  11.539  24.310  0.00  0.00    +0.000 NA
ATOM     13  C   UNL     1       5.745  12.772  23.709  0.00  0.00    +0.000 C 
ATOM     14  C   UNL     1       6.565  14.060  23.989  0.00  0.00    +0.000 C 
ATOM     15  N   UNL     1       7.987  13.994  23.512  0.00  0.00    +0.000 NA
ATOM     16  C   UNL     1       8.513  12.796  24.224  0.00  0.00    +0.000 C 
ATOM     17  C   UNL     1       7.741  11.477  23.942  0.00  0.00    +0.000 C 
BRANCH  12  18
ATOM     18  C   UNL     1       6.140  11.455  25.774  0.00  0.00    +0.000 C 
BRANCH  18  19
ATOM     19  C   UNL     1       4.903  10.694  26.274  0.00  0.00    +0.000 C 
BRANCH  19  20
ATOM     20  O   UNL     1       4.425   9.847  25.230  0.00  0.00    +0.000 OA
ATOM     21  H   UNL     1       4.061   9.052  25.655  0.00  0.00    +0.000 HD
ENDBRANCH  19  20
ENDBRANCH  18  19
ENDBRANCH  12  18
ENDBRANCH   1  15
BRANCH   1  22
ATOM     22  C   UNL     1       7.391  15.116  21.358  0.00  0.00    +0.000 C 
BRANCH  22  23
ATOM     23  C   UNL     1       6.453  15.011  20.161  0.00  0.00    +0.000 A 
ATOM     24  C   UNL     1       6.984  14.974  18.876  0.00  0.00    +0.000 A 
ATOM     25  C   UNL     1       6.097  14.823  17.837  0.00  0.00    +0.000 A 
ATOM     26  N   UNL     1       4.766  14.776  18.007  0.00  0.00    +0.000 NA
ATOM     27  C   UNL     1       4.344  14.877  19.282  0.00  0.00    +0.000 A 
ATOM     28  N   UNL     1       5.113  15.002  20.377  0.00  0.00    +0.000 NA
ENDBRANCH  22  23
ENDBRANCH   1  22
TORSDOF 7
ENDMDL
MODEL 2
REMARK VINA RESULT:      -5.4      7.693      9.677
REMARK  Name = 
REMARK  7 active torsions:
REMARK  status: ('A' for Active; 'I' for Inactive)
REMARK    1  A    between atoms: O_1  and  C_2
REMARK    2  A    between atoms: C_2  and  C_3
REMARK    3  A    between atoms: C_3  and  N_4
REMARK    4  A    between atoms: N_7  and  N_8
REMARK    5  A    between atoms: N_8  and  C_9
REMARK    6  A    between atoms: N_8  and  C_16
REMARK    7  A    between atoms: C_9  and  C_10
REMARK                            x       y       z     vdW  Elec       q    Type
REMARK                         _______ _______ _______ _____ _____    ______ ____
ROOT
ATOM      1  N   UNL     1      -0.944  12.081  20.270  0.00  0.00    +0.000 NA
ENDROOT
BRANCH   1   2
ATOM      2  C   UNL     1       0.492  11.657  19.970  0.00  0.00    +0.000 C 
ATOM      3  C   UNL     1       1.122  12.353  18.727  0.00  0.00    +0.000 C 
ATOM      4  C   UNL     1       2.348  11.640  18.165  0.00  0.00    +0.000 C 
ATOM      5  C   UNL     1       2.061  10.160  17.922  0.00  0.00    +0.000 C 
ATOM      6  C   UNL     1       1.588   9.483  19.171  0.00  0.00    +0.000 A 
ATOM      7  C   UNL     1       1.897   8.134  19.406  0.00  0.00    +0.000 A 
ATOM      8  C   UNL     1       1.554   7.533  20.609  0.00  0.00    +0.000 A 
ATOM      9  C   UNL     1       0.910   8.299  21.541  0.00  0.00    +0.000 A 
ATOM     10  N   UNL     1       0.560   9.581  21.324  0.00  0.00    +0.000 NA
ATOM     11  C   UNL     1       0.847  10.168  20.129  0.00  0.00    +0.000 A 
ENDBRANCH   1   2
BRANCH   1  15
ATOM     12  N   UNL     1      -3.412  12.167  23.086  0.00  0.00    +0.000 NA
ATOM     13  C   UNL     1      -3.568  12.778  21.748  0.00  0.00    +0.000 C 
ATOM     14  C   UNL     1      -2.457  13.789  21.358  0.00  0.00    +0.000 C 
ATOM     15  N   UNL     1      -1.072  13.210  21.368  0.00  0.00    +0.000 NA
ATOM     16  C   UNL     1      -0.943  12.702  22.763  0.00  0.00    +0.000 C 
ATOM     17  C   UNL     1      -2.016  11.659  23.181  0.00  0.00    +0.000 C 
BRANCH  12  18
ATOM     18  C   UNL     1      -3.700  13.084  24.206  0.00  0.00    +0.000 C 
BRANCH  18  19
ATOM     19  C   UNL     1      -4.821  14.107  23.968  0.00  0.00    +0.000 C 
BRANCH  19  20
ATOM     20  O   UNL     1      -4.555  15.275  24.744  0.00  0.00    +0.000 OA
ATOM     21  H   UNL     1      -4.090  15.901  24.162  0.00  0.00    +0.000 HD
ENDBRANCH  19  20
ENDBRANCH  18  19
ENDBRANCH  12  18
ENDBRANCH   1  15
BRANCH   1  22
ATOM     22  C   UNL     1      -1.599  12.602  19.000  0.00  0.00    +0.000 C 
BRANCH  22  23
ATOM     23  C   UNL     1      -2.452  11.673  18.143  0.00  0.00    +0.000 A 
ATOM     24  C   UNL     1      -1.832  10.737  17.322  0.00  0.00    +0.000 A 
ATOM     25  C   UNL     1      -2.649   9.889  16.613  0.00  0.00    +0.000 A 
ATOM     26  N   UNL     1      -3.989   9.969  16.634  0.00  0.00    +0.000 NA
ATOM     27  C   UNL     1      -4.495  10.944  17.414  0.00  0.00    +0.000 A 
ATOM     28  N   UNL     1      -3.802  11.813  18.169  0.00  0.00    +0.000 NA
ENDBRANCH  22  23
ENDBRANCH   1  22
TORSDOF 7
ENDMDL
MODEL 3
REMARK VINA RESULT:      -5.4      7.709      9.647
REMARK  Name = 
REMARK  7 active torsions:
REMARK  status: ('A' for Active; 'I' for Inactive)
REMARK    1  A    between atoms: O_1  and  C_2
REMARK    2  A    between atoms: C_2  and  C_3
REMARK    3  A    between atoms: C_3  and  N_4
REMARK    4  A    between atoms: N_7  and  N_8
REMARK    5  A    between atoms: N_8  and  C_9
REMARK    6  A    between atoms: N_8  and  C_16
REMARK    7  A    between atoms: C_9  and  C_10
REMARK                            x       y       z     vdW  Elec       q    Type
REMARK                         _______ _______ _______ _____ _____    ______ ____
ROOT
ATOM      1  N   UNL     1      -0.955  12.039  20.016  0.00  0.00    +0.000 NA
ENDROOT
BRANCH   1   2
ATOM      2  C   UNL     1       0.481  11.575  19.786  0.00  0.00    +0.000 C 
ATOM      3  C   UNL     1       1.154  12.171  18.513  0.00  0.00    +0.000 C 
ATOM      4  C   UNL     1       2.382  11.402  18.036  0.00  0.00    +0.000 C 
ATOM      5  C   UNL     1       2.079   9.913  17.893  0.00  0.00    +0.000 C 
ATOM      6  C   UNL     1       1.564   9.334  19.174  0.00  0.00    +0.000 A 
ATOM      7  C   UNL     1       1.846   8.002  19.513  0.00  0.00    +0.000 A 
ATOM      8  C   UNL     1       1.462   7.494  20.747  0.00  0.00    +0.000 A 
ATOM      9  C   UNL     1       0.807   8.334  21.605  0.00  0.00    +0.000 A 
ATOM     10  N   UNL     1       0.482   9.601  21.286  0.00  0.00    +0.000 NA
ATOM     11  C   UNL     1       0.809  10.097  20.060  0.00  0.00    +0.000 A 
ENDBRANCH   1   2
BRANCH   1  15
ATOM     12  N   UNL     1      -3.286  12.178  22.944  0.00  0.00    +0.000 NA
ATOM     13  C   UNL     1      -3.541  12.689  21.579  0.00  0.00    +0.000 C 
ATOM     14  C   UNL     1      -2.511  13.731  21.069  0.00  0.00    +0.000 C 
ATOM     15  N   UNL     1      -1.096  13.231  21.044  0.00  0.00    +0.000 NA
ATOM     16  C   UNL     1      -0.871  12.824  22.460  0.00  0.00    +0.000 C 
ATOM     17  C   UNL     1      -1.861  11.754  22.999  0.00  0.00    +0.000 C 
BRANCH  12  18
ATOM     18  C   UNL     1      -3.574  13.150  24.016  0.00  0.00    +0.000 C 
BRANCH  18  19
ATOM     19  C   UNL     1      -4.872  12.921  24.804  0.00  0.00    +0.000 C 
BRANCH  19  20
ATOM     20  O   UNL     1      -5.105  11.517  24.915  0.00  0.00    +0.000 OA
ATOM     21  H   UNL     1      -6.061  11.380  24.799  0.00  0.00    +0.000 HD
ENDBRANCH  19  20
ENDBRANCH  18  19
ENDBRANCH  12  18
ENDBRANCH   1  15
BRANCH   1  22
ATOM     22  C   UNL     1      -1.561  12.498  18.699  0.00  0.00    +0.000 C 
BRANCH  22  23
ATOM     23  C   UNL     1      -2.179  11.482  17.745  0.00  0.00    +0.000 A 
ATOM     24  C   UNL     1      -2.667  10.280  18.248  0.00  0.00    +0.000 A 
ATOM     25  C   UNL     1      -3.263   9.425  17.352  0.00  0.00    +0.000 A 
ATOM     26  N   UNL     1      -3.333   9.670  16.034  0.00  0.00    +0.000 NA
ATOM     27  C   UNL     1      -2.782  10.833  15.635  0.00  0.00    +0.000 A 
ATOM     28  N   UNL     1      -2.197  11.756  16.416  0.00  0.00    +0.000 NA
ENDBRANCH  22  23
ENDBRANCH   1  22
TORSDOF 7
ENDMDL
MODEL 4
REMARK VINA RESULT:      -5.4      7.744      9.708
REMARK  Name = 
REMARK  7 active torsions:
REMARK  status: ('A' for Active; 'I' for Inactive)
REMARK    1  A    between atoms: O_1  and  C_2
REMARK    2  A    between atoms: C_2  and  C_3
REMARK    3  A    between atoms: C_3  and  N_4
REMARK    4  A    between atoms: N_7  and  N_8
REMARK    5  A    between atoms: N_8  and  C_9
REMARK    6  A    between atoms: N_8  and  C_16
REMARK    7  A    between atoms: C_9  and  C_10
REMARK                            x       y       z     vdW  Elec       q    Type
REMARK                         _______ _______ _______ _____ _____    ______ ____
ROOT
ATOM      1  N   UNL     1      -0.406  13.121  20.732  0.00  0.00    +0.000 NA
ENDROOT
BRANCH   1   2
ATOM      2  C   UNL     1      -0.531  11.652  20.335  0.00  0.00    +0.000 C 
ATOM      3  C   UNL     1       0.800  10.847  20.420  0.00  0.00    +0.000 C 
ATOM      4  C   UNL     1       0.794   9.542  19.629  0.00  0.00    +0.000 C 
ATOM      5  C   UNL     1       0.345   9.774  18.188  0.00  0.00    +0.000 C 
ATOM      6  C   UNL     1      -1.002  10.425  18.135  0.00  0.00    +0.000 A 
ATOM      7  C   UNL     1      -1.884  10.142  17.080  0.00  0.00    +0.000 A 
ATOM      8  C   UNL     1      -3.173  10.659  17.082  0.00  0.00    +0.000 A 
ATOM      9  C   UNL     1      -3.541  11.445  18.139  0.00  0.00    +0.000 A 
ATOM     10  N   UNL     1      -2.700  11.771  19.139  0.00  0.00    +0.000 NA
ATOM     11  C   UNL     1      -1.418  11.311  19.124  0.00  0.00    +0.000 A 
ENDBRANCH   1   2
BRANCH   1  15
ATOM     12  N   UNL     1      -3.252  14.203  22.913  0.00  0.00    +0.000 NA
ATOM     13  C   UNL     1      -2.258  15.076  22.250  0.00  0.00    +0.000 C 
ATOM     14  C   UNL     1      -0.779  14.772  22.610  0.00  0.00    +0.000 C 
ATOM     15  N   UNL     1      -0.348  13.370  22.291  0.00  0.00    +0.000 NA
ATOM     16  C   UNL     1      -1.323  12.547  23.062  0.00  0.00    +0.000 C 
ATOM     17  C   UNL     1      -2.815  12.796  22.705  0.00  0.00    +0.000 C 
BRANCH  12  18
ATOM     18  C   UNL     1      -3.431  14.477  24.352  0.00  0.00    +0.000 C 
BRANCH  18  19
ATOM     19  C   UNL     1      -3.701  15.940  24.731  0.00  0.00    +0.000 C 
BRANCH  19  20
ATOM     20  O   UNL     1      -5.111  16.138  24.842  0.00  0.00    +0.000 OA
ATOM     21  H   UNL     1      -5.516  15.256  24.899  0.00  0.00    +0.000 HD
ENDBRANCH  19  20
ENDBRANCH  18  19
ENDBRANCH  12  18
ENDBRANCH   1  15
BRANCH   1  22
ATOM     22  C   UNL     1       0.861  13.708  20.128  0.00  0.00    +0.000 C 
BRANCH  22  23
ATOM     23  C   UNL     1       0.802  15.019  19.352  0.00  0.00    +0.000 A 
ATOM     24  C   UNL     1      -0.432  15.534  18.970  0.00  0.00    +0.000 A 
ATOM     25  C   UNL     1      -0.430  16.746  18.322  0.00  0.00    +0.000 A 
ATOM     26  N   UNL     1       0.694  17.404  17.995  0.00  0.00    +0.000 NA
ATOM     27  C   UNL     1       1.841  16.798  18.356  0.00  0.00    +0.000 A 
ATOM     28  N   UNL     1       1.964  15.632  19.013  0.00  0.00    +0.000 NA
ENDBRANCH  22  23
ENDBRANCH   1  22
TORSDOF 7
ENDMDL
MODEL 5
REMARK VINA RESULT:      -5.4      7.611     10.171
REMARK  Name = 
REMARK  7 active torsions:
REMARK  status: ('A' for Active; 'I' for Inactive)
REMARK    1  A    between atoms: O_1  and  C_2
REMARK    2  A    between atoms: C_2  and  C_3
REMARK    3  A    between atoms: C_3  and  N_4
REMARK    4  A    between atoms: N_7  and  N_8
REMARK    5  A    between atoms: N_8  and  C_9
REMARK    6  A    between atoms: N_8  and  C_16
REMARK    7  A    between atoms: C_9  and  C_10
REMARK                            x       y       z     vdW  Elec       q    Type
REMARK                         _______ _______ _______ _____ _____    ______ ____
ROOT
ATOM      1  N   UNL     1      -1.348  13.155  21.970  0.00  0.00    +0.000 NA
ENDROOT
BRANCH   1   2
ATOM      2  C   UNL     1      -1.276  11.697  21.524  0.00  0.00    +0.000 C 
ATOM      3  C   UNL     1      -0.157  10.865  22.218  0.00  0.00    +0.000 C 
ATOM      4  C   UNL     1       0.210   9.577  21.488  0.00  0.00    +0.000 C 
ATOM      5  C   UNL     1       0.511   9.845  20.015  0.00  0.00    +0.000 C 
ATOM      6  C   UNL     1      -0.640  10.522  19.337  0.00  0.00    +0.000 A 
ATOM      7  C   UNL     1      -0.907  10.276  17.981  0.00  0.00    +0.000 A 
ATOM      8  C   UNL     1      -2.034  10.816  17.377  0.00  0.00    +0.000 A 
ATOM      9  C   UNL     1      -2.860  11.589  18.147  0.00  0.00    +0.000 A 
ATOM     10  N   UNL     1      -2.602  11.879  19.436  0.00  0.00    +0.000 NA
ATOM     11  C   UNL     1      -1.474  11.396  20.027  0.00  0.00    +0.000 A 
ENDBRANCH   1   2
BRANCH   1  15
ATOM     12  N   UNL     1      -4.952  13.997  22.545  0.00  0.00    +0.000 NA
ATOM     13  C   UNL     1      -3.825  14.949  22.417  0.00  0.00    +0.000 C 
ATOM     14  C   UNL     1      -2.672  14.735  23.433  0.00  0.00    +0.000 C 
ATOM     15  N   UNL     1      -2.047  13.372  23.371  0.00  0.00    +0.000 NA
ATOM     16  C   UNL     1      -3.210  12.470  23.602  0.00  0.00    +0.000 C 
ATOM     17  C   UNL     1      -4.372  12.627  22.583  0.00  0.00    +0.000 C 
BRANCH  12  18
ATOM     18  C   UNL     1      -5.804  14.227  23.727  0.00  0.00    +0.000 C 
BRANCH  18  19
ATOM     19  C   UNL     1      -6.719  13.062  24.135  0.00  0.00    +0.000 C 
BRANCH  19  20
ATOM     20  O   UNL     1      -7.892  13.589  24.755  0.00  0.00    +0.000 OA
ATOM     21  H   UNL     1      -7.831  13.375  25.702  0.00  0.00    +0.000 HD
ENDBRANCH  19  20
ENDBRANCH  18  19
ENDBRANCH  12  18
ENDBRANCH   1  15
BRANCH   1  22
ATOM     22  C   UNL     1       0.057  13.730  22.066  0.00  0.00    +0.000 C 
BRANCH  22  23
ATOM     23  C   UNL     1       0.822  14.097  20.800  0.00  0.00    +0.000 A 
ATOM     24  C   UNL     1       1.980  13.399  20.472  0.00  0.00    +0.000 A 
ATOM     25  C   UNL     1       2.598  13.734  19.292  0.00  0.00    +0.000 A 
ATOM     26  N   UNL     1       2.174  14.727  18.494  0.00  0.00    +0.000 NA
ATOM     27  C   UNL     1       1.079  15.383  18.924  0.00  0.00    +0.000 A 
ATOM     28  N   UNL     1       0.376  15.131  20.042  0.00  0.00    +0.000 NA
ENDBRANCH  22  23
ENDBRANCH   1  22
TORSDOF 7
ENDMDL
MODEL 6
REMARK VINA RESULT:      -5.3      7.568      9.691
REMARK  Name = 
REMARK  7 active torsions:
REMARK  status: ('A' for Active; 'I' for Inactive)
REMARK    1  A    between atoms: O_1  and  C_2
REMARK    2  A    between atoms: C_2  and  C_3
REMARK    3  A    between atoms: C_3  and  N_4
REMARK    4  A    between atoms: N_7  and  N_8
REMARK    5  A    between atoms: N_8  and  C_9
REMARK    6  A    between atoms: N_8  and  C_16
REMARK    7  A    between atoms: C_9  and  C_10
REMARK                            x       y       z     vdW  Elec       q    Type
REMARK                         _______ _______ _______ _____ _____    ______ ____
ROOT
ATOM      1  N   UNL     1      -0.433  12.932  20.815  0.00  0.00    +0.000 NA
ENDROOT
BRANCH   1   2
ATOM      2  C   UNL     1      -0.482  11.484  20.334  0.00  0.00    +0.000 C 
ATOM      3  C   UNL     1       0.890  10.749  20.363  0.00  0.00    +0.000 C 
ATOM      4  C   UNL     1       0.947   9.494  19.498  0.00  0.00    +0.000 C 
ATOM      5  C   UNL     1       0.471   9.783  18.077  0.00  0.00    +0.000 C 
ATOM      6  C   UNL     1      -0.910  10.362  18.070  0.00  0.00    +0.000 A 
ATOM      7  C   UNL     1      -1.786  10.092  17.007  0.00  0.00    +0.000 A 
ATOM      8  C   UNL     1      -3.100  10.537  17.049  0.00  0.00    +0.000 A 
ATOM      9  C   UNL     1      -3.499  11.240  18.152  0.00  0.00    +0.000 A 
ATOM     10  N   UNL     1      -2.667  11.553  19.164  0.00  0.00    +0.000 NA
ATOM     11  C   UNL     1      -1.363  11.165  19.113  0.00  0.00    +0.000 A 
ENDBRANCH   1   2
BRANCH   1  15
ATOM     12  N   UNL     1      -3.587  13.538  22.742  0.00  0.00    +0.000 NA
ATOM     13  C   UNL     1      -2.653  14.561  22.220  0.00  0.00    +0.000 C 
ATOM     14  C   UNL     1      -1.189  14.420  22.714  0.00  0.00    +0.000 C 
ATOM     15  N   UNL     1      -0.555  13.101  22.382  0.00  0.00    +0.000 NA
ATOM     16  C   UNL     1      -1.486  12.125  23.015  0.00  0.00    +0.000 C 
ATOM     17  C   UNL     1      -2.957  12.208  22.520  0.00  0.00    +0.000 C 
BRANCH  12  18
ATOM     18  C   UNL     1      -3.935  13.709  24.166  0.00  0.00    +0.000 C 
BRANCH  18  19
ATOM     19  C   UNL     1      -4.773  12.587  24.795  0.00  0.00    +0.000 C 
BRANCH  19  20
ATOM     20  O   UNL     1      -6.136  13.006  24.861  0.00  0.00    +0.000 OA
ATOM     21  H   UNL     1      -6.185  13.876  24.428  0.00  0.00    +0.000 HD
ENDBRANCH  19  20
ENDBRANCH  18  19
ENDBRANCH  12  18
ENDBRANCH   1  15
BRANCH   1  22
ATOM     22  C   UNL     1       0.881  13.568  20.388  0.00  0.00    +0.000 C 
BRANCH  22  23
ATOM     23  C   UNL     1       0.878  14.837  19.543  0.00  0.00    +0.000 A 
ATOM     24  C   UNL     1      -0.334  15.413  19.178  0.00  0.00    +0.000 A 
ATOM     25  C   UNL     1      -0.278  16.586  18.464  0.00  0.00    +0.000 A 
ATOM     26  N   UNL     1       0.872  17.148  18.060  0.00  0.00    +0.000 NA
ATOM     27  C   UNL     1       1.991  16.486  18.413  0.00  0.00    +0.000 A 
ATOM     28  N   UNL     1       2.063  15.351  19.129  0.00  0.00    +0.000 NA
ENDBRANCH  22  23
ENDBRANCH   1  22
TORSDOF 7
ENDMDL
MODEL 7
REMARK VINA RESULT:      -5.2      6.798      9.354
REMARK  Name = 
REMARK  7 active torsions:
REMARK  status: ('A' for Active; 'I' for Inactive)
REMARK    1  A    between atoms: O_1  and  C_2
REMARK    2  A    between atoms: C_2  and  C_3
REMARK    3  A    between atoms: C_3  and  N_4
REMARK    4  A    between atoms: N_7  and  N_8
REMARK    5  A    between atoms: N_8  and  C_9
REMARK    6  A    between atoms: N_8  and  C_16
REMARK    7  A    between atoms: C_9  and  C_10
REMARK                            x       y       z     vdW  Elec       q    Type
REMARK                         _______ _______ _______ _____ _____    ______ ____
ROOT
ATOM      1  N   UNL     1      -0.037  12.168  19.628  0.00  0.00    +0.000 NA
ENDROOT
BRANCH   1   2
ATOM      2  C   UNL     1      -0.227  10.724  20.088  0.00  0.00    +0.000 C 
ATOM      3  C   UNL     1      -0.599  10.571  21.592  0.00  0.00    +0.000 C 
ATOM      4  C   UNL     1      -0.361   9.174  22.158  0.00  0.00    +0.000 C 
ATOM      5  C   UNL     1       1.056   8.693  21.856  0.00  0.00    +0.000 C 
ATOM      6  C   UNL     1       1.341   8.719  20.386  0.00  0.00    +0.000 A 
ATOM      7  C   UNL     1       2.202   7.769  19.815  0.00  0.00    +0.000 A 
ATOM      8  C   UNL     1       2.384   7.722  18.439  0.00  0.00    +0.000 A 
ATOM      9  C   UNL     1       1.701   8.628  17.676  0.00  0.00    +0.000 A 
ATOM     10  N   UNL     1       0.906   9.579  18.202  0.00  0.00    +0.000 NA
ATOM     11  C   UNL     1       0.756   9.667  19.553  0.00  0.00    +0.000 A 
ENDBRANCH   1   2
BRANCH   1  15
ATOM     12  N   UNL     1       1.430  15.487  20.557  0.00  0.00    +0.000 NA
ATOM     13  C   UNL     1       0.895  15.089  19.235  0.00  0.00    +0.000 C 
ATOM     14  C   UNL     1       1.566  13.837  18.610  0.00  0.00    +0.000 C 
ATOM     15  N   UNL     1       1.472  12.604  19.461  0.00  0.00    +0.000 NA
ATOM     16  C   UNL     1       2.111  13.039  20.735  0.00  0.00    +0.000 C 
ATOM     17  C   UNL     1       1.446  14.269  21.413  0.00  0.00    +0.000 C 
BRANCH  12  18
ATOM     18  C   UNL     1       2.773  16.096  20.506  0.00  0.00    +0.000 C 
BRANCH  18  19
ATOM     19  C   UNL     1       3.022  17.082  19.356  0.00  0.00    +0.000 C 
BRANCH  19  20
ATOM     20  O   UNL     1       2.434  18.340  19.688  0.00  0.00    +0.000 OA
ATOM     21  H   UNL     1       1.483  18.267  19.495  0.00  0.00    +0.000 HD
ENDBRANCH  19  20
ENDBRANCH  18  19
ENDBRANCH  12  18
ENDBRANCH   1  15
BRANCH   1  22
ATOM     22  C   UNL     1      -0.724  12.371  18.287  0.00  0.00    +0.000 C 
BRANCH  22  23
ATOM     23  C   UNL     1      -2.156  11.893  18.079  0.00  0.00    +0.000 A 
ATOM     24  C   UNL     1      -2.479  11.174  16.933  0.00  0.00    +0.000 A 
ATOM     25  C   UNL     1      -3.771  10.720  16.824  0.00  0.00    +0.000 A 
ATOM     26  N   UNL     1      -4.726  10.991  17.728  0.00  0.00    +0.000 NA
ATOM     27  C   UNL     1      -4.332  11.742  18.774  0.00  0.00    +0.000 A 
ATOM     28  N   UNL     1      -3.096  12.220  19.002  0.00  0.00    +0.000 NA
ENDBRANCH  22  23
ENDBRANCH   1  22
TORSDOF 7
ENDMDL
MODEL 8
REMARK VINA RESULT:      -5.2      7.524      9.520
REMARK  Name = 
REMARK  7 active torsions:
REMARK  status: ('A' for Active; 'I' for Inactive)
REMARK    1  A    between atoms: O_1  and  C_2
REMARK    2  A    between atoms: C_2  and  C_3
REMARK    3  A    between atoms: C_3  and  N_4
REMARK    4  A    between atoms: N_7  and  N_8
REMARK    5  A    between atoms: N_8  and  C_9
REMARK    6  A    between atoms: N_8  and  C_16
REMARK    7  A    between atoms: C_9  and  C_10
REMARK                            x       y       z     vdW  Elec       q    Type
REMARK                         _______ _______ _______ _____ _____    ______ ____
ROOT
ATOM      1  N   UNL     1      -1.019  12.497  20.564  0.00  0.00    +0.000 NA
ENDROOT
BRANCH   1   2
ATOM      2  C   UNL     1       0.483  12.385  20.313  0.00  0.00    +0.000 C 
ATOM      3  C   UNL     1       1.167  13.721  19.897  0.00  0.00    +0.000 C 
ATOM      4  C   UNL     1       2.528  13.547  19.230  0.00  0.00    +0.000 C 
ATOM      5  C   UNL     1       2.452  12.548  18.078  0.00  0.00    +0.000 C 
ATOM      6  C   UNL     1       1.920  11.225  18.536  0.00  0.00    +0.000 A 
ATOM      7  C   UNL     1       2.360  10.037  17.932  0.00  0.00    +0.000 A 
ATOM      8  C   UNL     1       1.951   8.805  18.424  0.00  0.00    +0.000 A 
ATOM      9  C   UNL     1       1.114   8.797  19.505  0.00  0.00    +0.000 A 
ATOM     10  N   UNL     1       0.640   9.922  20.074  0.00  0.00    +0.000 NA
ATOM     11  C   UNL     1       0.993  11.137  19.571  0.00  0.00    +0.000 A 
ENDBRANCH   1   2
BRANCH   1  15
ATOM     12  N   UNL     1      -3.661  12.117  23.192  0.00  0.00    +0.000 NA
ATOM     13  C   UNL     1      -3.823  12.714  21.847  0.00  0.00    +0.000 C 
ATOM     14  C   UNL     1      -2.876  13.905  21.544  0.00  0.00    +0.000 C 
ATOM     15  N   UNL     1      -1.417  13.570  21.654  0.00  0.00    +0.000 NA
ATOM     16  C   UNL     1      -1.303  13.069  23.053  0.00  0.00    +0.000 C 
ATOM     17  C   UNL     1      -2.210  11.852  23.387  0.00  0.00    +0.000 C 
BRANCH  12  18
ATOM     18  C   UNL     1      -4.182  12.953  24.290  0.00  0.00    +0.000 C 
BRANCH  18  19
ATOM     19  C   UNL     1      -5.598  13.514  24.097  0.00  0.00    +0.000 C 
BRANCH  19  20
ATOM     20  O   UNL     1      -5.572  14.926  24.311  0.00  0.00    +0.000 OA
ATOM     21  H   UNL     1      -5.121  15.073  25.161  0.00  0.00    +0.000 HD
ENDBRANCH  19  20
ENDBRANCH  18  19
ENDBRANCH  12  18
ENDBRANCH   1  15
BRANCH   1  22
ATOM     22  C   UNL     1      -1.727  12.872  19.272  0.00  0.00    +0.000 C 
BRANCH  22  23
ATOM     23  C   UNL     1      -2.422  11.800  18.441  0.00  0.00    +0.000 A 
ATOM     24  C   UNL     1      -1.670  11.007  17.580  0.00  0.00    +0.000 A 
ATOM     25  C   UNL     1      -2.339  10.020  16.897  0.00  0.00    +0.000 A 
ATOM     26  N   UNL     1      -3.666   9.838  16.978  0.00  0.00    +0.000 NA
ATOM     27  C   UNL     1      -4.316  10.691  17.792  0.00  0.00    +0.000 A 
ATOM     28  N   UNL     1      -3.771  11.674  18.528  0.00  0.00    +0.000 NA
ENDBRANCH  22  23
ENDBRANCH   1  22
TORSDOF 7
ENDMDL
MODEL 9
REMARK VINA RESULT:      -5.2      1.183      1.454
REMARK  Name = 
REMARK  7 active torsions:
REMARK  status: ('A' for Active; 'I' for Inactive)
REMARK    1  A    between atoms: O_1  and  C_2
REMARK    2  A    between atoms: C_2  and  C_3
REMARK    3  A    between atoms: C_3  and  N_4
REMARK    4  A    between atoms: N_7  and  N_8
REMARK    5  A    between atoms: N_8  and  C_9
REMARK    6  A    between atoms: N_8  and  C_16
REMARK    7  A    between atoms: C_9  and  C_10
REMARK                            x       y       z     vdW  Elec       q    Type
REMARK                         _______ _______ _______ _____ _____    ______ ____
ROOT
ATOM      1  N   UNL     1       7.844  14.341  21.274  0.00  0.00    +0.000 NA
ENDROOT
BRANCH   1   2
ATOM      2  C   UNL     1       9.162  14.535  20.529  0.00  0.00    +0.000 C 
ATOM      3  C   UNL     1       9.443  16.003  20.090  0.00  0.00    +0.000 C 
ATOM      4  C   UNL     1      10.497  16.139  18.995  0.00  0.00    +0.000 C 
ATOM      5  C   UNL     1      10.182  15.227  17.812  0.00  0.00    +0.000 C 
ATOM      6  C   UNL     1      10.055  13.798  18.243  0.00  0.00    +0.000 A 
ATOM      7  C   UNL     1      10.436  12.761  17.377  0.00  0.00    +0.000 A 
ATOM      8  C   UNL     1      10.421  11.442  17.810  0.00  0.00    +0.000 A 
ATOM      9  C   UNL     1      10.023  11.199  19.096  0.00  0.00    +0.000 A 
ATOM     10  N   UNL     1       9.608  12.170  19.931  0.00  0.00    +0.000 NA
ATOM     11  C   UNL     1       9.571  13.463  19.503  0.00  0.00    +0.000 A 
ENDBRANCH   1   2
BRANCH   1  15
ATOM     12  N   UNL     1       6.670  11.677  23.631  0.00  0.00    +0.000 NA
ATOM     13  C   UNL     1       5.918  12.877  23.198  0.00  0.00    +0.000 C 
ATOM     14  C   UNL     1       6.625  14.228  23.486  0.00  0.00    +0.000 C 
ATOM     15  N   UNL     1       7.978  14.358  22.848  0.00  0.00    +0.000 NA
ATOM     16  C   UNL     1       8.710  13.183  23.397  0.00  0.00    +0.000 C 
ATOM     17  C   UNL     1       8.054  11.806  23.099  0.00  0.00    +0.000 C 
BRANCH  12  18
ATOM     18  C   UNL     1       6.698  11.477  25.092  0.00  0.00    +0.000 C 
BRANCH  18  19
ATOM     19  C   UNL     1       5.380  11.024  25.736  0.00  0.00    +0.000 C 
BRANCH  19  20
ATOM     20  O   UNL     1       4.744  12.153  26.336  0.00  0.00    +0.000 OA
ATOM     21  H   UNL     1       4.541  11.907  27.255  0.00  0.00    +0.000 HD
ENDBRANCH  19  20
ENDBRANCH  18  19
ENDBRANCH  12  18
ENDBRANCH   1  15
BRANCH   1  22
ATOM     22  C   UNL     1       6.870  15.442  20.885  0.00  0.00    +0.000 C 
BRANCH  22  23
ATOM     23  C   UNL     1       5.743  15.154  19.899  0.00  0.00    +0.000 A 
ATOM     24  C   UNL     1       4.458  14.921  20.378  0.00  0.00    +0.000 A 
ATOM     25  C   UNL     1       3.471  14.722  19.443  0.00  0.00    +0.000 A 
ATOM     26  N   UNL     1       3.705  14.682  18.121  0.00  0.00    +0.000 NA
ATOM     27  C   UNL     1       4.989  14.861  17.758  0.00  0.00    +0.000 A 
ATOM     28  N   UNL     1       6.032  15.088  18.575  0.00  0.00    +0.000 NA
ENDBRANCH  22  23
ENDBRANCH   1  22
TORSDOF 7
ENDMDL
