MODEL 1
REMARK VINA RESULT:      -7.7      0.000      0.000
REMARK  Name = 
REMARK  5 active torsions:
REMARK  status: ('A' for Active; 'I' for Inactive)
REMARK    1  A    between atoms: C_2  and  C_3
REMARK    2  A    between atoms: N_9  and  C_10
REMARK    3  A    between atoms: N_9  and  C_17
REMARK    4  A    between atoms: C_10  and  C_11
REMARK    5  A    between atoms: C_17  and  C_18
REMARK                            x       y       z     vdW  Elec       q    Type
REMARK                         _______ _______ _______ _____ _____    ______ ____
ROOT
ATOM      1  O   UNL     1       2.211   8.951  17.154  0.00  0.00    +0.000 OA
ATOM      2  C   UNL     1       2.310   8.364  18.231  0.00  0.00    +0.000 C 
ATOM      3  N   UNL     1       3.133   7.227  18.356  0.00  0.00    +0.000 N 
ENDROOT
BRANCH   2   4
ATOM      4  C   UNL     1       1.504   8.835  19.334  0.00  0.00    +0.000 A 
ATOM      5  C   UNL     1       1.513   8.614  20.701  0.00  0.00    +0.000 A 
ATOM      6  C   UNL     1       0.451   9.357  21.256  0.00  0.00    +0.000 A 
ATOM      7 BR   UNL     1      -0.004   9.379  23.068  0.00  0.00    +0.000 Br
ATOM      8  C   UNL     1      -0.176  10.050  20.247  0.00  0.00    +0.000 A 
ATOM      9  N   UNL     1       0.495   9.754  19.095  0.00  0.00    +0.000 N 
ATOM     10  H   UNL     1       0.304  10.139  18.174  0.00  0.00    +0.000 HD
ENDBRANCH   2   4
BRANCH   3  11
ATOM     11  C   UNL     1       3.932   6.955  17.149  0.00  0.00    +0.000 C 
BRANCH  11  12
ATOM     12  C   UNL     1       5.181   6.116  17.290  0.00  0.00    +0.000 A 
ATOM     13  C   UNL     1       5.374   5.054  16.389  0.00  0.00    +0.000 A 
ATOM     14  C   UNL     1       6.532   4.276  16.428  0.00  0.00    +0.000 A 
ATOM     15  C   UNL     1       7.531   4.563  17.354  0.00  0.00    +0.000 A 
ATOM     16  C   UNL     1       7.374   5.647  18.220  0.00  0.00    +0.000 A 
ATOM     17  C   UNL     1       6.215   6.431  18.180  0.00  0.00    +0.000 A 
ENDBRANCH  11  12
ENDBRANCH   3  11
BRANCH   3  18
ATOM     18  C   UNL     1       2.922   6.122  19.337  0.00  0.00    +0.000 C 
BRANCH  18  19
ATOM     19  C   UNL     1       1.719   5.176  19.056  0.00  0.00    +0.000 C 
ATOM     20  C   UNL     1       1.981   4.181  17.924  0.00  0.00    +0.000 C 
ATOM     21  C   UNL     1       2.914   3.060  18.354  0.00  0.00    +0.000 C 
ATOM     22  C   UNL     1       2.340   2.272  19.523  0.00  0.00    +0.000 C 
ATOM     23  C   UNL     1       1.869   3.142  20.687  0.00  0.00    +0.000 C 
ATOM     24  C   UNL     1       1.161   4.436  20.286  0.00  0.00    +0.000 C 
ENDBRANCH  18  19
ENDBRANCH   3  18
TORSDOF 5
ENDMDL
MODEL 2
REMARK VINA RESULT:      -7.6      0.686      1.236
REMARK  Name = 
REMARK  5 active torsions:
REMARK  status: ('A' for Active; 'I' for Inactive)
REMARK    1  A    between atoms: C_2  and  C_3
REMARK    2  A    between atoms: N_9  and  C_10
REMARK    3  A    between atoms: N_9  and  C_17
REMARK    4  A    between atoms: C_10  and  C_11
REMARK    5  A    between atoms: C_17  and  C_18
REMARK                            x       y       z     vdW  Elec       q    Type
REMARK                         _______ _______ _______ _____ _____    ______ ____
ROOT
ATOM      1  O   UNL     1       2.704   9.461  17.237  0.00  0.00    +0.000 OA
ATOM      2  C   UNL     1       2.431   8.594  18.064  0.00  0.00    +0.000 C 
ATOM      3  N   UNL     1       2.949   7.290  17.936  0.00  0.00    +0.000 N 
ENDROOT
BRANCH   2   4
ATOM      4  C   UNL     1       1.508   8.935  19.123  0.00  0.00    +0.000 A 
ATOM      5  C   UNL     1       1.484   8.720  20.491  0.00  0.00    +0.000 A 
ATOM      6  C   UNL     1       0.294   9.292  20.987  0.00  0.00    +0.000 A 
ATOM      7 BR   UNL     1      -0.248   9.246  22.774  0.00  0.00    +0.000 Br
ATOM      8  C   UNL     1      -0.382   9.878  19.943  0.00  0.00    +0.000 A 
ATOM      9  N   UNL     1       0.383   9.688  18.827  0.00  0.00    +0.000 N 
ATOM     10  H   UNL     1       0.181  10.038  17.895  0.00  0.00    +0.000 HD
ENDBRANCH   2   4
BRANCH   3  11
ATOM     11  C   UNL     1       3.929   7.161  16.843  0.00  0.00    +0.000 C 
BRANCH  11  12
ATOM     12  C   UNL     1       5.126   6.264  17.056  0.00  0.00    +0.000 A 
ATOM     13  C   UNL     1       5.240   5.109  16.263  0.00  0.00    +0.000 A 
ATOM     14  C   UNL     1       6.350   4.268  16.368  0.00  0.00    +0.000 A 
ATOM     15  C   UNL     1       7.378   4.582  17.253  0.00  0.00    +0.000 A 
ATOM     16  C   UNL     1       7.300   5.753  18.010  0.00  0.00    +0.000 A 
ATOM     17  C   UNL     1       6.190   6.600  17.902  0.00  0.00    +0.000 A 
ENDBRANCH  11  12
ENDBRANCH   3  11
BRANCH   3  18
ATOM     18  C   UNL     1       2.294   6.053  18.456  0.00  0.00    +0.000 C 
BRANCH  18  19
ATOM     19  C   UNL     1       2.901   5.450  19.755  0.00  0.00    +0.000 C 
ATOM     20  C   UNL     1       1.855   5.141  20.827  0.00  0.00    +0.000 C 
ATOM     21  C   UNL     1       1.042   3.901  20.491  0.00  0.00    +0.000 C 
ATOM     22  C   UNL     1       1.928   2.671  20.358  0.00  0.00    +0.000 C 
ATOM     23  C   UNL     1       3.132   2.867  19.438  0.00  0.00    +0.000 C 
ATOM     24  C   UNL     1       3.818   4.229  19.550  0.00  0.00    +0.000 C 
ENDBRANCH  18  19
ENDBRANCH   3  18
TORSDOF 5
ENDMDL
MODEL 3
REMARK VINA RESULT:      -7.5      0.822      1.404
REMARK  Name = 
REMARK  5 active torsions:
REMARK  status: ('A' for Active; 'I' for Inactive)
REMARK    1  A    between atoms: C_2  and  C_3
REMARK    2  A    between atoms: N_9  and  C_10
REMARK    3  A    between atoms: N_9  and  C_17
REMARK    4  A    between atoms: C_10  and  C_11
REMARK    5  A    between atoms: C_17  and  C_18
REMARK                            x       y       z     vdW  Elec       q    Type
REMARK                         _______ _______ _______ _____ _____    ______ ____
ROOT
ATOM      1  O   UNL     1       2.142   8.972  17.442  0.00  0.00    +0.000 OA
ATOM      2  C   UNL     1       2.319   8.255  18.426  0.00  0.00    +0.000 C 
ATOM      3  N   UNL     1       3.075   7.070  18.325  0.00  0.00    +0.000 N 
ENDROOT
BRANCH   2   4
ATOM      4  C   UNL     1       1.666   8.628  19.660  0.00  0.00    +0.000 A 
ATOM      5  C   UNL     1       0.697   9.558  19.997  0.00  0.00    +0.000 A 
ATOM      6  C   UNL     1       0.480   9.456  21.387  0.00  0.00    +0.000 A 
ATOM      7 BR   UNL     1      -0.707  10.518  22.363  0.00  0.00    +0.000 Br
ATOM      8  C   UNL     1       1.279   8.454  21.885  0.00  0.00    +0.000 A 
ATOM      9  N   UNL     1       1.964   7.937  20.823  0.00  0.00    +0.000 N 
ATOM     10  H   UNL     1       2.609   7.152  20.850  0.00  0.00    +0.000 HD
ENDBRANCH   2   4
BRANCH   3  11
ATOM     11  C   UNL     1       3.721   6.906  17.011  0.00  0.00    +0.000 C 
BRANCH  11  12
ATOM     12  C   UNL     1       4.990   6.090  16.933  0.00  0.00    +0.000 A 
ATOM     13  C   UNL     1       6.111   6.532  17.657  0.00  0.00    +0.000 A 
ATOM     14  C   UNL     1       7.296   5.795  17.674  0.00  0.00    +0.000 A 
ATOM     15  C   UNL     1       7.373   4.586  16.986  0.00  0.00    +0.000 A 
ATOM     16  C   UNL     1       6.250   4.111  16.306  0.00  0.00    +0.000 A 
ATOM     17  C   UNL     1       5.059   4.847  16.291  0.00  0.00    +0.000 A 
ENDBRANCH  11  12
ENDBRANCH   3  11
BRANCH   3  18
ATOM     18  C   UNL     1       2.899   5.866  19.189  0.00  0.00    +0.000 C 
BRANCH  18  19
ATOM     19  C   UNL     1       1.588   5.055  18.977  0.00  0.00    +0.000 C 
ATOM     20  C   UNL     1       1.647   4.111  17.776  0.00  0.00    +0.000 C 
ATOM     21  C   UNL     1       2.500   2.884  18.054  0.00  0.00    +0.000 C 
ATOM     22  C   UNL     1       1.961   2.083  19.231  0.00  0.00    +0.000 C 
ATOM     23  C   UNL     1       1.686   2.920  20.479  0.00  0.00    +0.000 C 
ATOM     24  C   UNL     1       1.075   4.297  20.216  0.00  0.00    +0.000 C 
ENDBRANCH  18  19
ENDBRANCH   3  18
TORSDOF 5
ENDMDL
MODEL 4
REMARK VINA RESULT:      -7.5      0.203      1.005
REMARK  Name = 
REMARK  5 active torsions:
REMARK  status: ('A' for Active; 'I' for Inactive)
REMARK    1  A    between atoms: C_2  and  C_3
REMARK    2  A    between atoms: N_9  and  C_10
REMARK    3  A    between atoms: N_9  and  C_17
REMARK    4  A    between atoms: C_10  and  C_11
REMARK    5  A    between atoms: C_17  and  C_18
REMARK                            x       y       z     vdW  Elec       q    Type
REMARK                         _______ _______ _______ _____ _____    ______ ____
ROOT
ATOM      1  O   UNL     1       2.158   8.979  17.144  0.00  0.00    +0.000 OA
ATOM      2  C   UNL     1       2.290   8.381  18.210  0.00  0.00    +0.000 C 
ATOM      3  N   UNL     1       3.130   7.254  18.303  0.00  0.00    +0.000 N 
ENDROOT
BRANCH   2   4
ATOM      4  C   UNL     1       1.502   8.827  19.337  0.00  0.00    +0.000 A 
ATOM      5  C   UNL     1       1.560   8.607  20.703  0.00  0.00    +0.000 A 
ATOM      6  C   UNL     1       0.491   9.317  21.290  0.00  0.00    +0.000 A 
ATOM      7 BR   UNL     1       0.090   9.327  23.115  0.00  0.00    +0.000 Br
ATOM      8  C   UNL     1      -0.188   9.988  20.301  0.00  0.00    +0.000 A 
ATOM      9  N   UNL     1       0.457   9.712  19.129  0.00  0.00    +0.000 N 
ATOM     10  H   UNL     1       0.227  10.091  18.214  0.00  0.00    +0.000 HD
ENDBRANCH   2   4
BRANCH   3  11
ATOM     11  C   UNL     1       3.905   7.007  17.074  0.00  0.00    +0.000 C 
BRANCH  11  12
ATOM     12  C   UNL     1       5.170   6.186  17.177  0.00  0.00    +0.000 A 
ATOM     13  C   UNL     1       6.233   6.696  17.941  0.00  0.00    +0.000 A 
ATOM     14  C   UNL     1       7.407   5.963  18.124  0.00  0.00    +0.000 A 
ATOM     15  C   UNL     1       7.528   4.693  17.565  0.00  0.00    +0.000 A 
ATOM     16  C   UNL     1       6.458   4.154  16.847  0.00  0.00    +0.000 A 
ATOM     17  C   UNL     1       5.278   4.887  16.666  0.00  0.00    +0.000 A 
ENDBRANCH  11  12
ENDBRANCH   3  11
BRANCH   3  18
ATOM     18  C   UNL     1       2.956   6.133  19.274  0.00  0.00    +0.000 C 
BRANCH  18  19
ATOM     19  C   UNL     1       1.684   5.257  19.089  0.00  0.00    +0.000 C 
ATOM     20  C   UNL     1       1.836   4.189  18.005  0.00  0.00    +0.000 C 
ATOM     21  C   UNL     1       2.710   3.032  18.461  0.00  0.00    +0.000 C 
ATOM     22  C   UNL     1       2.133   2.347  19.692  0.00  0.00    +0.000 C 
ATOM     23  C   UNL     1       1.766   3.305  20.823  0.00  0.00    +0.000 C 
ATOM     24  C   UNL     1       1.128   4.621  20.377  0.00  0.00    +0.000 C 
ENDBRANCH  18  19
ENDBRANCH   3  18
TORSDOF 5
ENDMDL
MODEL 5
REMARK VINA RESULT:      -7.5      3.564      6.245
REMARK  Name = 
REMARK  5 active torsions:
REMARK  status: ('A' for Active; 'I' for Inactive)
REMARK    1  A    between atoms: C_2  and  C_3
REMARK    2  A    between atoms: N_9  and  C_10
REMARK    3  A    between atoms: N_9  and  C_17
REMARK    4  A    between atoms: C_10  and  C_11
REMARK    5  A    between atoms: C_17  and  C_18
REMARK                            x       y       z     vdW  Elec       q    Type
REMARK                         _______ _______ _______ _____ _____    ______ ____
ROOT
ATOM      1  O   UNL     1       6.222   6.850  17.329  0.00  0.00    +0.000 OA
ATOM      2  C   UNL     1       5.617   5.837  16.985  0.00  0.00    +0.000 C 
ATOM      3  N   UNL     1       4.668   5.242  17.841  0.00  0.00    +0.000 N 
ENDROOT
BRANCH   2   4
ATOM      4  C   UNL     1       5.963   5.241  15.715  0.00  0.00    +0.000 A 
ATOM      5  C   UNL     1       5.256   4.536  14.754  0.00  0.00    +0.000 A 
ATOM      6  C   UNL     1       6.162   4.203  13.725  0.00  0.00    +0.000 A 
ATOM      7 BR   UNL     1       5.728   3.213  12.201  0.00  0.00    +0.000 Br
ATOM      8  C   UNL     1       7.394   4.726  14.036  0.00  0.00    +0.000 A 
ATOM      9  N   UNL     1       7.250   5.384  15.225  0.00  0.00    +0.000 N 
ATOM     10  H   UNL     1       7.970   5.915  15.707  0.00  0.00    +0.000 HD
ENDBRANCH   2   4
BRANCH   3  11
ATOM     11  C   UNL     1       4.398   6.039  19.050  0.00  0.00    +0.000 C 
BRANCH  11  12
ATOM     12  C   UNL     1       3.314   7.090  18.989  0.00  0.00    +0.000 A 
ATOM     13  C   UNL     1       3.131   7.787  17.783  0.00  0.00    +0.000 A 
ATOM     14  C   UNL     1       2.111   8.729  17.642  0.00  0.00    +0.000 A 
ATOM     15  C   UNL     1       1.239   8.973  18.699  0.00  0.00    +0.000 A 
ATOM     16  C   UNL     1       1.378   8.249  19.886  0.00  0.00    +0.000 A 
ATOM     17  C   UNL     1       2.398   7.301  20.027  0.00  0.00    +0.000 A 
ENDBRANCH  11  12
ENDBRANCH   3  11
BRANCH   3  18
ATOM     18  C   UNL     1       4.312   3.792  17.848  0.00  0.00    +0.000 C 
BRANCH  18  19
ATOM     19  C   UNL     1       2.895   3.431  17.315  0.00  0.00    +0.000 C 
ATOM     20  C   UNL     1       2.483   1.989  17.615  0.00  0.00    +0.000 C 
ATOM     21  C   UNL     1       2.112   1.794  19.076  0.00  0.00    +0.000 C 
ATOM     22  C   UNL     1       0.950   2.689  19.483  0.00  0.00    +0.000 C 
ATOM     23  C   UNL     1       1.132   4.156  19.100  0.00  0.00    +0.000 C 
ATOM     24  C   UNL     1       1.769   4.396  17.731  0.00  0.00    +0.000 C 
ENDBRANCH  18  19
ENDBRANCH   3  18
TORSDOF 5
ENDMDL
MODEL 6
REMARK VINA RESULT:      -7.5      3.448      6.349
REMARK  Name = 
REMARK  5 active torsions:
REMARK  status: ('A' for Active; 'I' for Inactive)
REMARK    1  A    between atoms: C_2  and  C_3
REMARK    2  A    between atoms: N_9  and  C_10
REMARK    3  A    between atoms: N_9  and  C_17
REMARK    4  A    between atoms: C_10  and  C_11
REMARK    5  A    between atoms: C_17  and  C_18
REMARK                            x       y       z     vdW  Elec       q    Type
REMARK                         _______ _______ _______ _____ _____    ______ ____
ROOT
ATOM      1  O   UNL     1       6.148   6.569  17.861  0.00  0.00    +0.000 OA
ATOM      2  C   UNL     1       5.323   5.930  17.210  0.00  0.00    +0.000 C 
ATOM      3  N   UNL     1       4.017   5.732  17.702  0.00  0.00    +0.000 N 
ENDROOT
BRANCH   2   4
ATOM      4  C   UNL     1       5.758   5.331  15.969  0.00  0.00    +0.000 A 
ATOM      5  C   UNL     1       5.122   4.624  14.962  0.00  0.00    +0.000 A 
ATOM      6  C   UNL     1       6.098   4.289  14.001  0.00  0.00    +0.000 A 
ATOM      7 BR   UNL     1       5.774   3.296  12.452  0.00  0.00    +0.000 Br
ATOM      8  C   UNL     1       7.305   4.815  14.397  0.00  0.00    +0.000 A 
ATOM      9  N   UNL     1       7.077   5.475  15.571  0.00  0.00    +0.000 N 
ATOM     10  H   UNL     1       7.760   6.007  16.101  0.00  0.00    +0.000 HD
ENDBRANCH   2   4
BRANCH   3  11
ATOM     11  C   UNL     1       3.744   6.485  18.939  0.00  0.00    +0.000 C 
BRANCH  11  12
ATOM     12  C   UNL     1       2.676   7.552  18.907  0.00  0.00    +0.000 A 
ATOM     13  C   UNL     1       1.967   7.819  20.092  0.00  0.00    +0.000 A 
ATOM     14  C   UNL     1       1.008   8.832  20.146  0.00  0.00    +0.000 A 
ATOM     15  C   UNL     1       0.757   9.613  19.021  0.00  0.00    +0.000 A 
ATOM     16  C   UNL     1       1.491   9.391  17.853  0.00  0.00    +0.000 A 
ATOM     17  C   UNL     1       2.457   8.379  17.799  0.00  0.00    +0.000 A 
ENDBRANCH  11  12
ENDBRANCH   3  11
BRANCH   3  18
ATOM     18  C   UNL     1       3.143   4.569  17.367  0.00  0.00    +0.000 C 
BRANCH  18  19
ATOM     19  C   UNL     1       3.330   3.296  18.242  0.00  0.00    +0.000 C 
ATOM     20  C   UNL     1       3.398   3.594  19.740  0.00  0.00    +0.000 C 
ATOM     21  C   UNL     1       2.033   3.934  20.317  0.00  0.00    +0.000 C 
ATOM     22  C   UNL     1       1.046   2.791  20.129  0.00  0.00    +0.000 C 
ATOM     23  C   UNL     1       0.978   2.257  18.700  0.00  0.00    +0.000 C 
ATOM     24  C   UNL     1       2.322   2.161  17.978  0.00  0.00    +0.000 C 
ENDBRANCH  18  19
ENDBRANCH   3  18
TORSDOF 5
ENDMDL
MODEL 7
REMARK VINA RESULT:      -7.3      1.024      1.152
REMARK  Name = 
REMARK  5 active torsions:
REMARK  status: ('A' for Active; 'I' for Inactive)
REMARK    1  A    between atoms: C_2  and  C_3
REMARK    2  A    between atoms: N_9  and  C_10
REMARK    3  A    between atoms: N_9  and  C_17
REMARK    4  A    between atoms: C_10  and  C_11
REMARK    5  A    between atoms: C_17  and  C_18
REMARK                            x       y       z     vdW  Elec       q    Type
REMARK                         _______ _______ _______ _____ _____    ______ ____
ROOT
ATOM      1  O   UNL     1       2.425   8.756  17.517  0.00  0.00    +0.000 OA
ATOM      2  C   UNL     1       2.250   8.129  18.560  0.00  0.00    +0.000 C 
ATOM      3  N   UNL     1       2.826   6.856  18.739  0.00  0.00    +0.000 N 
ENDROOT
BRANCH   2   4
ATOM      4  C   UNL     1       1.378   8.707  19.557  0.00  0.00    +0.000 A 
ATOM      5  C   UNL     1       1.330   8.663  20.940  0.00  0.00    +0.000 A 
ATOM      6  C   UNL     1       0.220   9.432  21.349  0.00  0.00    +0.000 A 
ATOM      7 BR   UNL     1      -0.320   9.669  23.121  0.00  0.00    +0.000 Br
ATOM      8  C   UNL     1      -0.380   9.966  20.233  0.00  0.00    +0.000 A 
ATOM      9  N   UNL     1       0.353   9.549  19.158  0.00  0.00    +0.000 N 
ATOM     10  H   UNL     1       0.194   9.806  18.188  0.00  0.00    +0.000 HD
ENDBRANCH   2   4
BRANCH   3  11
ATOM     11  C   UNL     1       3.742   6.476  17.648  0.00  0.00    +0.000 C 
BRANCH  11  12
ATOM     12  C   UNL     1       5.225   6.442  17.937  0.00  0.00    +0.000 A 
ATOM     13  C   UNL     1       5.679   5.624  18.986  0.00  0.00    +0.000 A 
ATOM     14  C   UNL     1       7.041   5.502  19.268  0.00  0.00    +0.000 A 
ATOM     15  C   UNL     1       7.976   6.179  18.489  0.00  0.00    +0.000 A 
ATOM     16  C   UNL     1       7.540   6.954  17.412  0.00  0.00    +0.000 A 
ATOM     17  C   UNL     1       6.175   7.073  17.124  0.00  0.00    +0.000 A 
ENDBRANCH  11  12
ENDBRANCH   3  11
BRANCH   3  18
ATOM     18  C   UNL     1       2.271   5.779  19.611  0.00  0.00    +0.000 C 
BRANCH  18  19
ATOM     19  C   UNL     1       1.434   4.680  18.895  0.00  0.00    +0.000 C 
ATOM     20  C   UNL     1       2.201   3.960  17.785  0.00  0.00    +0.000 C 
ATOM     21  C   UNL     1       3.226   2.984  18.340  0.00  0.00    +0.000 C 
ATOM     22  C   UNL     1       2.570   1.914  19.202  0.00  0.00    +0.000 C 
ATOM     23  C   UNL     1       1.628   2.467  20.269  0.00  0.00    +0.000 C 
ATOM     24  C   UNL     1       0.766   3.649  19.824  0.00  0.00    +0.000 C 
ENDBRANCH  18  19
ENDBRANCH   3  18
TORSDOF 5
ENDMDL
MODEL 8
REMARK VINA RESULT:      -7.3      1.093      1.733
REMARK  Name = 
REMARK  5 active torsions:
REMARK  status: ('A' for Active; 'I' for Inactive)
REMARK    1  A    between atoms: C_2  and  C_3
REMARK    2  A    between atoms: N_9  and  C_10
REMARK    3  A    between atoms: N_9  and  C_17
REMARK    4  A    between atoms: C_10  and  C_11
REMARK    5  A    between atoms: C_17  and  C_18
REMARK                            x       y       z     vdW  Elec       q    Type
REMARK                         _______ _______ _______ _____ _____    ______ ____
ROOT
ATOM      1  O   UNL     1       3.053   8.838  17.346  0.00  0.00    +0.000 OA
ATOM      2  C   UNL     1       2.637   8.087  18.227  0.00  0.00    +0.000 C 
ATOM      3  N   UNL     1       3.032   6.735  18.262  0.00  0.00    +0.000 N 
ENDROOT
BRANCH   2   4
ATOM      4  C   UNL     1       1.681   8.617  19.172  0.00  0.00    +0.000 A 
ATOM      5  C   UNL     1       1.461   8.436  20.527  0.00  0.00    +0.000 A 
ATOM      6  C   UNL     1       0.351   9.231  20.884  0.00  0.00    +0.000 A 
ATOM      7 BR   UNL     1      -0.390   9.322  22.596  0.00  0.00    +0.000 Br
ATOM      8  C   UNL     1      -0.077   9.914  19.770  0.00  0.00    +0.000 A 
ATOM      9  N   UNL     1       0.760   9.561  18.750  0.00  0.00    +0.000 N 
ATOM     10  H   UNL     1       0.736   9.926  17.802  0.00  0.00    +0.000 HD
ENDBRANCH   2   4
BRANCH   3  11
ATOM     11  C   UNL     1       4.069   6.407  17.268  0.00  0.00    +0.000 C 
BRANCH  11  12
ATOM     12  C   UNL     1       5.516   6.451  17.700  0.00  0.00    +0.000 A 
ATOM     13  C   UNL     1       6.327   7.488  17.206  0.00  0.00    +0.000 A 
ATOM     14  C   UNL     1       7.656   7.620  17.610  0.00  0.00    +0.000 A 
ATOM     15  C   UNL     1       8.193   6.730  18.536  0.00  0.00    +0.000 A 
ATOM     16  C   UNL     1       7.383   5.727  19.074  0.00  0.00    +0.000 A 
ATOM     17  C   UNL     1       6.048   5.596  18.673  0.00  0.00    +0.000 A 
ENDBRANCH  11  12
ENDBRANCH   3  11
BRANCH   3  18
ATOM     18  C   UNL     1       2.224   5.622  18.843  0.00  0.00    +0.000 C 
BRANCH  18  19
ATOM     19  C   UNL     1       2.975   4.656  19.803  0.00  0.00    +0.000 C 
ATOM     20  C   UNL     1       2.217   4.380  21.102  0.00  0.00    +0.000 C 
ATOM     21  C   UNL     1       1.041   3.441  20.888  0.00  0.00    +0.000 C 
ATOM     22  C   UNL     1       1.492   2.097  20.336  0.00  0.00    +0.000 C 
ATOM     23  C   UNL     1       2.407   2.200  19.117  0.00  0.00    +0.000 C 
ATOM     24  C   UNL     1       3.438   3.328  19.174  0.00  0.00    +0.000 C 
ENDBRANCH  18  19
ENDBRANCH   3  18
TORSDOF 5
ENDMDL
MODEL 9
REMARK VINA RESULT:      -7.3      1.142      1.684
REMARK  Name = 
REMARK  5 active torsions:
REMARK  status: ('A' for Active; 'I' for Inactive)
REMARK    1  A    between atoms: C_2  and  C_3
REMARK    2  A    between atoms: N_9  and  C_10
REMARK    3  A    between atoms: N_9  and  C_17
REMARK    4  A    between atoms: C_10  and  C_11
REMARK    5  A    between atoms: C_17  and  C_18
REMARK                            x       y       z     vdW  Elec       q    Type
REMARK                         _______ _______ _______ _____ _____    ______ ____
ROOT
ATOM      1  O   UNL     1       2.641   8.700  17.388  0.00  0.00    +0.000 OA
ATOM      2  C   UNL     1       2.364   8.094  18.421  0.00  0.00    +0.000 C 
ATOM      3  N   UNL     1       2.857   6.794  18.646  0.00  0.00    +0.000 N 
ENDROOT
BRANCH   2   4
ATOM      4  C   UNL     1       1.461   8.728  19.355  0.00  0.00    +0.000 A 
ATOM      5  C   UNL     1       1.268   8.639  20.723  0.00  0.00    +0.000 A 
ATOM      6  C   UNL     1       0.209   9.511  21.057  0.00  0.00    +0.000 A 
ATOM      7 BR   UNL     1      -0.480   9.742  22.778  0.00  0.00    +0.000 Br
ATOM      8  C   UNL     1      -0.213  10.148  19.915  0.00  0.00    +0.000 A 
ATOM      9  N   UNL     1       0.577   9.693  18.898  0.00  0.00    +0.000 N 
ATOM     10  H   UNL     1       0.547  10.001  17.931  0.00  0.00    +0.000 HD
ENDBRANCH   2   4
BRANCH   3  11
ATOM     11  C   UNL     1       3.821   6.355  17.621  0.00  0.00    +0.000 C 
BRANCH  11  12
ATOM     12  C   UNL     1       5.296   6.454  17.935  0.00  0.00    +0.000 A 
ATOM     13  C   UNL     1       5.830   5.583  18.900  0.00  0.00    +0.000 A 
ATOM     14  C   UNL     1       7.194   5.583  19.195  0.00  0.00    +0.000 A 
ATOM     15  C   UNL     1       8.054   6.439  18.511  0.00  0.00    +0.000 A 
ATOM     16  C   UNL     1       7.543   7.272  17.513  0.00  0.00    +0.000 A 
ATOM     17  C   UNL     1       6.175   7.270  17.213  0.00  0.00    +0.000 A 
ENDBRANCH  11  12
ENDBRANCH   3  11
BRANCH   3  18
ATOM     18  C   UNL     1       2.188   5.757  19.487  0.00  0.00    +0.000 C 
BRANCH  18  19
ATOM     19  C   UNL     1       2.799   4.327  19.427  0.00  0.00    +0.000 C 
ATOM     20  C   UNL     1       2.709   3.574  20.755  0.00  0.00    +0.000 C 
ATOM     21  C   UNL     1       1.297   3.088  21.042  0.00  0.00    +0.000 C 
ATOM     22  C   UNL     1       0.799   2.146  19.955  0.00  0.00    +0.000 C 
ATOM     23  C   UNL     1       0.972   2.686  18.537  0.00  0.00    +0.000 C 
ATOM     24  C   UNL     1       2.280   3.436  18.283  0.00  0.00    +0.000 C 
ENDBRANCH  18  19
ENDBRANCH   3  18
TORSDOF 5
ENDMDL
