MODEL 1
REMARK VINA RESULT:      -8.0      0.000      0.000
REMARK  Name = 
REMARK  6 active torsions:
REMARK  status: ('A' for Active; 'I' for Inactive)
REMARK    1  A    between atoms: C_2  and  C_3
REMARK    2  A    between atoms: C_3  and  C_4
REMARK    3  A    between atoms: N_10  and  C_11
REMARK    4  A    between atoms: C_11  and  C_12
REMARK    5  A    between atoms: C_12  and  C_13
REMARK    6  A    between atoms: C_16  and  C_17
REMARK                            x       y       z     vdW  Elec       q    Type
REMARK                         _______ _______ _______ _____ _____    ______ ____
ROOT
ATOM      1  C   UNL     1       7.245   5.561  19.623  0.00  0.00    +0.000 C 
ENDROOT
BRANCH   1   4
ATOM      2  O   UNL     1       4.393   5.362  19.511  0.00  0.00    +0.000 OA
ATOM      3  C   UNL     1       5.087   4.438  19.101  0.00  0.00    +0.000 C 
ATOM      4  N   UNL     1       6.459   4.476  19.075  0.00  0.00    +0.000 N 
ATOM      5  H   UNL     1       6.938   3.635  18.747  0.00  0.00    +0.000 HD
BRANCH   3   6
ATOM      6  C   UNL     1       4.477   3.173  18.513  0.00  0.00    +0.000 C 
BRANCH   6   7
ATOM      7  C   UNL     1       3.189   2.691  19.200  0.00  0.00    +0.000 C 
ATOM      8  C   UNL     1       1.930   3.216  18.465  0.00  0.00    +0.000 C 
ATOM      9  O   UNL     1       0.729   2.811  19.135  0.00  0.00    +0.000 OA
ATOM     10  C   UNL     1       0.728   3.299  20.483  0.00  0.00    +0.000 C 
ATOM     11  C   UNL     1       1.912   2.720  21.264  0.00  0.00    +0.000 C 
ATOM     12  N   UNL     1       3.204   3.065  20.643  0.00  0.00    +0.000 NA
ATOM     13  H   UNL     1       3.943   2.537  21.113  0.00  0.00    +0.000 HD
ENDBRANCH   6   7
ENDBRANCH   3   6
ENDBRANCH   1   4
BRANCH   1  14
ATOM     14  C   UNL     1       7.824   6.474  18.548  0.00  0.00    +0.000 C 
BRANCH  14  15
ATOM     15  C   UNL     1       7.134   6.271  17.252  0.00  0.00    +0.000 A 
ATOM     16  N   UNL     1       6.136   7.060  16.836  0.00  0.00    +0.000 NA
ATOM     17  O   UNL     1       5.832   6.542  15.572  0.00  0.00    +0.000 OA
ATOM     18  C   UNL     1       6.686   5.493  15.360  0.00  0.00    +0.000 A 
ATOM     19  N   UNL     1       7.507   5.291  16.370  0.00  0.00    +0.000 NA
BRANCH  18  20
ATOM     20  C   UNL     1       6.573   4.780  14.097  0.00  0.00    +0.000 A 
ATOM     21  C   UNL     1       7.533   4.908  13.080  0.00  0.00    +0.000 A 
ATOM     22  C   UNL     1       7.393   4.214  11.874  0.00  0.00    +0.000 A 
ATOM     23  C   UNL     1       6.294   3.383  11.671  0.00  0.00    +0.000 A 
ATOM     24  C   UNL     1       5.334   3.241  12.672  0.00  0.00    +0.000 A 
ATOM     25  C   UNL     1       5.475   3.935  13.873  0.00  0.00    +0.000 A 
ENDBRANCH  18  20
ENDBRANCH  14  15
ENDBRANCH   1  14
TORSDOF 6
ENDMDL
MODEL 2
REMARK VINA RESULT:      -7.9      0.140      1.015
REMARK  Name = 
REMARK  6 active torsions:
REMARK  status: ('A' for Active; 'I' for Inactive)
REMARK    1  A    between atoms: C_2  and  C_3
REMARK    2  A    between atoms: C_3  and  C_4
REMARK    3  A    between atoms: N_10  and  C_11
REMARK    4  A    between atoms: C_11  and  C_12
REMARK    5  A    between atoms: C_12  and  C_13
REMARK    6  A    between atoms: C_16  and  C_17
REMARK                            x       y       z     vdW  Elec       q    Type
REMARK                         _______ _______ _______ _____ _____    ______ ____
ROOT
ATOM      1  C   UNL     1       7.423   5.482  19.519  0.00  0.00    +0.000 C 
ENDROOT
BRANCH   1   4
ATOM      2  O   UNL     1       4.567   5.340  19.622  0.00  0.00    +0.000 OA
ATOM      3  C   UNL     1       5.206   4.436  19.094  0.00  0.00    +0.000 C 
ATOM      4  N   UNL     1       6.572   4.453  18.961  0.00  0.00    +0.000 N 
ATOM      5  H   UNL     1       7.005   3.630  18.537  0.00  0.00    +0.000 HD
BRANCH   3   6
ATOM      6  C   UNL     1       4.523   3.227  18.470  0.00  0.00    +0.000 C 
BRANCH   6   7
ATOM      7  C   UNL     1       3.247   2.757  19.188  0.00  0.00    +0.000 C 
ATOM      8  C   UNL     1       1.984   3.407  18.571  0.00  0.00    +0.000 C 
ATOM      9  O   UNL     1       0.799   3.010  19.273  0.00  0.00    +0.000 OA
ATOM     10  C   UNL     1       0.896   3.381  20.654  0.00  0.00    +0.000 C 
ATOM     11  C   UNL     1       2.085   2.678  21.316  0.00  0.00    +0.000 C 
ATOM     12  N   UNL     1       3.359   3.006  20.653  0.00  0.00    +0.000 NA
ATOM     13  H   UNL     1       4.091   2.403  21.036  0.00  0.00    +0.000 HD
ENDBRANCH   6   7
ENDBRANCH   3   6
ENDBRANCH   1   4
BRANCH   1  14
ATOM     14  C   UNL     1       7.799   6.556  18.503  0.00  0.00    +0.000 C 
BRANCH  14  15
ATOM     15  C   UNL     1       7.108   6.328  17.212  0.00  0.00    +0.000 A 
ATOM     16  N   UNL     1       6.103   7.103  16.786  0.00  0.00    +0.000 NA
ATOM     17  O   UNL     1       5.800   6.563  15.531  0.00  0.00    +0.000 OA
ATOM     18  C   UNL     1       6.661   5.517  15.333  0.00  0.00    +0.000 A 
ATOM     19  N   UNL     1       7.485   5.337  16.344  0.00  0.00    +0.000 NA
BRANCH  18  20
ATOM     20  C   UNL     1       6.551   4.784  14.081  0.00  0.00    +0.000 A 
ATOM     21  C   UNL     1       5.474   3.922  13.814  0.00  0.00    +0.000 A 
ATOM     22  C   UNL     1       5.401   3.226  12.604  0.00  0.00    +0.000 A 
ATOM     23  C   UNL     1       6.400   3.383  11.646  0.00  0.00    +0.000 A 
ATOM     24  C   UNL     1       7.473   4.237  11.894  0.00  0.00    +0.000 A 
ATOM     25  C   UNL     1       7.546   4.929  13.101  0.00  0.00    +0.000 A 
ENDBRANCH  18  20
ENDBRANCH  14  15
ENDBRANCH   1  14
TORSDOF 6
ENDMDL
MODEL 3
REMARK VINA RESULT:      -7.4      3.567      6.907
REMARK  Name = 
REMARK  6 active torsions:
REMARK  status: ('A' for Active; 'I' for Inactive)
REMARK    1  A    between atoms: C_2  and  C_3
REMARK    2  A    between atoms: C_3  and  C_4
REMARK    3  A    between atoms: N_10  and  C_11
REMARK    4  A    between atoms: C_11  and  C_12
REMARK    5  A    between atoms: C_12  and  C_13
REMARK    6  A    between atoms: C_16  and  C_17
REMARK                            x       y       z     vdW  Elec       q    Type
REMARK                         _______ _______ _______ _____ _____    ______ ____
ROOT
ATOM      1  C   UNL     1       1.756   2.187  19.933  0.00  0.00    +0.000 C 
ENDROOT
BRANCH   1   4
ATOM      2  O   UNL     1       3.680   1.093  18.119  0.00  0.00    +0.000 OA
ATOM      3  C   UNL     1       3.179   2.189  17.892  0.00  0.00    +0.000 C 
ATOM      4  N   UNL     1       2.215   2.759  18.685  0.00  0.00    +0.000 N 
ATOM      5  H   UNL     1       1.894   3.693  18.422  0.00  0.00    +0.000 HD
BRANCH   3   6
ATOM      6  C   UNL     1       3.541   2.997  16.653  0.00  0.00    +0.000 C 
BRANCH   6   7
ATOM      7  C   UNL     1       4.674   4.018  16.850  0.00  0.00    +0.000 C 
ATOM      8  C   UNL     1       5.748   3.885  15.742  0.00  0.00    +0.000 C 
ATOM      9  O   UNL     1       6.830   4.801  15.954  0.00  0.00    +0.000 OA
ATOM     10  C   UNL     1       7.435   4.563  17.231  0.00  0.00    +0.000 C 
ATOM     11  C   UNL     1       6.417   4.779  18.356  0.00  0.00    +0.000 C 
ATOM     12  N   UNL     1       5.248   3.893  18.220  0.00  0.00    +0.000 NA
ATOM     13  H   UNL     1       4.541   4.178  18.901  0.00  0.00    +0.000 HD
ENDBRANCH   6   7
ENDBRANCH   3   6
ENDBRANCH   1   4
BRANCH   1  14
ATOM     14  C   UNL     1       1.694   3.206  21.065  0.00  0.00    +0.000 C 
BRANCH  14  15
ATOM     15  C   UNL     1       2.158   4.537  20.606  0.00  0.00    +0.000 A 
ATOM     16  N   UNL     1       3.437   4.787  20.299  0.00  0.00    +0.000 NA
ATOM     17  O   UNL     1       3.403   6.122  19.878  0.00  0.00    +0.000 OA
ATOM     18  C   UNL     1       2.100   6.532  19.973  0.00  0.00    +0.000 A 
ATOM     19  N   UNL     1       1.298   5.587  20.418  0.00  0.00    +0.000 NA
BRANCH  18  20
ATOM     20  C   UNL     1       1.797   7.900  19.582  0.00  0.00    +0.000 A 
ATOM     21  C   UNL     1       1.168   8.804  20.455  0.00  0.00    +0.000 A 
ATOM     22  C   UNL     1       0.884  10.110  20.047  0.00  0.00    +0.000 A 
ATOM     23  C   UNL     1       1.225  10.531  18.764  0.00  0.00    +0.000 A 
ATOM     24  C   UNL     1       1.854   9.648  17.887  0.00  0.00    +0.000 A 
ATOM     25  C   UNL     1       2.135   8.346  18.294  0.00  0.00    +0.000 A 
ENDBRANCH  18  20
ENDBRANCH  14  15
ENDBRANCH   1  14
TORSDOF 6
ENDMDL
MODEL 4
REMARK VINA RESULT:      -7.3      3.344      6.866
REMARK  Name = 
REMARK  6 active torsions:
REMARK  status: ('A' for Active; 'I' for Inactive)
REMARK    1  A    between atoms: C_2  and  C_3
REMARK    2  A    between atoms: C_3  and  C_4
REMARK    3  A    between atoms: N_10  and  C_11
REMARK    4  A    between atoms: C_11  and  C_12
REMARK    5  A    between atoms: C_12  and  C_13
REMARK    6  A    between atoms: C_16  and  C_17
REMARK                            x       y       z     vdW  Elec       q    Type
REMARK                         _______ _______ _______ _____ _____    ______ ____
ROOT
ATOM      1  C   UNL     1       3.764   2.141  19.111  0.00  0.00    +0.000 C 
ENDROOT
BRANCH   1   4
ATOM      2  O   UNL     1       2.728   3.580  16.865  0.00  0.00    +0.000 OA
ATOM      3  C   UNL     1       3.920   3.295  16.912  0.00  0.00    +0.000 C 
ATOM      4  N   UNL     1       4.502   2.651  17.975  0.00  0.00    +0.000 N 
ATOM      5  H   UNL     1       5.497   2.430  17.893  0.00  0.00    +0.000 HD
BRANCH   3   6
ATOM      6  C   UNL     1       4.887   3.696  15.807  0.00  0.00    +0.000 C 
BRANCH   6   7
ATOM      7  C   UNL     1       5.517   5.089  15.967  0.00  0.00    +0.000 C 
ATOM      8  C   UNL     1       7.063   5.019  15.887  0.00  0.00    +0.000 C 
ATOM      9  O   UNL     1       7.653   6.310  16.088  0.00  0.00    +0.000 OA
ATOM     10  C   UNL     1       7.268   6.835  17.365  0.00  0.00    +0.000 C 
ATOM     11  C   UNL     1       5.748   7.004  17.439  0.00  0.00    +0.000 C 
ATOM     12  N   UNL     1       5.039   5.730  17.225  0.00  0.00    +0.000 NA
ATOM     13  H   UNL     1       4.039   5.923  17.138  0.00  0.00    +0.000 HD
ENDBRANCH   6   7
ENDBRANCH   3   6
ENDBRANCH   1   4
BRANCH   1  14
ATOM     14  C   UNL     1       3.940   2.994  20.363  0.00  0.00    +0.000 C 
BRANCH  14  15
ATOM     15  C   UNL     1       3.008   4.147  20.353  0.00  0.00    +0.000 A 
ATOM     16  N   UNL     1       1.850   4.142  21.024  0.00  0.00    +0.000 NA
ATOM     17  O   UNL     1       1.338   5.421  20.776  0.00  0.00    +0.000 OA
ATOM     18  C   UNL     1       2.249   6.063  19.981  0.00  0.00    +0.000 A 
ATOM     19  N   UNL     1       3.295   5.315  19.697  0.00  0.00    +0.000 NA
BRANCH  18  20
ATOM     20  C   UNL     1       1.948   7.429  19.582  0.00  0.00    +0.000 A 
ATOM     21  C   UNL     1       1.336   8.344  20.455  0.00  0.00    +0.000 A 
ATOM     22  C   UNL     1       1.053   9.648  20.039  0.00  0.00    +0.000 A 
ATOM     23  C   UNL     1       1.378  10.055  18.748  0.00  0.00    +0.000 A 
ATOM     24  C   UNL     1       1.989   9.161  17.870  0.00  0.00    +0.000 A 
ATOM     25  C   UNL     1       2.269   7.861  18.285  0.00  0.00    +0.000 A 
ENDBRANCH  18  20
ENDBRANCH  14  15
ENDBRANCH   1  14
TORSDOF 6
ENDMDL
MODEL 5
REMARK VINA RESULT:      -7.3      3.162      5.597
REMARK  Name = 
REMARK  6 active torsions:
REMARK  status: ('A' for Active; 'I' for Inactive)
REMARK    1  A    between atoms: C_2  and  C_3
REMARK    2  A    between atoms: C_3  and  C_4
REMARK    3  A    between atoms: N_10  and  C_11
REMARK    4  A    between atoms: C_11  and  C_12
REMARK    5  A    between atoms: C_12  and  C_13
REMARK    6  A    between atoms: C_16  and  C_17
REMARK                            x       y       z     vdW  Elec       q    Type
REMARK                         _______ _______ _______ _____ _____    ______ ____
ROOT
ATOM      1  C   UNL     1       7.117   4.605  17.201  0.00  0.00    +0.000 C 
ENDROOT
BRANCH   1   4
ATOM      2  O   UNL     1       4.566   5.767  16.626  0.00  0.00    +0.000 OA
ATOM      3  C   UNL     1       4.640   4.589  16.957  0.00  0.00    +0.000 C 
ATOM      4  N   UNL     1       5.828   3.945  17.203  0.00  0.00    +0.000 N 
ATOM      5  H   UNL     1       5.772   2.972  17.508  0.00  0.00    +0.000 HD
BRANCH   3   6
ATOM      6  C   UNL     1       3.406   3.703  17.065  0.00  0.00    +0.000 C 
BRANCH   6   7
ATOM      7  C   UNL     1       2.905   3.456  18.497  0.00  0.00    +0.000 C 
ATOM      8  C   UNL     1       1.380   3.185  18.520  0.00  0.00    +0.000 C 
ATOM      9  O   UNL     1       0.904   3.006  19.860  0.00  0.00    +0.000 OA
ATOM     10  C   UNL     1       1.189   4.171  20.644  0.00  0.00    +0.000 C 
ATOM     11  C   UNL     1       2.700   4.411  20.718  0.00  0.00    +0.000 C 
ATOM     12  N   UNL     1       3.296   4.590  19.383  0.00  0.00    +0.000 NA
ATOM     13  H   UNL     1       4.314   4.599  19.478  0.00  0.00    +0.000 HD
ENDBRANCH   6   7
ENDBRANCH   3   6
ENDBRANCH   1   4
BRANCH   1  14
ATOM     14  C   UNL     1       7.367   5.420  18.465  0.00  0.00    +0.000 C 
BRANCH  14  15
ATOM     15  C   UNL     1       7.659   6.835  18.134  0.00  0.00    +0.000 A 
ATOM     16  N   UNL     1       7.161   7.438  17.048  0.00  0.00    +0.000 NA
ATOM     17  O   UNL     1       7.646   8.746  17.164  0.00  0.00    +0.000 OA
ATOM     18  C   UNL     1       8.385   8.791  18.316  0.00  0.00    +0.000 A 
ATOM     19  N   UNL     1       8.420   7.635  18.945  0.00  0.00    +0.000 NA
BRANCH  18  20
ATOM     20  C   UNL     1       9.001  10.061  18.669  0.00  0.00    +0.000 A 
ATOM     21  C   UNL     1       9.516  10.309  19.952  0.00  0.00    +0.000 A 
ATOM     22  C   UNL     1      10.095  11.543  20.262  0.00  0.00    +0.000 A 
ATOM     23  C   UNL     1      10.171  12.542  19.295  0.00  0.00    +0.000 A 
ATOM     24  C   UNL     1       9.669  12.310  18.015  0.00  0.00    +0.000 A 
ATOM     25  C   UNL     1       9.090  11.080  17.708  0.00  0.00    +0.000 A 
ENDBRANCH  18  20
ENDBRANCH  14  15
ENDBRANCH   1  14
TORSDOF 6
ENDMDL
MODEL 6
REMARK VINA RESULT:      -7.2      1.750      2.414
REMARK  Name = 
REMARK  6 active torsions:
REMARK  status: ('A' for Active; 'I' for Inactive)
REMARK    1  A    between atoms: C_2  and  C_3
REMARK    2  A    between atoms: C_3  and  C_4
REMARK    3  A    between atoms: N_10  and  C_11
REMARK    4  A    between atoms: C_11  and  C_12
REMARK    5  A    between atoms: C_12  and  C_13
REMARK    6  A    between atoms: C_16  and  C_17
REMARK                            x       y       z     vdW  Elec       q    Type
REMARK                         _______ _______ _______ _____ _____    ______ ____
ROOT
ATOM      1  C   UNL     1       6.636   5.888  18.311  0.00  0.00    +0.000 C 
ENDROOT
BRANCH   1   4
ATOM      2  O   UNL     1       4.295   6.664  16.859  0.00  0.00    +0.000 OA
ATOM      3  C   UNL     1       4.188   6.202  17.990  0.00  0.00    +0.000 C 
ATOM      4  N   UNL     1       5.256   5.762  18.731  0.00  0.00    +0.000 N 
ATOM      5  H   UNL     1       5.056   5.430  19.677  0.00  0.00    +0.000 HD
BRANCH   3   6
ATOM      6  C   UNL     1       2.832   6.012  18.656  0.00  0.00    +0.000 C 
BRANCH   6   7
ATOM      7  C   UNL     1       2.143   4.671  18.358  0.00  0.00    +0.000 C 
ATOM      8  C   UNL     1       1.410   4.126  19.610  0.00  0.00    +0.000 C 
ATOM      9  O   UNL     1       0.810   2.851  19.347  0.00  0.00    +0.000 OA
ATOM     10  C   UNL     1       1.811   1.910  18.938  0.00  0.00    +0.000 C 
ATOM     11  C   UNL     1       2.490   2.378  17.647  0.00  0.00    +0.000 C 
ATOM     12  N   UNL     1       3.126   3.697  17.804  0.00  0.00    +0.000 NA
ATOM     13  H   UNL     1       3.432   4.025  16.885  0.00  0.00    +0.000 HD
ENDBRANCH   6   7
ENDBRANCH   3   6
ENDBRANCH   1   4
BRANCH   1  14
ATOM     14  C   UNL     1       7.173   4.620  17.656  0.00  0.00    +0.000 C 
BRANCH  14  15
ATOM     15  C   UNL     1       6.982   4.660  16.187  0.00  0.00    +0.000 A 
ATOM     16  N   UNL     1       7.577   5.572  15.409  0.00  0.00    +0.000 NA
ATOM     17  O   UNL     1       7.162   5.207  14.123  0.00  0.00    +0.000 OA
ATOM     18  C   UNL     1       6.360   4.106  14.266  0.00  0.00    +0.000 A 
ATOM     19  N   UNL     1       6.223   3.734  15.522  0.00  0.00    +0.000 NA
BRANCH  18  20
ATOM     20  C   UNL     1       5.798   3.523  13.057  0.00  0.00    +0.000 A 
ATOM     21  C   UNL     1       4.534   3.893  12.568  0.00  0.00    +0.000 A 
ATOM     22  C   UNL     1       4.020   3.309  11.407  0.00  0.00    +0.000 A 
ATOM     23  C   UNL     1       4.760   2.351  10.719  0.00  0.00    +0.000 A 
ATOM     24  C   UNL     1       6.018   1.976  11.188  0.00  0.00    +0.000 A 
ATOM     25  C   UNL     1       6.530   2.557  12.347  0.00  0.00    +0.000 A 
ENDBRANCH  18  20
ENDBRANCH  14  15
ENDBRANCH   1  14
TORSDOF 6
ENDMDL
MODEL 7
REMARK VINA RESULT:      -7.2      4.900      8.855
REMARK  Name = 
REMARK  6 active torsions:
REMARK  status: ('A' for Active; 'I' for Inactive)
REMARK    1  A    between atoms: C_2  and  C_3
REMARK    2  A    between atoms: C_3  and  C_4
REMARK    3  A    between atoms: N_10  and  C_11
REMARK    4  A    between atoms: C_11  and  C_12
REMARK    5  A    between atoms: C_12  and  C_13
REMARK    6  A    between atoms: C_16  and  C_17
REMARK                            x       y       z     vdW  Elec       q    Type
REMARK                         _______ _______ _______ _____ _____    ______ ____
ROOT
ATOM      1  C   UNL     1       7.832   8.785  17.791  0.00  0.00    +0.000 C 
ENDROOT
BRANCH   1   4
ATOM      2  O   UNL     1       8.561  11.552  17.715  0.00  0.00    +0.000 OA
ATOM      3  C   UNL     1       9.155  10.783  18.463  0.00  0.00    +0.000 C 
ATOM      4  N   UNL     1       8.834   9.455  18.593  0.00  0.00    +0.000 N 
ATOM      5  H   UNL     1       9.419   8.897  19.219  0.00  0.00    +0.000 HD
BRANCH   3   6
ATOM      6  C   UNL     1      10.277  11.256  19.377  0.00  0.00    +0.000 C 
BRANCH   6   7
ATOM      7  C   UNL     1      11.172  12.360  18.791  0.00  0.00    +0.000 C 
ATOM      8  C   UNL     1      10.620  13.768  19.126  0.00  0.00    +0.000 C 
ATOM      9  O   UNL     1      11.425  14.797  18.536  0.00  0.00    +0.000 OA
ATOM     10  C   UNL     1      11.471  14.632  17.113  0.00  0.00    +0.000 C 
ATOM     11  C   UNL     1      12.101  13.284  16.748  0.00  0.00    +0.000 C 
ATOM     12  N   UNL     1      11.354  12.153  17.326  0.00  0.00    +0.000 NA
ATOM     13  H   UNL     1      11.894  11.296  17.179  0.00  0.00    +0.000 HD
ENDBRANCH   6   7
ENDBRANCH   3   6
ENDBRANCH   1   4
BRANCH   1  14
ATOM     14  C   UNL     1       7.914   7.266  17.888  0.00  0.00    +0.000 C 
BRANCH  14  15
ATOM     15  C   UNL     1       6.651   6.637  17.433  0.00  0.00    +0.000 A 
ATOM     16  N   UNL     1       6.242   6.681  16.159  0.00  0.00    +0.000 NA
ATOM     17  O   UNL     1       5.059   5.934  16.183  0.00  0.00    +0.000 OA
ATOM     18  C   UNL     1       4.883   5.515  17.475  0.00  0.00    +0.000 A 
ATOM     19  N   UNL     1       5.842   5.925  18.279  0.00  0.00    +0.000 NA
BRANCH  18  20
ATOM     20  C   UNL     1       3.710   4.704  17.764  0.00  0.00    +0.000 A 
ATOM     21  C   UNL     1       3.557   3.404  17.253  0.00  0.00    +0.000 A 
ATOM     22  C   UNL     1       2.415   2.653  17.544  0.00  0.00    +0.000 A 
ATOM     23  C   UNL     1       1.413   3.189  18.349  0.00  0.00    +0.000 A 
ATOM     24  C   UNL     1       1.552   4.475  18.868  0.00  0.00    +0.000 A 
ATOM     25  C   UNL     1       2.690   5.224  18.576  0.00  0.00    +0.000 A 
ENDBRANCH  18  20
ENDBRANCH  14  15
ENDBRANCH   1  14
TORSDOF 6
ENDMDL
MODEL 8
REMARK VINA RESULT:      -7.1      3.447      5.679
REMARK  Name = 
REMARK  6 active torsions:
REMARK  status: ('A' for Active; 'I' for Inactive)
REMARK    1  A    between atoms: C_2  and  C_3
REMARK    2  A    between atoms: C_3  and  C_4
REMARK    3  A    between atoms: N_10  and  C_11
REMARK    4  A    between atoms: C_11  and  C_12
REMARK    5  A    between atoms: C_12  and  C_13
REMARK    6  A    between atoms: C_16  and  C_17
REMARK                            x       y       z     vdW  Elec       q    Type
REMARK                         _______ _______ _______ _____ _____    ______ ____
ROOT
ATOM      1  C   UNL     1       7.483   4.825  17.865  0.00  0.00    +0.000 C 
ENDROOT
BRANCH   1   4
ATOM      2  O   UNL     1       5.379   3.461  19.245  0.00  0.00    +0.000 OA
ATOM      3  C   UNL     1       5.126   4.124  18.245  0.00  0.00    +0.000 C 
ATOM      4  N   UNL     1       6.069   4.845  17.556  0.00  0.00    +0.000 N 
ATOM      5  H   UNL     1       5.754   5.332  16.714  0.00  0.00    +0.000 HD
BRANCH   3   6
ATOM      6  C   UNL     1       3.708   4.259  17.708  0.00  0.00    +0.000 C 
BRANCH   6   7
ATOM      7  C   UNL     1       2.595   4.041  18.746  0.00  0.00    +0.000 C 
ATOM      8  C   UNL     1       2.649   5.114  19.861  0.00  0.00    +0.000 C 
ATOM      9  O   UNL     1       1.644   4.880  20.857  0.00  0.00    +0.000 OA
ATOM     10  C   UNL     1       1.820   3.582  21.439  0.00  0.00    +0.000 C 
ATOM     11  C   UNL     1       1.678   2.492  20.373  0.00  0.00    +0.000 C 
ATOM     12  N   UNL     1       2.659   2.653  19.286  0.00  0.00    +0.000 NA
ATOM     13  H   UNL     1       2.427   1.996  18.536  0.00  0.00    +0.000 HD
ENDBRANCH   6   7
ENDBRANCH   3   6
ENDBRANCH   1   4
BRANCH   1  14
ATOM     14  C   UNL     1       7.867   5.827  18.949  0.00  0.00    +0.000 C 
BRANCH  14  15
ATOM     15  C   UNL     1       8.003   7.191  18.386  0.00  0.00    +0.000 A 
ATOM     16  N   UNL     1       7.434   7.552  17.229  0.00  0.00    +0.000 NA
ATOM     17  O   UNL     1       7.777   8.905  17.120  0.00  0.00    +0.000 OA
ATOM     18  C   UNL     1       8.516   9.216  18.230  0.00  0.00    +0.000 A 
ATOM     19  N   UNL     1       8.679   8.188  19.038  0.00  0.00    +0.000 NA
BRANCH  18  20
ATOM     20  C   UNL     1       8.994  10.584  18.357  0.00  0.00    +0.000 A 
ATOM     21  C   UNL     1       8.397  11.650  17.665  0.00  0.00    +0.000 A 
ATOM     22  C   UNL     1       8.884  12.953  17.803  0.00  0.00    +0.000 A 
ATOM     23  C   UNL     1       9.972  13.207  18.635  0.00  0.00    +0.000 A 
ATOM     24  C   UNL     1      10.573  12.161  19.332  0.00  0.00    +0.000 A 
ATOM     25  C   UNL     1      10.088  10.862  19.192  0.00  0.00    +0.000 A 
ENDBRANCH  18  20
ENDBRANCH  14  15
ENDBRANCH   1  14
TORSDOF 6
ENDMDL
MODEL 9
REMARK VINA RESULT:      -7.1      4.775      9.064
REMARK  Name = 
REMARK  6 active torsions:
REMARK  status: ('A' for Active; 'I' for Inactive)
REMARK    1  A    between atoms: C_2  and  C_3
REMARK    2  A    between atoms: C_3  and  C_4
REMARK    3  A    between atoms: N_10  and  C_11
REMARK    4  A    between atoms: C_11  and  C_12
REMARK    5  A    between atoms: C_12  and  C_13
REMARK    6  A    between atoms: C_16  and  C_17
REMARK                            x       y       z     vdW  Elec       q    Type
REMARK                         _______ _______ _______ _____ _____    ______ ____
ROOT
ATOM      1  C   UNL     1       8.154   7.826  18.299  0.00  0.00    +0.000 C 
ENDROOT
BRANCH   1   4
ATOM      2  O   UNL     1       9.392   9.979  19.723  0.00  0.00    +0.000 OA
ATOM      3  C   UNL     1       8.909  10.177  18.613  0.00  0.00    +0.000 C 
ATOM      4  N   UNL     1       8.342   9.189  17.847  0.00  0.00    +0.000 N 
ATOM      5  H   UNL     1       7.936   9.472  16.953  0.00  0.00    +0.000 HD
BRANCH   3   6
ATOM      6  C   UNL     1       8.954  11.546  17.949  0.00  0.00    +0.000 C 
BRANCH   6   7
ATOM      7  C   UNL     1      10.223  12.365  18.232  0.00  0.00    +0.000 C 
ATOM      8  C   UNL     1       9.874  13.762  18.804  0.00  0.00    +0.000 C 
ATOM      9  O   UNL     1      11.055  14.546  19.020  0.00  0.00    +0.000 OA
ATOM     10  C   UNL     1      11.774  14.703  17.790  0.00  0.00    +0.000 C 
ATOM     11  C   UNL     1      12.215  13.340  17.248  0.00  0.00    +0.000 C 
ATOM     12  N   UNL     1      11.070  12.445  17.008  0.00  0.00    +0.000 NA
ATOM     13  H   UNL     1      11.425  11.511  16.791  0.00  0.00    +0.000 HD
ENDBRANCH   6   7
ENDBRANCH   3   6
ENDBRANCH   1   4
BRANCH   1  14
ATOM     14  C   UNL     1       7.297   6.999  17.348  0.00  0.00    +0.000 C 
BRANCH  14  15
ATOM     15  C   UNL     1       6.442   6.048  18.096  0.00  0.00    +0.000 A 
ATOM     16  N   UNL     1       6.933   5.203  19.011  0.00  0.00    +0.000 NA
ATOM     17  O   UNL     1       5.789   4.551  19.484  0.00  0.00    +0.000 OA
ATOM     18  C   UNL     1       4.725   5.078  18.802  0.00  0.00    +0.000 A 
ATOM     19  N   UNL     1       5.081   6.004  17.937  0.00  0.00    +0.000 NA
BRANCH  18  20
ATOM     20  C   UNL     1       3.402   4.563  19.120  0.00  0.00    +0.000 A 
ATOM     21  C   UNL     1       2.591   3.941  18.156  0.00  0.00    +0.000 A 
ATOM     22  C   UNL     1       1.322   3.462  18.492  0.00  0.00    +0.000 A 
ATOM     23  C   UNL     1       0.846   3.597  19.794  0.00  0.00    +0.000 A 
ATOM     24  C   UNL     1       1.640   4.208  20.764  0.00  0.00    +0.000 A 
ATOM     25  C   UNL     1       2.905   4.686  20.428  0.00  0.00    +0.000 A 
ENDBRANCH  18  20
ENDBRANCH  14  15
ENDBRANCH   1  14
TORSDOF 6
ENDMDL
