MODEL 1
REMARK VINA RESULT:      -7.5      0.000      0.000
REMARK  Name = 
REMARK  14 active torsions:
REMARK  status: ('A' for Active; 'I' for Inactive)
REMARK    1  A    between atoms: C_1  and  C_2
REMARK    2  A    between atoms: C_2  and  C_3
REMARK    3  A    between atoms: C_2  and  C_29
REMARK    4  A    between atoms: C_3  and  C_4
REMARK    5  A    between atoms: C_4  and  C_5
REMARK    6  A    between atoms: C_5  and  O_6
REMARK    7  A    between atoms: O_6  and  C_7
REMARK    8  A    between atoms: C_12  and  C_13
REMARK    9  A    between atoms: C_13  and  N_14
REMARK   10  A    between atoms: N_14  and  C_15
REMARK   11  A    between atoms: C_16  and  C_18
REMARK   12  A    between atoms: C_21  and  C_22
REMARK   13  A    between atoms: C_29  and  C_30
REMARK   14  A    between atoms: C_30  and  O_32
REMARK                            x       y       z     vdW  Elec       q    Type
REMARK                         _______ _______ _______ _____ _____    ______ ____
ROOT
ATOM      1  C   UNL     1       2.580   4.473  18.167  0.00  0.00    +0.000 A 
ATOM      2  C   UNL     1       1.951   3.221  18.291  0.00  0.00    +0.000 A 
ATOM      3  C   UNL     1       1.160   2.916  19.396  0.00  0.00    +0.000 A 
ATOM      4  C   UNL     1       1.008   3.851  20.410  0.00  0.00    +0.000 A 
ATOM      5  C   UNL     1       1.623   5.102  20.305  0.00  0.00    +0.000 A 
ATOM      6  C   UNL     1       2.389   5.450  19.174  0.00  0.00    +0.000 A 
ENDROOT
BRANCH   1   7
ATOM      7  O   UNL     1       3.359   4.809  17.082  0.00  0.00    +0.000 OA
BRANCH   7   8
ATOM      8  C   UNL     1       4.369   3.856  16.719  0.00  0.00    +0.000 C 
BRANCH   8   9
ATOM      9  C   UNL     1       5.601   4.561  16.161  0.00  0.00    +0.000 C 
BRANCH   9  10
ATOM     10  C   UNL     1       6.744   4.611  17.178  0.00  0.00    +0.000 C 
BRANCH  10  12
ATOM     11  C   UNL     1       5.943   5.007  19.570  0.00  0.00    +0.000 C 
ATOM     12  C   UNL     1       6.523   5.642  18.304  0.00  0.00    +0.000 C 
BRANCH  12  13
ATOM     13  C   UNL     1       7.813   6.424  18.606  0.00  0.00    +0.000 C 
BRANCH  13  14
ATOM     14  C   UNL     1       7.902   7.761  17.905  0.00  0.00    +0.000 C 
ATOM     15  O   UNL     1       7.367   8.009  16.834  0.00  0.00    +0.000 OA
BRANCH  14  16
ATOM     16  O   UNL     1       8.655   8.669  18.562  0.00  0.00    +0.000 OA
ATOM     17  H   UNL     1       9.590   8.412  18.666  0.00  0.00    +0.000 HD
ENDBRANCH  14  16
ENDBRANCH  13  14
ENDBRANCH  12  13
ENDBRANCH  10  12
ENDBRANCH   9  10
ENDBRANCH   8   9
ENDBRANCH   7   8
ENDBRANCH   1   7
BRANCH   6  18
ATOM     18  C   UNL     1       2.812   6.900  19.026  0.00  0.00    +0.000 C 
BRANCH  18  19
ATOM     19  N   UNL     1       1.836   7.923  19.448  0.00  0.00    +0.000 N 
ATOM     20  C   UNL     1       1.549   7.967  20.874  0.00  0.00    +0.000 C 
ATOM     21  C   UNL     1       1.572   8.984  18.559  0.00  0.00    +0.000 C 
ATOM     22  O   UNL     1       2.077   9.012  17.431  0.00  0.00    +0.000 OA
BRANCH  21  23
ATOM     23  C   UNL     1       0.678  10.150  18.890  0.00  0.00    +0.000 A 
ATOM     24  C   UNL     1      -0.679  10.057  18.520  0.00  0.00    +0.000 A 
ATOM     25  C   UNL     1      -1.625  11.016  18.923  0.00  0.00    +0.000 A 
ATOM     26  C   UNL     1      -1.245  12.109  19.710  0.00  0.00    +0.000 A 
ATOM     27  C   UNL     1       0.113  12.218  20.050  0.00  0.00    +0.000 A 
ATOM     28  C   UNL     1       1.059  11.246  19.663  0.00  0.00    +0.000 A 
BRANCH  26  29
ATOM     29  C   UNL     1      -2.237  13.069  20.203  0.00  0.00    +0.000 A 
ATOM     30  C   UNL     1      -3.578  12.995  20.549  0.00  0.00    +0.000 A 
ATOM     31  C   UNL     1      -3.966  14.291  20.983  0.00  0.00    +0.000 A 
ATOM     32  C   UNL     1      -2.844  15.075  20.877  0.00  0.00    +0.000 A 
ATOM     33  O   UNL     1      -1.796  14.349  20.408  0.00  0.00    +0.000 OA
ENDBRANCH  26  29
ENDBRANCH  21  23
ENDBRANCH  18  19
ENDBRANCH   6  18
TORSDOF 12
ENDMDL
MODEL 2
REMARK VINA RESULT:      -7.5      2.178      2.792
REMARK  Name = 
REMARK  14 active torsions:
REMARK  status: ('A' for Active; 'I' for Inactive)
REMARK    1  A    between atoms: C_1  and  C_2
REMARK    2  A    between atoms: C_2  and  C_3
REMARK    3  A    between atoms: C_2  and  C_29
REMARK    4  A    between atoms: C_3  and  C_4
REMARK    5  A    between atoms: C_4  and  C_5
REMARK    6  A    between atoms: C_5  and  O_6
REMARK    7  A    between atoms: O_6  and  C_7
REMARK    8  A    between atoms: C_12  and  C_13
REMARK    9  A    between atoms: C_13  and  N_14
REMARK   10  A    between atoms: N_14  and  C_15
REMARK   11  A    between atoms: C_16  and  C_18
REMARK   12  A    between atoms: C_21  and  C_22
REMARK   13  A    between atoms: C_29  and  C_30
REMARK   14  A    between atoms: C_30  and  O_32
REMARK                            x       y       z     vdW  Elec       q    Type
REMARK                         _______ _______ _______ _____ _____    ______ ____
ROOT
ATOM      1  C   UNL     1       2.534   6.548  18.669  0.00  0.00    +0.000 A 
ATOM      2  C   UNL     1       2.452   5.211  18.240  0.00  0.00    +0.000 A 
ATOM      3  C   UNL     1       1.925   4.220  19.064  0.00  0.00    +0.000 A 
ATOM      4  C   UNL     1       1.496   4.545  20.342  0.00  0.00    +0.000 A 
ATOM      5  C   UNL     1       1.568   5.869  20.787  0.00  0.00    +0.000 A 
ATOM      6  C   UNL     1       2.053   6.897  19.955  0.00  0.00    +0.000 A 
ENDROOT
BRANCH   1   7
ATOM      7  O   UNL     1       3.040   7.554  17.875  0.00  0.00    +0.000 OA
BRANCH   7   8
ATOM      8  C   UNL     1       4.449   7.488  17.607  0.00  0.00    +0.000 C 
BRANCH   8   9
ATOM      9  C   UNL     1       4.717   6.725  16.314  0.00  0.00    +0.000 C 
BRANCH   9  10
ATOM     10  C   UNL     1       6.158   6.214  16.235  0.00  0.00    +0.000 C 
BRANCH  10  12
ATOM     11  C   UNL     1       6.363   3.739  15.645  0.00  0.00    +0.000 C 
ATOM     12  C   UNL     1       6.332   4.777  16.768  0.00  0.00    +0.000 C 
BRANCH  12  13
ATOM     13  C   UNL     1       7.570   4.664  17.674  0.00  0.00    +0.000 C 
BRANCH  13  14
ATOM     14  C   UNL     1       7.458   5.434  18.971  0.00  0.00    +0.000 C 
ATOM     15  O   UNL     1       6.609   5.216  19.823  0.00  0.00    +0.000 OA
BRANCH  14  16
ATOM     16  O   UNL     1       8.375   6.416  19.101  0.00  0.00    +0.000 OA
ATOM     17  H   UNL     1       8.099   7.273  18.726  0.00  0.00    +0.000 HD
ENDBRANCH  14  16
ENDBRANCH  13  14
ENDBRANCH  12  13
ENDBRANCH  10  12
ENDBRANCH   9  10
ENDBRANCH   8   9
ENDBRANCH   7   8
ENDBRANCH   1   7
BRANCH   6  18
ATOM     18  C   UNL     1       1.867   8.330  20.419  0.00  0.00    +0.000 C 
BRANCH  18  19
ATOM     19  N   UNL     1       0.516   8.906  20.276  0.00  0.00    +0.000 N 
ATOM     20  C   UNL     1      -0.346   8.784  21.443  0.00  0.00    +0.000 C 
ATOM     21  C   UNL     1       0.304   9.828  19.233  0.00  0.00    +0.000 C 
ATOM     22  O   UNL     1       1.195  10.084  18.416  0.00  0.00    +0.000 OA
BRANCH  21  23
ATOM     23  C   UNL     1      -0.990  10.570  19.022  0.00  0.00    +0.000 A 
ATOM     24  C   UNL     1      -1.908  10.030  18.100  0.00  0.00    +0.000 A 
ATOM     25  C   UNL     1      -3.205  10.555  17.951  0.00  0.00    +0.000 A 
ATOM     26  C   UNL     1      -3.628  11.645  18.719  0.00  0.00    +0.000 A 
ATOM     27  C   UNL     1      -2.701  12.204  19.613  0.00  0.00    +0.000 A 
ATOM     28  C   UNL     1      -1.408  11.665  19.778  0.00  0.00    +0.000 A 
BRANCH  26  29
ATOM     29  C   UNL     1      -5.002  12.147  18.628  0.00  0.00    +0.000 A 
ATOM     30  C   UNL     1      -5.710  13.169  19.243  0.00  0.00    +0.000 A 
ATOM     31  C   UNL     1      -7.021  13.154  18.694  0.00  0.00    +0.000 A 
ATOM     32  C   UNL     1      -7.034  12.131  17.779  0.00  0.00    +0.000 A 
ATOM     33  O   UNL     1      -5.823  11.517  17.731  0.00  0.00    +0.000 OA
ENDBRANCH  26  29
ENDBRANCH  21  23
ENDBRANCH  18  19
ENDBRANCH   6  18
TORSDOF 12
ENDMDL
MODEL 3
REMARK VINA RESULT:      -7.5      1.924      2.377
REMARK  Name = 
REMARK  14 active torsions:
REMARK  status: ('A' for Active; 'I' for Inactive)
REMARK    1  A    between atoms: C_1  and  C_2
REMARK    2  A    between atoms: C_2  and  C_3
REMARK    3  A    between atoms: C_2  and  C_29
REMARK    4  A    between atoms: C_3  and  C_4
REMARK    5  A    between atoms: C_4  and  C_5
REMARK    6  A    between atoms: C_5  and  O_6
REMARK    7  A    between atoms: O_6  and  C_7
REMARK    8  A    between atoms: C_12  and  C_13
REMARK    9  A    between atoms: C_13  and  N_14
REMARK   10  A    between atoms: N_14  and  C_15
REMARK   11  A    between atoms: C_16  and  C_18
REMARK   12  A    between atoms: C_21  and  C_22
REMARK   13  A    between atoms: C_29  and  C_30
REMARK   14  A    between atoms: C_30  and  O_32
REMARK                            x       y       z     vdW  Elec       q    Type
REMARK                         _______ _______ _______ _____ _____    ______ ____
ROOT
ATOM      1  C   UNL     1       3.490   3.578  18.049  0.00  0.00    +0.000 A 
ATOM      2  C   UNL     1       3.154   2.215  17.967  0.00  0.00    +0.000 A 
ATOM      3  C   UNL     1       1.894   1.758  18.343  0.00  0.00    +0.000 A 
ATOM      4  C   UNL     1       0.956   2.654  18.833  0.00  0.00    +0.000 A 
ATOM      5  C   UNL     1       1.269   4.014  18.922  0.00  0.00    +0.000 A 
ATOM      6  C   UNL     1       2.521   4.507  18.503  0.00  0.00    +0.000 A 
ENDROOT
BRANCH   1   7
ATOM      7  O   UNL     1       4.723   4.064  17.676  0.00  0.00    +0.000 OA
BRANCH   7   8
ATOM      8  C   UNL     1       4.990   4.072  16.265  0.00  0.00    +0.000 C 
BRANCH   8   9
ATOM      9  C   UNL     1       5.358   5.475  15.793  0.00  0.00    +0.000 C 
BRANCH   9  10
ATOM     10  C   UNL     1       5.770   6.383  16.954  0.00  0.00    +0.000 C 
BRANCH  10  12
ATOM     11  C   UNL     1       7.762   7.787  17.716  0.00  0.00    +0.000 C 
ATOM     12  C   UNL     1       7.295   6.429  17.189  0.00  0.00    +0.000 C 
BRANCH  12  13
ATOM     13  C   UNL     1       7.752   5.281  18.105  0.00  0.00    +0.000 C 
BRANCH  13  14
ATOM     14  C   UNL     1       7.285   5.412  19.538  0.00  0.00    +0.000 C 
ATOM     15  O   UNL     1       8.037   5.435  20.502  0.00  0.00    +0.000 OA
BRANCH  14  16
ATOM     16  O   UNL     1       5.943   5.477  19.667  0.00  0.00    +0.000 OA
ATOM     17  H   UNL     1       5.454   4.899  19.053  0.00  0.00    +0.000 HD
ENDBRANCH  14  16
ENDBRANCH  13  14
ENDBRANCH  12  13
ENDBRANCH  10  12
ENDBRANCH   9  10
ENDBRANCH   8   9
ENDBRANCH   7   8
ENDBRANCH   1   7
BRANCH   6  18
ATOM     18  C   UNL     1       2.690   6.012  18.399  0.00  0.00    +0.000 C 
BRANCH  18  19
ATOM     19  N   UNL     1       2.031   6.828  19.436  0.00  0.00    +0.000 N 
ATOM     20  C   UNL     1       2.207   6.365  20.805  0.00  0.00    +0.000 C 
ATOM     21  C   UNL     1       1.641   8.137  19.092  0.00  0.00    +0.000 C 
ATOM     22  O   UNL     1       1.771   8.559  17.937  0.00  0.00    +0.000 OA
BRANCH  21  23
ATOM     23  C   UNL     1       1.048   9.119  20.069  0.00  0.00    +0.000 A 
ATOM     24  C   UNL     1       0.978  10.469  19.673  0.00  0.00    +0.000 A 
ATOM     25  C   UNL     1       0.300  11.432  20.442  0.00  0.00    +0.000 A 
ATOM     26  C   UNL     1      -0.330  11.077  21.640  0.00  0.00    +0.000 A 
ATOM     27  C   UNL     1      -0.230   9.738  22.050  0.00  0.00    +0.000 A 
ATOM     28  C   UNL     1       0.432   8.767  21.269  0.00  0.00    +0.000 A 
BRANCH  26  29
ATOM     29  C   UNL     1      -1.107  12.056  22.406  0.00  0.00    +0.000 A 
ATOM     30  C   UNL     1      -2.453  12.221  22.696  0.00  0.00    +0.000 A 
ATOM     31  C   UNL     1      -2.561  13.372  23.522  0.00  0.00    +0.000 A 
ATOM     32  C   UNL     1      -1.280  13.838  23.688  0.00  0.00    +0.000 A 
ATOM     33  O   UNL     1      -0.396  13.052  23.019  0.00  0.00    +0.000 OA
ENDBRANCH  26  29
ENDBRANCH  21  23
ENDBRANCH  18  19
ENDBRANCH   6  18
TORSDOF 12
ENDMDL
MODEL 4
REMARK VINA RESULT:      -7.2      2.424      4.921
REMARK  Name = 
REMARK  14 active torsions:
REMARK  status: ('A' for Active; 'I' for Inactive)
REMARK    1  A    between atoms: C_1  and  C_2
REMARK    2  A    between atoms: C_2  and  C_3
REMARK    3  A    between atoms: C_2  and  C_29
REMARK    4  A    between atoms: C_3  and  C_4
REMARK    5  A    between atoms: C_4  and  C_5
REMARK    6  A    between atoms: C_5  and  O_6
REMARK    7  A    between atoms: O_6  and  C_7
REMARK    8  A    between atoms: C_12  and  C_13
REMARK    9  A    between atoms: C_13  and  N_14
REMARK   10  A    between atoms: N_14  and  C_15
REMARK   11  A    between atoms: C_16  and  C_18
REMARK   12  A    between atoms: C_21  and  C_22
REMARK   13  A    between atoms: C_29  and  C_30
REMARK   14  A    between atoms: C_30  and  O_32
REMARK                            x       y       z     vdW  Elec       q    Type
REMARK                         _______ _______ _______ _____ _____    ______ ____
ROOT
ATOM      1  C   UNL     1       5.888   5.341  18.962  0.00  0.00    +0.000 A 
ATOM      2  C   UNL     1       7.263   5.619  19.059  0.00  0.00    +0.000 A 
ATOM      3  C   UNL     1       7.847   6.643  18.317  0.00  0.00    +0.000 A 
ATOM      4  C   UNL     1       7.068   7.389  17.445  0.00  0.00    +0.000 A 
ATOM      5  C   UNL     1       5.699   7.130  17.335  0.00  0.00    +0.000 A 
ATOM      6  C   UNL     1       5.077   6.131  18.110  0.00  0.00    +0.000 A 
ENDROOT
BRANCH   1   7
ATOM      7  O   UNL     1       5.278   4.343  19.689  0.00  0.00    +0.000 OA
BRANCH   7   8
ATOM      8  C   UNL     1       4.971   3.142  18.966  0.00  0.00    +0.000 C 
BRANCH   8   9
ATOM      9  C   UNL     1       4.185   2.170  19.841  0.00  0.00    +0.000 C 
BRANCH   9  10
ATOM     10  C   UNL     1       3.347   2.896  20.895  0.00  0.00    +0.000 C 
BRANCH  10  12
ATOM     11  C   UNL     1       1.186   2.522  22.204  0.00  0.00    +0.000 C 
ATOM     12  C   UNL     1       1.842   2.562  20.822  0.00  0.00    +0.000 C 
BRANCH  12  13
ATOM     13  C   UNL     1       1.103   3.524  19.876  0.00  0.00    +0.000 C 
BRANCH  13  14
ATOM     14  C   UNL     1       0.813   2.942  18.510  0.00  0.00    +0.000 C 
ATOM     15  O   UNL     1       0.148   1.934  18.323  0.00  0.00    +0.000 OA
BRANCH  14  16
ATOM     16  O   UNL     1       1.382   3.629  17.496  0.00  0.00    +0.000 OA
ATOM     17  H   UNL     1       0.743   4.025  16.874  0.00  0.00    +0.000 HD
ENDBRANCH  14  16
ENDBRANCH  13  14
ENDBRANCH  12  13
ENDBRANCH  10  12
ENDBRANCH   9  10
ENDBRANCH   8   9
ENDBRANCH   7   8
ENDBRANCH   1   7
BRANCH   6  18
ATOM     18  C   UNL     1       3.560   6.082  18.115  0.00  0.00    +0.000 C 
BRANCH  18  19
ATOM     19  N   UNL     1       2.856   7.316  18.511  0.00  0.00    +0.000 N 
ATOM     20  C   UNL     1       2.534   8.231  17.427  0.00  0.00    +0.000 C 
ATOM     21  C   UNL     1       2.226   7.336  19.771  0.00  0.00    +0.000 C 
ATOM     22  O   UNL     1       2.331   6.383  20.552  0.00  0.00    +0.000 OA
BRANCH  21  23
ATOM     23  C   UNL     1       1.390   8.484  20.271  0.00  0.00    +0.000 A 
ATOM     24  C   UNL     1       0.678   8.298  21.473  0.00  0.00    +0.000 A 
ATOM     25  C   UNL     1       0.001   9.356  22.105  0.00  0.00    +0.000 A 
ATOM     26  C   UNL     1       0.008  10.641  21.553  0.00  0.00    +0.000 A 
ATOM     27  C   UNL     1       0.689  10.818  20.338  0.00  0.00    +0.000 A 
ATOM     28  C   UNL     1       1.386   9.762  19.715  0.00  0.00    +0.000 A 
BRANCH  26  29
ATOM     29  C   UNL     1      -0.627  11.766  22.246  0.00  0.00    +0.000 A 
ATOM     30  C   UNL     1      -1.605  11.885  23.222  0.00  0.00    +0.000 A 
ATOM     31  C   UNL     1      -1.758  13.272  23.489  0.00  0.00    +0.000 A 
ATOM     32  C   UNL     1      -0.868  13.915  22.665  0.00  0.00    +0.000 A 
ATOM     33  O   UNL     1      -0.181  13.017  21.911  0.00  0.00    +0.000 OA
ENDBRANCH  26  29
ENDBRANCH  21  23
ENDBRANCH  18  19
ENDBRANCH   6  18
TORSDOF 12
ENDMDL
MODEL 5
REMARK VINA RESULT:      -7.2      1.443      1.859
REMARK  Name = 
REMARK  14 active torsions:
REMARK  status: ('A' for Active; 'I' for Inactive)
REMARK    1  A    between atoms: C_1  and  C_2
REMARK    2  A    between atoms: C_2  and  C_3
REMARK    3  A    between atoms: C_2  and  C_29
REMARK    4  A    between atoms: C_3  and  C_4
REMARK    5  A    between atoms: C_4  and  C_5
REMARK    6  A    between atoms: C_5  and  O_6
REMARK    7  A    between atoms: O_6  and  C_7
REMARK    8  A    between atoms: C_12  and  C_13
REMARK    9  A    between atoms: C_13  and  N_14
REMARK   10  A    between atoms: N_14  and  C_15
REMARK   11  A    between atoms: C_16  and  C_18
REMARK   12  A    between atoms: C_21  and  C_22
REMARK   13  A    between atoms: C_29  and  C_30
REMARK   14  A    between atoms: C_30  and  O_32
REMARK                            x       y       z     vdW  Elec       q    Type
REMARK                         _______ _______ _______ _____ _____    ______ ____
ROOT
ATOM      1  C   UNL     1       2.124   5.668  18.452  0.00  0.00    +0.000 A 
ATOM      2  C   UNL     1       1.680   4.394  18.054  0.00  0.00    +0.000 A 
ATOM      3  C   UNL     1       1.212   3.470  18.984  0.00  0.00    +0.000 A 
ATOM      4  C   UNL     1       1.205   3.795  20.332  0.00  0.00    +0.000 A 
ATOM      5  C   UNL     1       1.641   5.057  20.748  0.00  0.00    +0.000 A 
ATOM      6  C   UNL     1       2.074   6.025  19.821  0.00  0.00    +0.000 A 
ENDROOT
BRANCH   1   7
ATOM      7  O   UNL     1       2.583   6.609  17.556  0.00  0.00    +0.000 OA
BRANCH   7   8
ATOM      8  C   UNL     1       4.007   6.661  17.380  0.00  0.00    +0.000 C 
BRANCH   8   9
ATOM      9  C   UNL     1       4.517   5.382  16.724  0.00  0.00    +0.000 C 
BRANCH   9  10
ATOM     10  C   UNL     1       5.491   4.622  17.626  0.00  0.00    +0.000 C 
BRANCH  10  12
ATOM     11  C   UNL     1       7.028   5.085  15.640  0.00  0.00    +0.000 C 
ATOM     12  C   UNL     1       6.848   4.322  16.955  0.00  0.00    +0.000 C 
BRANCH  12  13
ATOM     13  C   UNL     1       8.017   4.580  17.921  0.00  0.00    +0.000 C 
BRANCH  13  14
ATOM     14  C   UNL     1       7.757   5.683  18.923  0.00  0.00    +0.000 C 
ATOM     15  O   UNL     1       7.432   5.487  20.085  0.00  0.00    +0.000 OA
BRANCH  14  16
ATOM     16  O   UNL     1       7.892   6.924  18.411  0.00  0.00    +0.000 OA
ATOM     17  H   UNL     1       8.299   7.567  19.022  0.00  0.00    +0.000 HD
ENDBRANCH  14  16
ENDBRANCH  13  14
ENDBRANCH  12  13
ENDBRANCH  10  12
ENDBRANCH   9  10
ENDBRANCH   8   9
ENDBRANCH   7   8
ENDBRANCH   1   7
BRANCH   6  18
ATOM     18  C   UNL     1       2.292   7.440  20.327  0.00  0.00    +0.000 C 
BRANCH  18  19
ATOM     19  N   UNL     1       1.095   8.293  20.453  0.00  0.00    +0.000 N 
ATOM     20  C   UNL     1       0.384   8.194  21.718  0.00  0.00    +0.000 C 
ATOM     21  C   UNL     1       0.961   9.371  19.556  0.00  0.00    +0.000 C 
ATOM     22  O   UNL     1       1.775   9.547  18.643  0.00  0.00    +0.000 OA
BRANCH  21  23
ATOM     23  C   UNL     1      -0.153  10.383  19.624  0.00  0.00    +0.000 A 
ATOM     24  C   UNL     1      -1.147  10.326  18.627  0.00  0.00    +0.000 A 
ATOM     25  C   UNL     1      -2.309  11.117  18.692  0.00  0.00    +0.000 A 
ATOM     26  C   UNL     1      -2.514  11.999  19.758  0.00  0.00    +0.000 A 
ATOM     27  C   UNL     1      -1.508  12.079  20.733  0.00  0.00    +0.000 A 
ATOM     28  C   UNL     1      -0.353  11.272  20.680  0.00  0.00    +0.000 A 
BRANCH  26  29
ATOM     29  C   UNL     1      -3.757  12.767  19.876  0.00  0.00    +0.000 A 
ATOM     30  C   UNL     1      -5.044  12.623  19.380  0.00  0.00    +0.000 A 
ATOM     31  C   UNL     1      -5.808  13.708  19.888  0.00  0.00    +0.000 A 
ATOM     32  C   UNL     1      -4.948  14.445  20.661  0.00  0.00    +0.000 A 
ATOM     33  O   UNL     1      -3.709  13.888  20.661  0.00  0.00    +0.000 OA
ENDBRANCH  26  29
ENDBRANCH  21  23
ENDBRANCH  18  19
ENDBRANCH   6  18
TORSDOF 12
ENDMDL
MODEL 6
REMARK VINA RESULT:      -7.1      2.158      3.071
REMARK  Name = 
REMARK  14 active torsions:
REMARK  status: ('A' for Active; 'I' for Inactive)
REMARK    1  A    between atoms: C_1  and  C_2
REMARK    2  A    between atoms: C_2  and  C_3
REMARK    3  A    between atoms: C_2  and  C_29
REMARK    4  A    between atoms: C_3  and  C_4
REMARK    5  A    between atoms: C_4  and  C_5
REMARK    6  A    between atoms: C_5  and  O_6
REMARK    7  A    between atoms: O_6  and  C_7
REMARK    8  A    between atoms: C_12  and  C_13
REMARK    9  A    between atoms: C_13  and  N_14
REMARK   10  A    between atoms: N_14  and  C_15
REMARK   11  A    between atoms: C_16  and  C_18
REMARK   12  A    between atoms: C_21  and  C_22
REMARK   13  A    between atoms: C_29  and  C_30
REMARK   14  A    between atoms: C_30  and  O_32
REMARK                            x       y       z     vdW  Elec       q    Type
REMARK                         _______ _______ _______ _____ _____    ______ ____
ROOT
ATOM      1  C   UNL     1       3.889   5.051  18.517  0.00  0.00    +0.000 A 
ATOM      2  C   UNL     1       3.979   3.662  18.312  0.00  0.00    +0.000 A 
ATOM      3  C   UNL     1       2.897   2.932  17.826  0.00  0.00    +0.000 A 
ATOM      4  C   UNL     1       1.697   3.575  17.562  0.00  0.00    +0.000 A 
ATOM      5  C   UNL     1       1.587   4.955  17.758  0.00  0.00    +0.000 A 
ATOM      6  C   UNL     1       2.682   5.723  18.203  0.00  0.00    +0.000 A 
ENDROOT
BRANCH   1   7
ATOM      7  O   UNL     1       4.943   5.803  18.985  0.00  0.00    +0.000 OA
BRANCH   7   8
ATOM      8  C   UNL     1       5.993   5.070  19.635  0.00  0.00    +0.000 C 
BRANCH   8   9
ATOM      9  C   UNL     1       7.355   5.465  19.071  0.00  0.00    +0.000 C 
BRANCH   9  10
ATOM     10  C   UNL     1       7.615   4.836  17.701  0.00  0.00    +0.000 C 
BRANCH  10  12
ATOM     11  C   UNL     1       7.092   7.053  16.548  0.00  0.00    +0.000 C 
ATOM     12  C   UNL     1       6.869   5.539  16.548  0.00  0.00    +0.000 C 
BRANCH  12  13
ATOM     13  C   UNL     1       7.229   4.916  15.189  0.00  0.00    +0.000 C 
BRANCH  13  14
ATOM     14  C   UNL     1       6.213   3.918  14.680  0.00  0.00    +0.000 C 
ATOM     15  O   UNL     1       5.644   4.011  13.602  0.00  0.00    +0.000 OA
BRANCH  14  16
ATOM     16  O   UNL     1       5.965   2.909  15.541  0.00  0.00    +0.000 OA
ATOM     17  H   UNL     1       6.307   3.059  16.442  0.00  0.00    +0.000 HD
ENDBRANCH  14  16
ENDBRANCH  13  14
ENDBRANCH  12  13
ENDBRANCH  10  12
ENDBRANCH   9  10
ENDBRANCH   8   9
ENDBRANCH   7   8
ENDBRANCH   1   7
BRANCH   6  18
ATOM     18  C   UNL     1       2.554   7.235  18.152  0.00  0.00    +0.000 C 
BRANCH  18  19
ATOM     19  N   UNL     1       1.845   7.880  19.273  0.00  0.00    +0.000 N 
ATOM     20  C   UNL     1       1.995   7.232  20.567  0.00  0.00    +0.000 C 
ATOM     21  C   UNL     1       1.430   9.216  19.104  0.00  0.00    +0.000 C 
ATOM     22  O   UNL     1       1.581   9.800  18.025  0.00  0.00    +0.000 OA
BRANCH  21  23
ATOM     23  C   UNL     1       0.785  10.036  20.191  0.00  0.00    +0.000 A 
ATOM     24  C   UNL     1       0.788  11.437  20.038  0.00  0.00    +0.000 A 
ATOM     25  C   UNL     1       0.075  12.278  20.911  0.00  0.00    +0.000 A 
ATOM     26  C   UNL     1      -0.665  11.746  21.973  0.00  0.00    +0.000 A 
ATOM     27  C   UNL     1      -0.639  10.353  22.143  0.00  0.00    +0.000 A 
ATOM     28  C   UNL     1       0.059   9.507  21.256  0.00  0.00    +0.000 A 
BRANCH  26  29
ATOM     29  C   UNL     1      -1.476  12.608  22.837  0.00  0.00    +0.000 A 
ATOM     30  C   UNL     1      -1.274  13.828  23.465  0.00  0.00    +0.000 A 
ATOM     31  C   UNL     1      -2.476  14.146  24.151  0.00  0.00    +0.000 A 
ATOM     32  C   UNL     1      -3.338  13.108  23.902  0.00  0.00    +0.000 A 
ATOM     33  O   UNL     1      -2.746  12.175  23.111  0.00  0.00    +0.000 OA
ENDBRANCH  26  29
ENDBRANCH  21  23
ENDBRANCH  18  19
ENDBRANCH   6  18
TORSDOF 12
ENDMDL
MODEL 7
REMARK VINA RESULT:      -7.1      1.201      1.721
REMARK  Name = 
REMARK  14 active torsions:
REMARK  status: ('A' for Active; 'I' for Inactive)
REMARK    1  A    between atoms: C_1  and  C_2
REMARK    2  A    between atoms: C_2  and  C_3
REMARK    3  A    between atoms: C_2  and  C_29
REMARK    4  A    between atoms: C_3  and  C_4
REMARK    5  A    between atoms: C_4  and  C_5
REMARK    6  A    between atoms: C_5  and  O_6
REMARK    7  A    between atoms: O_6  and  C_7
REMARK    8  A    between atoms: C_12  and  C_13
REMARK    9  A    between atoms: C_13  and  N_14
REMARK   10  A    between atoms: N_14  and  C_15
REMARK   11  A    between atoms: C_16  and  C_18
REMARK   12  A    between atoms: C_21  and  C_22
REMARK   13  A    between atoms: C_29  and  C_30
REMARK   14  A    between atoms: C_30  and  O_32
REMARK                            x       y       z     vdW  Elec       q    Type
REMARK                         _______ _______ _______ _____ _____    ______ ____
ROOT
ATOM      1  C   UNL     1       3.285   4.169  19.568  0.00  0.00    +0.000 A 
ATOM      2  C   UNL     1       2.770   2.922  19.967  0.00  0.00    +0.000 A 
ATOM      3  C   UNL     1       1.489   2.808  20.503  0.00  0.00    +0.000 A 
ATOM      4  C   UNL     1       0.713   3.944  20.674  0.00  0.00    +0.000 A 
ATOM      5  C   UNL     1       1.206   5.193  20.283  0.00  0.00    +0.000 A 
ATOM      6  C   UNL     1       2.479   5.327  19.694  0.00  0.00    +0.000 A 
ENDROOT
BRANCH   1   7
ATOM      7  O   UNL     1       4.542   4.314  19.025  0.00  0.00    +0.000 OA
BRANCH   7   8
ATOM      8  C   UNL     1       4.872   3.407  17.962  0.00  0.00    +0.000 C 
BRANCH   8   9
ATOM      9  C   UNL     1       4.252   3.868  16.646  0.00  0.00    +0.000 C 
BRANCH   9  10
ATOM     10  C   UNL     1       5.125   4.901  15.931  0.00  0.00    +0.000 C 
BRANCH  10  12
ATOM     11  C   UNL     1       7.012   4.865  14.211  0.00  0.00    +0.000 C 
ATOM     12  C   UNL     1       6.535   4.381  15.582  0.00  0.00    +0.000 C 
BRANCH  12  13
ATOM     13  C   UNL     1       7.547   4.730  16.687  0.00  0.00    +0.000 C 
BRANCH  13  14
ATOM     14  C   UNL     1       7.371   6.116  17.268  0.00  0.00    +0.000 C 
ATOM     15  O   UNL     1       7.663   7.146  16.677  0.00  0.00    +0.000 OA
BRANCH  14  16
ATOM     16  O   UNL     1       6.880   6.119  18.525  0.00  0.00    +0.000 OA
ATOM     17  H   UNL     1       6.058   6.634  18.631  0.00  0.00    +0.000 HD
ENDBRANCH  14  16
ENDBRANCH  13  14
ENDBRANCH  12  13
ENDBRANCH  10  12
ENDBRANCH   9  10
ENDBRANCH   8   9
ENDBRANCH   7   8
ENDBRANCH   1   7
BRANCH   6  18
ATOM     18  C   UNL     1       2.835   6.667  19.075  0.00  0.00    +0.000 C 
BRANCH  18  19
ATOM     19  N   UNL     1       1.975   7.812  19.430  0.00  0.00    +0.000 N 
ATOM     20  C   UNL     1       1.739   8.003  20.853  0.00  0.00    +0.000 C 
ATOM     21  C   UNL     1       1.784   8.814  18.458  0.00  0.00    +0.000 C 
ATOM     22  O   UNL     1       2.253   8.697  17.321  0.00  0.00    +0.000 OA
BRANCH  21  23
ATOM     23  C   UNL     1       1.016  10.085  18.707  0.00  0.00    +0.000 A 
ATOM     24  C   UNL     1      -0.349   9.968  19.035  0.00  0.00    +0.000 A 
ATOM     25  C   UNL     1      -1.112  11.078  19.441  0.00  0.00    +0.000 A 
ATOM     26  C   UNL     1      -0.535  12.349  19.529  0.00  0.00    +0.000 A 
ATOM     27  C   UNL     1       0.817  12.470  19.170  0.00  0.00    +0.000 A 
ATOM     28  C   UNL     1       1.588  11.354  18.782  0.00  0.00    +0.000 A 
BRANCH  26  29
ATOM     29  C   UNL     1      -1.300  13.495  20.029  0.00  0.00    +0.000 A 
ATOM     30  C   UNL     1      -2.522  13.650  20.666  0.00  0.00    +0.000 A 
ATOM     31  C   UNL     1      -2.688  15.039  20.912  0.00  0.00    +0.000 A 
ATOM     32  C   UNL     1      -1.563  15.647  20.415  0.00  0.00    +0.000 A 
ATOM     33  O   UNL     1      -0.719  14.726  19.880  0.00  0.00    +0.000 OA
ENDBRANCH  26  29
ENDBRANCH  21  23
ENDBRANCH  18  19
ENDBRANCH   6  18
TORSDOF 12
ENDMDL
MODEL 8
REMARK VINA RESULT:      -7.0      2.859      4.821
REMARK  Name = 
REMARK  14 active torsions:
REMARK  status: ('A' for Active; 'I' for Inactive)
REMARK    1  A    between atoms: C_1  and  C_2
REMARK    2  A    between atoms: C_2  and  C_3
REMARK    3  A    between atoms: C_2  and  C_29
REMARK    4  A    between atoms: C_3  and  C_4
REMARK    5  A    between atoms: C_4  and  C_5
REMARK    6  A    between atoms: C_5  and  O_6
REMARK    7  A    between atoms: O_6  and  C_7
REMARK    8  A    between atoms: C_12  and  C_13
REMARK    9  A    between atoms: C_13  and  N_14
REMARK   10  A    between atoms: N_14  and  C_15
REMARK   11  A    between atoms: C_16  and  C_18
REMARK   12  A    between atoms: C_21  and  C_22
REMARK   13  A    between atoms: C_29  and  C_30
REMARK   14  A    between atoms: C_30  and  O_32
REMARK                            x       y       z     vdW  Elec       q    Type
REMARK                         _______ _______ _______ _____ _____    ______ ____
ROOT
ATOM      1  C   UNL     1       5.984   6.379  17.161  0.00  0.00    +0.000 A 
ATOM      2  C   UNL     1       7.364   6.417  17.431  0.00  0.00    +0.000 A 
ATOM      3  C   UNL     1       7.876   5.950  18.639  0.00  0.00    +0.000 A 
ATOM      4  C   UNL     1       7.013   5.461  19.608  0.00  0.00    +0.000 A 
ATOM      5  C   UNL     1       5.638   5.413  19.358  0.00  0.00    +0.000 A 
ATOM      6  C   UNL     1       5.101   5.836  18.125  0.00  0.00    +0.000 A 
ENDROOT
BRANCH   1   7
ATOM      7  O   UNL     1       5.447   6.823  15.973  0.00  0.00    +0.000 OA
BRANCH   7   8
ATOM      8  C   UNL     1       5.334   5.840  14.932  0.00  0.00    +0.000 C 
BRANCH   8   9
ATOM      9  C   UNL     1       6.409   4.768  15.083  0.00  0.00    +0.000 C 
BRANCH   9  10
ATOM     10  C   UNL     1       6.278   3.670  14.025  0.00  0.00    +0.000 C 
BRANCH  10  12
ATOM     11  C   UNL     1       7.746   5.165  12.566  0.00  0.00    +0.000 C 
ATOM     12  C   UNL     1       6.601   4.150  12.595  0.00  0.00    +0.000 C 
BRANCH  12  13
ATOM     13  C   UNL     1       6.877   2.963  11.657  0.00  0.00    +0.000 C 
BRANCH  13  14
ATOM     14  C   UNL     1       5.677   2.074  11.418  0.00  0.00    +0.000 C 
ATOM     15  O   UNL     1       5.741   0.860  11.291  0.00  0.00    +0.000 OA
BRANCH  14  16
ATOM     16  O   UNL     1       4.511   2.748  11.332  0.00  0.00    +0.000 OA
ATOM     17  H   UNL     1       3.875   2.366  10.699  0.00  0.00    +0.000 HD
ENDBRANCH  14  16
ENDBRANCH  13  14
ENDBRANCH  12  13
ENDBRANCH  10  12
ENDBRANCH   9  10
ENDBRANCH   8   9
ENDBRANCH   7   8
ENDBRANCH   1   7
BRANCH   6  18
ATOM     18  C   UNL     1       3.643   5.521  17.844  0.00  0.00    +0.000 C 
BRANCH  18  19
ATOM     19  N   UNL     1       2.640   6.238  18.654  0.00  0.00    +0.000 N 
ATOM     20  C   UNL     1       2.218   5.563  19.872  0.00  0.00    +0.000 C 
ATOM     21  C   UNL     1       2.471   7.616  18.419  0.00  0.00    +0.000 C 
ATOM     22  O   UNL     1       3.082   8.188  17.509  0.00  0.00    +0.000 OA
BRANCH  21  23
ATOM     23  C   UNL     1       1.559   8.499  19.231  0.00  0.00    +0.000 A 
ATOM     24  C   UNL     1       1.580   8.344  20.631  0.00  0.00    +0.000 A 
ATOM     25  C   UNL     1       0.890   9.224  21.484  0.00  0.00    +0.000 A 
ATOM     26  C   UNL     1       0.148  10.290  20.964  0.00  0.00    +0.000 A 
ATOM     27  C   UNL     1       0.101  10.423  19.567  0.00  0.00    +0.000 A 
ATOM     28  C   UNL     1       0.809   9.553  18.712  0.00  0.00    +0.000 A 
BRANCH  26  29
ATOM     29  C   UNL     1      -0.507  11.259  21.848  0.00  0.00    +0.000 A 
ATOM     30  C   UNL     1      -1.392  11.167  22.911  0.00  0.00    +0.000 A 
ATOM     31  C   UNL     1      -1.633  12.491  23.366  0.00  0.00    +0.000 A 
ATOM     32  C   UNL     1      -0.883  13.310  22.558  0.00  0.00    +0.000 A 
ATOM     33  O   UNL     1      -0.201  12.578  21.639  0.00  0.00    +0.000 OA
ENDBRANCH  26  29
ENDBRANCH  21  23
ENDBRANCH  18  19
ENDBRANCH   6  18
TORSDOF 12
ENDMDL
MODEL 9
REMARK VINA RESULT:      -7.0      0.891      1.283
REMARK  Name = 
REMARK  14 active torsions:
REMARK  status: ('A' for Active; 'I' for Inactive)
REMARK    1  A    between atoms: C_1  and  C_2
REMARK    2  A    between atoms: C_2  and  C_3
REMARK    3  A    between atoms: C_2  and  C_29
REMARK    4  A    between atoms: C_3  and  C_4
REMARK    5  A    between atoms: C_4  and  C_5
REMARK    6  A    between atoms: C_5  and  O_6
REMARK    7  A    between atoms: O_6  and  C_7
REMARK    8  A    between atoms: C_12  and  C_13
REMARK    9  A    between atoms: C_13  and  N_14
REMARK   10  A    between atoms: N_14  and  C_15
REMARK   11  A    between atoms: C_16  and  C_18
REMARK   12  A    between atoms: C_21  and  C_22
REMARK   13  A    between atoms: C_29  and  C_30
REMARK   14  A    between atoms: C_30  and  O_32
REMARK                            x       y       z     vdW  Elec       q    Type
REMARK                         _______ _______ _______ _____ _____    ______ ____
ROOT
ATOM      1  C   UNL     1       2.164   4.530  18.423  0.00  0.00    +0.000 A 
ATOM      2  C   UNL     1       1.476   3.309  18.550  0.00  0.00    +0.000 A 
ATOM      3  C   UNL     1       0.868   2.945  19.749  0.00  0.00    +0.000 A 
ATOM      4  C   UNL     1       0.962   3.783  20.850  0.00  0.00    +0.000 A 
ATOM      5  C   UNL     1       1.640   5.001  20.744  0.00  0.00    +0.000 A 
ATOM      6  C   UNL     1       2.222   5.413  19.528  0.00  0.00    +0.000 A 
ENDROOT
BRANCH   1   7
ATOM      7  O   UNL     1       2.767   4.925  17.250  0.00  0.00    +0.000 OA
BRANCH   7   8
ATOM      8  C   UNL     1       3.856   4.104  16.800  0.00  0.00    +0.000 C 
BRANCH   8   9
ATOM      9  C   UNL     1       5.031   4.188  17.770  0.00  0.00    +0.000 C 
BRANCH   9  10
ATOM     10  C   UNL     1       6.358   3.832  17.097  0.00  0.00    +0.000 C 
BRANCH  10  12
ATOM     11  C   UNL     1       6.871   5.436  15.178  0.00  0.00    +0.000 C 
ATOM     12  C   UNL     1       7.164   5.063  16.632  0.00  0.00    +0.000 C 
BRANCH  12  13
ATOM     13  C   UNL     1       6.947   6.259  17.575  0.00  0.00    +0.000 C 
BRANCH  13  14
ATOM     14  C   UNL     1       7.828   6.243  18.804  0.00  0.00    +0.000 C 
ATOM     15  O   UNL     1       7.890   5.308  19.589  0.00  0.00    +0.000 OA
BRANCH  14  16
ATOM     16  O   UNL     1       8.537   7.379  18.979  0.00  0.00    +0.000 OA
ATOM     17  H   UNL     1       8.793   7.822  18.148  0.00  0.00    +0.000 HD
ENDBRANCH  14  16
ENDBRANCH  13  14
ENDBRANCH  12  13
ENDBRANCH  10  12
ENDBRANCH   9  10
ENDBRANCH   8   9
ENDBRANCH   7   8
ENDBRANCH   1   7
BRANCH   6  18
ATOM     18  C   UNL     1       2.718   6.845  19.432  0.00  0.00    +0.000 C 
BRANCH  18  19
ATOM     19  N   UNL     1       1.761   7.906  19.798  0.00  0.00    +0.000 N 
ATOM     20  C   UNL     1       1.465   8.022  21.218  0.00  0.00    +0.000 C 
ATOM     21  C   UNL     1       1.525   8.929  18.859  0.00  0.00    +0.000 C 
ATOM     22  O   UNL     1       2.038   8.894  17.735  0.00  0.00    +0.000 OA
BRANCH  21  23
ATOM     23  C   UNL     1       0.653  10.127  19.127  0.00  0.00    +0.000 A 
ATOM     24  C   UNL     1      -0.700  10.048  18.743  0.00  0.00    +0.000 A 
ATOM     25  C   UNL     1      -1.630  11.044  19.093  0.00  0.00    +0.000 A 
ATOM     26  C   UNL     1      -1.236  12.160  19.839  0.00  0.00    +0.000 A 
ATOM     27  C   UNL     1       0.120  12.255  20.192  0.00  0.00    +0.000 A 
ATOM     28  C   UNL     1       1.048  11.246  19.859  0.00  0.00    +0.000 A 
BRANCH  26  29
ATOM     29  C   UNL     1      -2.213  13.161  20.277  0.00  0.00    +0.000 A 
ATOM     30  C   UNL     1      -3.575  13.147  20.536  0.00  0.00    +0.000 A 
ATOM     31  C   UNL     1      -3.930  14.457  20.958  0.00  0.00    +0.000 A 
ATOM     32  C   UNL     1      -2.769  15.188  20.933  0.00  0.00    +0.000 A 
ATOM     33  O   UNL     1      -1.728  14.418  20.524  0.00  0.00    +0.000 OA
ENDBRANCH  26  29
ENDBRANCH  21  23
ENDBRANCH  18  19
ENDBRANCH   6  18
TORSDOF 12
ENDMDL
