MODEL 1
REMARK VINA RESULT:      -7.2      0.000      0.000
REMARK  Name = 
REMARK  6 active torsions:
REMARK  status: ('A' for Active; 'I' for Inactive)
REMARK    1  A    between atoms: N_1  and  S_2
REMARK    2  A    between atoms: S_2  and  C_5
REMARK    3  A    between atoms: C_8  and  N_9
REMARK    4  A    between atoms: N_9  and  C_10
REMARK    5  A    between atoms: C_11  and  C_12
REMARK    6  A    between atoms: C_12  and  C_14
REMARK                            x       y       z     vdW  Elec       q    Type
REMARK                         _______ _______ _______ _____ _____    ______ ____
ROOT
ATOM      1  C   UNL     1       5.586   5.014  17.168  0.00  0.00    +0.000 A 
ATOM      2  C   UNL     1       4.262   5.351  16.883  0.00  0.00    +0.000 A 
ATOM      3  C   UNL     1       3.422   5.767  17.924  0.00  0.00    +0.000 A 
ATOM      4  C   UNL     1       3.882   5.830  19.250  0.00  0.00    +0.000 A 
ATOM      5  C   UNL     1       5.202   5.438  19.512  0.00  0.00    +0.000 A 
ATOM      6  C   UNL     1       6.056   5.043  18.481  0.00  0.00    +0.000 A 
ENDROOT
BRANCH   1   7
ATOM      7  S   UNL     1       6.718   4.645  15.859  0.00  0.00    +0.000 S 
ATOM      8  O   UNL     1       8.016   4.372  16.418  0.00  0.00    +0.000 OA
ATOM      9  O   UNL     1       6.508   5.586  14.780  0.00  0.00    +0.000 OA
BRANCH   7  10
ATOM     10  N   UNL     1       6.093   3.188  15.283  0.00  0.00    +0.000 NA
ATOM     11  H   UNL     1       5.312   3.390  14.655  0.00  0.00    +0.000 HD
ATOM     12  H   UNL     1       5.809   2.585  16.056  0.00  0.00    +0.000 HD
ENDBRANCH   7  10
ENDBRANCH   1   7
BRANCH   4  13
ATOM     13  N   UNL     1       2.991   6.198  20.268  0.00  0.00    +0.000 N 
ATOM     14  H   UNL     1       3.354   6.813  21.002  0.00  0.00    +0.000 HD
BRANCH  13  15
ATOM     15  C   UNL     1       1.658   5.905  20.374  0.00  0.00    +0.000 C 
ATOM     16  C   UNL     1       1.096   4.754  20.758  0.00  0.00    +0.000 C 
BRANCH  16  17
ATOM     17  C   UNL     1       1.917   3.570  21.121  0.00  0.00    +0.000 C 
ATOM     18  O   UNL     1       2.039   3.188  22.280  0.00  0.00    +0.000 OA
BRANCH  17  19
ATOM     19  C   UNL     1       2.569   2.824  20.015  0.00  0.00    +0.000 A 
ATOM     20  C   UNL     1       3.846   2.272  20.133  0.00  0.00    +0.000 A 
ATOM     21  C   UNL     1       4.358   1.591  19.043  0.00  0.00    +0.000 A 
ATOM     22  N   UNL     1       3.694   1.433  17.878  0.00  0.00    +0.000 NA
ATOM     23  C   UNL     1       2.452   1.957  17.800  0.00  0.00    +0.000 A 
ATOM     24  C   UNL     1       1.848   2.650  18.832  0.00  0.00    +0.000 A 
ENDBRANCH  17  19
ENDBRANCH  16  17
ENDBRANCH  13  15
ENDBRANCH   4  13
TORSDOF 6
ENDMDL
MODEL 2
REMARK VINA RESULT:      -7.1      0.818      1.357
REMARK  Name = 
REMARK  6 active torsions:
REMARK  status: ('A' for Active; 'I' for Inactive)
REMARK    1  A    between atoms: N_1  and  S_2
REMARK    2  A    between atoms: S_2  and  C_5
REMARK    3  A    between atoms: C_8  and  N_9
REMARK    4  A    between atoms: N_9  and  C_10
REMARK    5  A    between atoms: C_11  and  C_12
REMARK    6  A    between atoms: C_12  and  C_14
REMARK                            x       y       z     vdW  Elec       q    Type
REMARK                         _______ _______ _______ _____ _____    ______ ____
ROOT
ATOM      1  C   UNL     1       5.612   5.123  17.304  0.00  0.00    +0.000 A 
ATOM      2  C   UNL     1       4.399   5.708  16.937  0.00  0.00    +0.000 A 
ATOM      3  C   UNL     1       3.513   6.131  17.937  0.00  0.00    +0.000 A 
ATOM      4  C   UNL     1       3.815   5.958  19.298  0.00  0.00    +0.000 A 
ATOM      5  C   UNL     1       5.018   5.323  19.634  0.00  0.00    +0.000 A 
ATOM      6  C   UNL     1       5.920   4.916  18.649  0.00  0.00    +0.000 A 
ENDROOT
BRANCH   1   7
ATOM      7  S   UNL     1       6.824   4.729  16.076  0.00  0.00    +0.000 S 
ATOM      8  O   UNL     1       7.306   5.946  15.479  0.00  0.00    +0.000 OA
ATOM      9  O   UNL     1       6.352   3.605  15.298  0.00  0.00    +0.000 OA
BRANCH   7  10
ATOM     10  N   UNL     1       8.066   4.099  17.027  0.00  0.00    +0.000 NA
ATOM     11  H   UNL     1       8.822   4.786  17.078  0.00  0.00    +0.000 HD
ATOM     12  H   UNL     1       8.392   3.207  16.652  0.00  0.00    +0.000 HD
ENDBRANCH   7  10
ENDBRANCH   1   7
BRANCH   4  13
ATOM     13  N   UNL     1       2.874   6.345  20.263  0.00  0.00    +0.000 N 
ATOM     14  H   UNL     1       3.184   7.020  20.968  0.00  0.00    +0.000 HD
BRANCH  13  15
ATOM     15  C   UNL     1       1.553   5.996  20.347  0.00  0.00    +0.000 C 
ATOM     16  C   UNL     1       1.034   4.815  20.696  0.00  0.00    +0.000 C 
BRANCH  16  17
ATOM     17  C   UNL     1       1.897   3.657  21.041  0.00  0.00    +0.000 C 
ATOM     18  O   UNL     1       2.102   3.314  22.200  0.00  0.00    +0.000 OA
BRANCH  17  19
ATOM     19  C   UNL     1       2.488   2.884  19.917  0.00  0.00    +0.000 A 
ATOM     20  C   UNL     1       1.902   2.835  18.652  0.00  0.00    +0.000 A 
ATOM     21  C   UNL     1       2.538   2.090  17.675  0.00  0.00    +0.000 A 
ATOM     22  N   UNL     1       3.687   1.412  17.878  0.00  0.00    +0.000 NA
ATOM     23  C   UNL     1       4.243   1.495  19.106  0.00  0.00    +0.000 A 
ATOM     24  C   UNL     1       3.692   2.216  20.148  0.00  0.00    +0.000 A 
ENDBRANCH  17  19
ENDBRANCH  16  17
ENDBRANCH  13  15
ENDBRANCH   4  13
TORSDOF 6
ENDMDL
MODEL 3
REMARK VINA RESULT:      -7.1      0.821      1.716
REMARK  Name = 
REMARK  6 active torsions:
REMARK  status: ('A' for Active; 'I' for Inactive)
REMARK    1  A    between atoms: N_1  and  S_2
REMARK    2  A    between atoms: S_2  and  C_5
REMARK    3  A    between atoms: C_8  and  N_9
REMARK    4  A    between atoms: N_9  and  C_10
REMARK    5  A    between atoms: C_11  and  C_12
REMARK    6  A    between atoms: C_12  and  C_14
REMARK                            x       y       z     vdW  Elec       q    Type
REMARK                         _______ _______ _______ _____ _____    ______ ____
ROOT
ATOM      1  C   UNL     1       5.678   5.297  17.299  0.00  0.00    +0.000 A 
ATOM      2  C   UNL     1       5.976   5.116  18.651  0.00  0.00    +0.000 A 
ATOM      3  C   UNL     1       5.015   5.451  19.614  0.00  0.00    +0.000 A 
ATOM      4  C   UNL     1       3.769   5.985  19.245  0.00  0.00    +0.000 A 
ATOM      5  C   UNL     1       3.519   6.201  17.884  0.00  0.00    +0.000 A 
ATOM      6  C   UNL     1       4.458   5.851  16.912  0.00  0.00    +0.000 A 
ENDROOT
BRANCH   1   7
ATOM      7  S   UNL     1       6.799   4.732  16.052  0.00  0.00    +0.000 S 
ATOM      8  O   UNL     1       7.327   5.867  15.341  0.00  0.00    +0.000 OA
ATOM      9  O   UNL     1       6.217   3.588  15.384  0.00  0.00    +0.000 OA
BRANCH   7  10
ATOM     10  N   UNL     1       8.044   4.092  16.991  0.00  0.00    +0.000 NA
ATOM     11  H   UNL     1       8.928   4.208  16.490  0.00  0.00    +0.000 HD
ATOM     12  H   UNL     1       7.863   3.111  17.212  0.00  0.00    +0.000 HD
ENDBRANCH   7  10
ENDBRANCH   1   7
BRANCH   4  13
ATOM     13  N   UNL     1       2.860   6.358  20.246  0.00  0.00    +0.000 N 
ATOM     14  H   UNL     1       3.194   7.019  20.953  0.00  0.00    +0.000 HD
BRANCH  13  15
ATOM     15  C   UNL     1       1.541   6.013  20.364  0.00  0.00    +0.000 C 
ATOM     16  C   UNL     1       1.028   4.831  20.720  0.00  0.00    +0.000 C 
BRANCH  16  17
ATOM     17  C   UNL     1       1.898   3.668  21.034  0.00  0.00    +0.000 C 
ATOM     18  O   UNL     1       2.121   3.310  22.186  0.00  0.00    +0.000 OA
BRANCH  17  19
ATOM     19  C   UNL     1       2.470   2.912  19.891  0.00  0.00    +0.000 A 
ATOM     20  C   UNL     1       1.852   2.862  18.641  0.00  0.00    +0.000 A 
ATOM     21  C   UNL     1       2.473   2.132  17.642  0.00  0.00    +0.000 A 
ATOM     22  N   UNL     1       3.637   1.470  17.812  0.00  0.00    +0.000 NA
ATOM     23  C   UNL     1       4.224   1.554  19.025  0.00  0.00    +0.000 A 
ATOM     24  C   UNL     1       3.690   2.260  20.086  0.00  0.00    +0.000 A 
ENDBRANCH  17  19
ENDBRANCH  16  17
ENDBRANCH  13  15
ENDBRANCH   4  13
TORSDOF 6
ENDMDL
MODEL 4
REMARK VINA RESULT:      -7.1      1.722      3.859
REMARK  Name = 
REMARK  6 active torsions:
REMARK  status: ('A' for Active; 'I' for Inactive)
REMARK    1  A    between atoms: N_1  and  S_2
REMARK    2  A    between atoms: S_2  and  C_5
REMARK    3  A    between atoms: C_8  and  N_9
REMARK    4  A    between atoms: N_9  and  C_10
REMARK    5  A    between atoms: C_11  and  C_12
REMARK    6  A    between atoms: C_12  and  C_14
REMARK                            x       y       z     vdW  Elec       q    Type
REMARK                         _______ _______ _______ _____ _____    ______ ____
ROOT
ATOM      1  C   UNL     1       5.415   4.463  17.086  0.00  0.00    +0.000 A 
ATOM      2  C   UNL     1       5.603   4.215  18.446  0.00  0.00    +0.000 A 
ATOM      3  C   UNL     1       4.633   3.489  19.149  0.00  0.00    +0.000 A 
ATOM      4  C   UNL     1       3.467   3.027  18.516  0.00  0.00    +0.000 A 
ATOM      5  C   UNL     1       3.284   3.335  17.161  0.00  0.00    +0.000 A 
ATOM      6  C   UNL     1       4.253   4.038  16.443  0.00  0.00    +0.000 A 
ENDROOT
BRANCH   1   7
ATOM      7  S   UNL     1       6.693   5.230  16.131  0.00  0.00    +0.000 S 
ATOM      8  O   UNL     1       6.196   5.503  14.808  0.00  0.00    +0.000 OA
ATOM      9  O   UNL     1       7.939   4.538  16.375  0.00  0.00    +0.000 OA
BRANCH   7  10
ATOM     10  N   UNL     1       6.860   6.707  16.928  0.00  0.00    +0.000 NA
ATOM     11  H   UNL     1       7.463   7.316  16.370  0.00  0.00    +0.000 HD
ATOM     12  H   UNL     1       7.232   6.570  17.869  0.00  0.00    +0.000 HD
ENDBRANCH   7  10
ENDBRANCH   1   7
BRANCH   4  13
ATOM     13  N   UNL     1       2.497   2.354  19.272  0.00  0.00    +0.000 N 
ATOM     14  H   UNL     1       2.792   1.495  19.744  0.00  0.00    +0.000 HD
BRANCH  13  15
ATOM     15  C   UNL     1       1.208   2.737  19.531  0.00  0.00    +0.000 C 
ATOM     16  C   UNL     1       0.789   3.805  20.215  0.00  0.00    +0.000 C 
BRANCH  16  17
ATOM     17  C   UNL     1       1.746   4.760  20.832  0.00  0.00    +0.000 C 
ATOM     18  O   UNL     1       2.516   4.429  21.728  0.00  0.00    +0.000 OA
BRANCH  17  19
ATOM     19  C   UNL     1       1.772   6.145  20.297  0.00  0.00    +0.000 A 
ATOM     20  C   UNL     1       1.253   7.232  21.004  0.00  0.00    +0.000 A 
ATOM     21  C   UNL     1       1.333   8.482  20.416  0.00  0.00    +0.000 A 
ATOM     22  N   UNL     1       1.883   8.706  19.204  0.00  0.00    +0.000 NA
ATOM     23  C   UNL     1       2.398   7.641  18.553  0.00  0.00    +0.000 A 
ATOM     24  C   UNL     1       2.373   6.353  19.054  0.00  0.00    +0.000 A 
ENDBRANCH  17  19
ENDBRANCH  16  17
ENDBRANCH  13  15
ENDBRANCH   4  13
TORSDOF 6
ENDMDL
MODEL 5
REMARK VINA RESULT:      -7.0      0.781      1.416
REMARK  Name = 
REMARK  6 active torsions:
REMARK  status: ('A' for Active; 'I' for Inactive)
REMARK    1  A    between atoms: N_1  and  S_2
REMARK    2  A    between atoms: S_2  and  C_5
REMARK    3  A    between atoms: C_8  and  N_9
REMARK    4  A    between atoms: N_9  and  C_10
REMARK    5  A    between atoms: C_11  and  C_12
REMARK    6  A    between atoms: C_12  and  C_14
REMARK                            x       y       z     vdW  Elec       q    Type
REMARK                         _______ _______ _______ _____ _____    ______ ____
ROOT
ATOM      1  C   UNL     1       5.519   4.838  17.152  0.00  0.00    +0.000 A 
ATOM      2  C   UNL     1       4.200   5.205  16.882  0.00  0.00    +0.000 A 
ATOM      3  C   UNL     1       3.394   5.679  17.926  0.00  0.00    +0.000 A 
ATOM      4  C   UNL     1       3.884   5.769  19.240  0.00  0.00    +0.000 A 
ATOM      5  C   UNL     1       5.196   5.347  19.488  0.00  0.00    +0.000 A 
ATOM      6  C   UNL     1       6.017   4.894  18.453  0.00  0.00    +0.000 A 
ENDROOT
BRANCH   1   7
ATOM      7  S   UNL     1       6.612   4.395  15.832  0.00  0.00    +0.000 S 
ATOM      8  O   UNL     1       6.056   3.279  15.112  0.00  0.00    +0.000 OA
ATOM      9  O   UNL     1       7.972   4.413  16.326  0.00  0.00    +0.000 OA
BRANCH   7  10
ATOM     10  N   UNL     1       6.499   5.752  14.838  0.00  0.00    +0.000 NA
ATOM     11  H   UNL     1       6.362   5.443  13.873  0.00  0.00    +0.000 HD
ATOM     12  H   UNL     1       7.330   6.338  14.931  0.00  0.00    +0.000 HD
ENDBRANCH   7  10
ENDBRANCH   1   7
BRANCH   4  13
ATOM     13  N   UNL     1       3.025   6.196  20.263  0.00  0.00    +0.000 N 
ATOM     14  H   UNL     1       3.419   6.828  20.966  0.00  0.00    +0.000 HD
BRANCH  13  15
ATOM     15  C   UNL     1       1.688   5.939  20.410  0.00  0.00    +0.000 C 
ATOM     16  C   UNL     1       1.107   4.802  20.806  0.00  0.00    +0.000 C 
BRANCH  16  17
ATOM     17  C   UNL     1       1.906   3.595  21.140  0.00  0.00    +0.000 C 
ATOM     18  O   UNL     1       2.065   3.213  22.295  0.00  0.00    +0.000 OA
BRANCH  17  19
ATOM     19  C   UNL     1       2.486   2.824  20.011  0.00  0.00    +0.000 A 
ATOM     20  C   UNL     1       1.809   2.635  18.805  0.00  0.00    +0.000 A 
ATOM     21  C   UNL     1       2.443   1.904  17.816  0.00  0.00    +0.000 A 
ATOM     22  N   UNL     1       3.674   1.368  17.953  0.00  0.00    +0.000 NA
ATOM     23  C   UNL     1       4.315   1.585  19.121  0.00  0.00    +0.000 A 
ATOM     24  C   UNL     1       3.773   2.304  20.169  0.00  0.00    +0.000 A 
ENDBRANCH  17  19
ENDBRANCH  16  17
ENDBRANCH  13  15
ENDBRANCH   4  13
TORSDOF 6
ENDMDL
MODEL 6
REMARK VINA RESULT:      -7.0      1.623      3.686
REMARK  Name = 
REMARK  6 active torsions:
REMARK  status: ('A' for Active; 'I' for Inactive)
REMARK    1  A    between atoms: N_1  and  S_2
REMARK    2  A    between atoms: S_2  and  C_5
REMARK    3  A    between atoms: C_8  and  N_9
REMARK    4  A    between atoms: N_9  and  C_10
REMARK    5  A    between atoms: C_11  and  C_12
REMARK    6  A    between atoms: C_12  and  C_14
REMARK                            x       y       z     vdW  Elec       q    Type
REMARK                         _______ _______ _______ _____ _____    ______ ____
ROOT
ATOM      1  C   UNL     1       5.596   4.547  17.301  0.00  0.00    +0.000 A 
ATOM      2  C   UNL     1       5.659   4.304  18.674  0.00  0.00    +0.000 A 
ATOM      3  C   UNL     1       4.693   3.482  19.269  0.00  0.00    +0.000 A 
ATOM      4  C   UNL     1       3.652   2.918  18.513  0.00  0.00    +0.000 A 
ATOM      5  C   UNL     1       3.587   3.220  17.146  0.00  0.00    +0.000 A 
ATOM      6  C   UNL     1       4.556   4.020  16.536  0.00  0.00    +0.000 A 
ENDROOT
BRANCH   1   7
ATOM      7  S   UNL     1       6.890   5.442  16.490  0.00  0.00    +0.000 S 
ATOM      8  O   UNL     1       7.868   4.512  15.991  0.00  0.00    +0.000 OA
ATOM      9  O   UNL     1       7.238   6.593  17.294  0.00  0.00    +0.000 OA
BRANCH   7  10
ATOM     10  N   UNL     1       6.068   6.081  15.162  0.00  0.00    +0.000 NA
ATOM     11  H   UNL     1       6.730   6.608  14.589  0.00  0.00    +0.000 HD
ATOM     12  H   UNL     1       5.286   6.663  15.467  0.00  0.00    +0.000 HD
ENDBRANCH   7  10
ENDBRANCH   1   7
BRANCH   4  13
ATOM     13  N   UNL     1       2.675   2.147  19.159  0.00  0.00    +0.000 N 
ATOM     14  H   UNL     1       2.984   1.267  19.583  0.00  0.00    +0.000 HD
BRANCH  13  15
ATOM     15  C   UNL     1       1.358   2.453  19.372  0.00  0.00    +0.000 C 
ATOM     16  C   UNL     1       0.852   3.465  20.084  0.00  0.00    +0.000 C 
BRANCH  16  17
ATOM     17  C   UNL     1       1.729   4.433  20.792  0.00  0.00    +0.000 C 
ATOM     18  O   UNL     1       2.378   4.123  21.785  0.00  0.00    +0.000 OA
BRANCH  17  19
ATOM     19  C   UNL     1       1.829   5.805  20.231  0.00  0.00    +0.000 A 
ATOM     20  C   UNL     1       2.307   6.055  18.944  0.00  0.00    +0.000 A 
ATOM     21  C   UNL     1       2.354   7.370  18.518  0.00  0.00    +0.000 A 
ATOM     22  N   UNL     1       1.966   8.418  19.275  0.00  0.00    +0.000 NA
ATOM     23  C   UNL     1       1.487   8.145  20.507  0.00  0.00    +0.000 A 
ATOM     24  C   UNL     1       1.393   6.867  21.025  0.00  0.00    +0.000 A 
ENDBRANCH  17  19
ENDBRANCH  16  17
ENDBRANCH  13  15
ENDBRANCH   4  13
TORSDOF 6
ENDMDL
MODEL 7
REMARK VINA RESULT:      -7.0      0.796      1.795
REMARK  Name = 
REMARK  6 active torsions:
REMARK  status: ('A' for Active; 'I' for Inactive)
REMARK    1  A    between atoms: N_1  and  S_2
REMARK    2  A    between atoms: S_2  and  C_5
REMARK    3  A    between atoms: C_8  and  N_9
REMARK    4  A    between atoms: N_9  and  C_10
REMARK    5  A    between atoms: C_11  and  C_12
REMARK    6  A    between atoms: C_12  and  C_14
REMARK                            x       y       z     vdW  Elec       q    Type
REMARK                         _______ _______ _______ _____ _____    ______ ____
ROOT
ATOM      1  C   UNL     1       5.751   4.993  17.268  0.00  0.00    +0.000 A 
ATOM      2  C   UNL     1       6.164   5.176  18.588  0.00  0.00    +0.000 A 
ATOM      3  C   UNL     1       5.223   5.560  19.552  0.00  0.00    +0.000 A 
ATOM      4  C   UNL     1       3.879   5.785  19.209  0.00  0.00    +0.000 A 
ATOM      5  C   UNL     1       3.505   5.640  17.867  0.00  0.00    +0.000 A 
ATOM      6  C   UNL     1       4.428   5.236  16.899  0.00  0.00    +0.000 A 
ENDROOT
BRANCH   1   7
ATOM      7  S   UNL     1       6.873   4.349  16.060  0.00  0.00    +0.000 S 
ATOM      8  O   UNL     1       6.187   3.382  15.244  0.00  0.00    +0.000 OA
ATOM      9  O   UNL     1       8.143   4.080  16.698  0.00  0.00    +0.000 OA
BRANCH   7  10
ATOM     10  N   UNL     1       7.153   5.714  15.108  0.00  0.00    +0.000 NA
ATOM     11  H   UNL     1       6.840   5.520  14.155  0.00  0.00    +0.000 HD
ATOM     12  H   UNL     1       8.140   5.977  15.134  0.00  0.00    +0.000 HD
ENDBRANCH   7  10
ENDBRANCH   1   7
BRANCH   4  13
ATOM     13  N   UNL     1       2.984   6.222  20.196  0.00  0.00    +0.000 N 
ATOM     14  H   UNL     1       3.343   6.887  20.886  0.00  0.00    +0.000 HD
BRANCH  13  15
ATOM     15  C   UNL     1       1.650   5.935  20.318  0.00  0.00    +0.000 C 
ATOM     16  C   UNL     1       1.088   4.792  20.721  0.00  0.00    +0.000 C 
BRANCH  16  17
ATOM     17  C   UNL     1       1.907   3.610  21.094  0.00  0.00    +0.000 C 
ATOM     18  O   UNL     1       2.054   3.255  22.258  0.00  0.00    +0.000 OA
BRANCH  17  19
ATOM     19  C   UNL     1       2.526   2.830  19.991  0.00  0.00    +0.000 A 
ATOM     20  C   UNL     1       1.869   2.589  18.783  0.00  0.00    +0.000 A 
ATOM     21  C   UNL     1       2.538   1.855  17.820  0.00  0.00    +0.000 A 
ATOM     22  N   UNL     1       3.784   1.362  17.984  0.00  0.00    +0.000 NA
ATOM     23  C   UNL     1       4.404   1.630  19.154  0.00  0.00    +0.000 A 
ATOM     24  C   UNL     1       3.826   2.357  20.177  0.00  0.00    +0.000 A 
ENDBRANCH  17  19
ENDBRANCH  16  17
ENDBRANCH  13  15
ENDBRANCH   4  13
TORSDOF 6
ENDMDL
MODEL 8
REMARK VINA RESULT:      -6.9      1.761      3.861
REMARK  Name = 
REMARK  6 active torsions:
REMARK  status: ('A' for Active; 'I' for Inactive)
REMARK    1  A    between atoms: N_1  and  S_2
REMARK    2  A    between atoms: S_2  and  C_5
REMARK    3  A    between atoms: C_8  and  N_9
REMARK    4  A    between atoms: N_9  and  C_10
REMARK    5  A    between atoms: C_11  and  C_12
REMARK    6  A    between atoms: C_12  and  C_14
REMARK                            x       y       z     vdW  Elec       q    Type
REMARK                         _______ _______ _______ _____ _____    ______ ____
ROOT
ATOM      1  C   UNL     1       5.544   4.570  17.033  0.00  0.00    +0.000 A 
ATOM      2  C   UNL     1       5.746   4.396  18.402  0.00  0.00    +0.000 A 
ATOM      3  C   UNL     1       4.809   3.664  19.144  0.00  0.00    +0.000 A 
ATOM      4  C   UNL     1       3.663   3.123  18.538  0.00  0.00    +0.000 A 
ATOM      5  C   UNL     1       3.464   3.357  17.171  0.00  0.00    +0.000 A 
ATOM      6  C   UNL     1       4.400   4.065  16.416  0.00  0.00    +0.000 A 
ENDROOT
BRANCH   1   7
ATOM      7  S   UNL     1       6.786   5.344  16.036  0.00  0.00    +0.000 S 
ATOM      8  O   UNL     1       6.156   6.004  14.923  0.00  0.00    +0.000 OA
ATOM      9  O   UNL     1       7.898   4.432  15.882  0.00  0.00    +0.000 OA
BRANCH   7  10
ATOM     10  N   UNL     1       7.354   6.538  17.084  0.00  0.00    +0.000 NA
ATOM     11  H   UNL     1       8.240   6.898  16.723  0.00  0.00    +0.000 HD
ATOM     12  H   UNL     1       7.455   6.170  18.031  0.00  0.00    +0.000 HD
ENDBRANCH   7  10
ENDBRANCH   1   7
BRANCH   4  13
ATOM     13  N   UNL     1       2.724   2.445  19.330  0.00  0.00    +0.000 N 
ATOM     14  H   UNL     1       3.063   1.640  19.864  0.00  0.00    +0.000 HD
BRANCH  13  15
ATOM     15  C   UNL     1       1.411   2.767  19.549  0.00  0.00    +0.000 C 
ATOM     16  C   UNL     1       0.921   3.827  20.198  0.00  0.00    +0.000 C 
BRANCH  16  17
ATOM     17  C   UNL     1       1.812   4.843  20.816  0.00  0.00    +0.000 C 
ATOM     18  O   UNL     1       2.528   4.587  21.778  0.00  0.00    +0.000 OA
BRANCH  17  19
ATOM     19  C   UNL     1       1.841   6.194  20.199  0.00  0.00    +0.000 A 
ATOM     20  C   UNL     1       2.352   6.424  18.921  0.00  0.00    +0.000 A 
ATOM     21  C   UNL     1       2.327   7.721  18.440  0.00  0.00    +0.000 A 
ATOM     22  N   UNL     1       1.839   8.769  19.136  0.00  0.00    +0.000 NA
ATOM     23  C   UNL     1       1.331   8.514  20.361  0.00  0.00    +0.000 A 
ATOM     24  C   UNL     1       1.303   7.255  20.930  0.00  0.00    +0.000 A 
ENDBRANCH  17  19
ENDBRANCH  16  17
ENDBRANCH  13  15
ENDBRANCH   4  13
TORSDOF 6
ENDMDL
MODEL 9
REMARK VINA RESULT:      -6.9      1.587      3.515
REMARK  Name = 
REMARK  6 active torsions:
REMARK  status: ('A' for Active; 'I' for Inactive)
REMARK    1  A    between atoms: N_1  and  S_2
REMARK    2  A    between atoms: S_2  and  C_5
REMARK    3  A    between atoms: C_8  and  N_9
REMARK    4  A    between atoms: N_9  and  C_10
REMARK    5  A    between atoms: C_11  and  C_12
REMARK    6  A    between atoms: C_12  and  C_14
REMARK                            x       y       z     vdW  Elec       q    Type
REMARK                         _______ _______ _______ _____ _____    ______ ____
ROOT
ATOM      1  C   UNL     1       5.643   4.616  17.311  0.00  0.00    +0.000 A 
ATOM      2  C   UNL     1       4.602   4.117  16.527  0.00  0.00    +0.000 A 
ATOM      3  C   UNL     1       3.609   3.332  17.128  0.00  0.00    +0.000 A 
ATOM      4  C   UNL     1       3.656   3.020  18.497  0.00  0.00    +0.000 A 
ATOM      5  C   UNL     1       4.740   3.494  19.247  0.00  0.00    +0.000 A 
ATOM      6  C   UNL     1       5.725   4.297  18.666  0.00  0.00    +0.000 A 
ENDROOT
BRANCH   1   7
ATOM      7  S   UNL     1       6.820   5.744  16.623  0.00  0.00    +0.000 S 
ATOM      8  O   UNL     1       7.868   5.978  17.581  0.00  0.00    +0.000 OA
ATOM      9  O   UNL     1       6.109   6.815  15.960  0.00  0.00    +0.000 OA
BRANCH   7  10
ATOM     10  N   UNL     1       7.470   4.822  15.370  0.00  0.00    +0.000 NA
ATOM     11  H   UNL     1       7.099   3.871  15.435  0.00  0.00    +0.000 HD
ATOM     12  H   UNL     1       8.491   4.831  15.405  0.00  0.00    +0.000 HD
ENDBRANCH   7  10
ENDBRANCH   1   7
BRANCH   4  13
ATOM     13  N   UNL     1       2.672   2.185  19.044  0.00  0.00    +0.000 N 
ATOM     14  H   UNL     1       2.977   1.267  19.381  0.00  0.00    +0.000 HD
BRANCH  13  15
ATOM     15  C   UNL     1       1.349   2.464  19.263  0.00  0.00    +0.000 C 
ATOM     16  C   UNL     1       0.827   3.436  20.016  0.00  0.00    +0.000 C 
BRANCH  16  17
ATOM     17  C   UNL     1       1.687   4.382  20.772  0.00  0.00    +0.000 C 
ATOM     18  O   UNL     1       2.321   4.042  21.765  0.00  0.00    +0.000 OA
BRANCH  17  19
ATOM     19  C   UNL     1       1.790   5.773  20.260  0.00  0.00    +0.000 A 
ATOM     20  C   UNL     1       2.274   6.068  18.984  0.00  0.00    +0.000 A 
ATOM     21  C   UNL     1       2.324   7.397  18.604  0.00  0.00    +0.000 A 
ATOM     22  N   UNL     1       1.932   8.418  19.396  0.00  0.00    +0.000 NA
ATOM     23  C   UNL     1       1.448   8.102  20.616  0.00  0.00    +0.000 A 
ATOM     24  C   UNL     1       1.351   6.807  21.089  0.00  0.00    +0.000 A 
ENDBRANCH  17  19
ENDBRANCH  16  17
ENDBRANCH  13  15
ENDBRANCH   4  13
TORSDOF 6
ENDMDL
