MODEL 1
REMARK VINA RESULT:      -7.7      0.000      0.000
REMARK  Name = 
REMARK  6 active torsions:
REMARK  status: ('A' for Active; 'I' for Inactive)
REMARK    1  A    between atoms: C_1  and  O_2
REMARK    2  A    between atoms: O_2  and  C_3
REMARK    3  A    between atoms: C_7  and  C_8
REMARK    4  A    between atoms: N_9  and  N_10
REMARK    5  A    between atoms: C_20  and  O_21
REMARK    6  A    between atoms: O_21  and  C_22
REMARK                            x       y       z     vdW  Elec       q    Type
REMARK                         _______ _______ _______ _____ _____    ______ ____
ROOT
ATOM      1  C   UNL     1       4.662   5.828  18.058  0.00  0.00    +0.000 C 
ATOM      2  N   UNL     1       5.885   5.464  18.309  0.00  0.00    +0.000 NA
ENDROOT
BRANCH   2   3
ATOM      3  N   UNL     1       6.758   5.833  17.328  0.00  0.00    +0.000 N 
ATOM      4  C   UNL     1       6.789   5.344  16.074  0.00  0.00    +0.000 A 
ATOM      5  N   UNL     1       7.642   5.665  15.129  0.00  0.00    +0.000 NA
ATOM      6  C   UNL     1       7.228   4.968  14.026  0.00  0.00    +0.000 A 
ATOM      7  C   UNL     1       7.764   4.965  12.730  0.00  0.00    +0.000 A 
ATOM      8  C   UNL     1       7.143   4.186  11.747  0.00  0.00    +0.000 A 
ATOM      9  C   UNL     1       6.011   3.423  12.054  0.00  0.00    +0.000 A 
ATOM     10  C   UNL     1       5.469   3.401  13.347  0.00  0.00    +0.000 A 
ATOM     11  C   UNL     1       6.109   4.190  14.308  0.00  0.00    +0.000 A 
ATOM     12  N   UNL     1       5.867   4.433  15.636  0.00  0.00    +0.000 N 
ATOM     13  H   UNL     1       7.511   6.486  17.539  0.00  0.00    +0.000 HD
ATOM     14  H   UNL     1       5.135   4.059  16.216  0.00  0.00    +0.000 HD
ENDBRANCH   2   3
BRANCH   1  19
ATOM     15  C   UNL     1       2.001   4.167  20.161  0.00  0.00    +0.000 A 
ATOM     16  C   UNL     1       1.366   5.304  20.693  0.00  0.00    +0.000 A 
ATOM     17  C   UNL     1       1.788   6.587  20.356  0.00  0.00    +0.000 A 
ATOM     18  C   UNL     1       2.866   6.751  19.497  0.00  0.00    +0.000 A 
ATOM     19  C   UNL     1       3.548   5.628  19.012  0.00  0.00    +0.000 A 
ATOM     20  C   UNL     1       3.151   4.318  19.366  0.00  0.00    +0.000 A 
BRANCH  15  22
ATOM     21  C   UNL     1       1.686   2.436  21.737  0.00  0.00    +0.000 C 
ATOM     22  O   UNL     1       1.496   2.914  20.401  0.00  0.00    +0.000 OA
ENDBRANCH  15  22
BRANCH  20  23
ATOM     23  O   UNL     1       3.926   3.320  18.830  0.00  0.00    +0.000 OA
ATOM     24  C   UNL     1       3.385   2.432  17.864  0.00  0.00    +0.000 C 
ENDBRANCH  20  23
ENDBRANCH   1  19
TORSDOF 4
ENDMDL
MODEL 2
REMARK VINA RESULT:      -7.6      4.902      8.087
REMARK  Name = 
REMARK  6 active torsions:
REMARK  status: ('A' for Active; 'I' for Inactive)
REMARK    1  A    between atoms: C_1  and  O_2
REMARK    2  A    between atoms: O_2  and  C_3
REMARK    3  A    between atoms: C_7  and  C_8
REMARK    4  A    between atoms: N_9  and  N_10
REMARK    5  A    between atoms: C_20  and  O_21
REMARK    6  A    between atoms: O_21  and  C_22
REMARK                            x       y       z     vdW  Elec       q    Type
REMARK                         _______ _______ _______ _____ _____    ______ ____
ROOT
ATOM      1  C   UNL     1       2.434   7.735  18.549  0.00  0.00    +0.000 C 
ATOM      2  N   UNL     1       2.126   8.797  17.864  0.00  0.00    +0.000 NA
ENDROOT
BRANCH   2   3
ATOM      3  N   UNL     1       1.490   9.743  18.613  0.00  0.00    +0.000 N 
ATOM      4  C   UNL     1       0.226  10.169  18.439  0.00  0.00    +0.000 A 
ATOM      5  N   UNL     1      -0.389  11.101  19.130  0.00  0.00    +0.000 NA
ATOM      6  C   UNL     1      -1.665  11.127  18.635  0.00  0.00    +0.000 A 
ATOM      7  C   UNL     1      -2.753  11.917  19.033  0.00  0.00    +0.000 A 
ATOM      8  C   UNL     1      -3.984  11.741  18.391  0.00  0.00    +0.000 A 
ATOM      9  C   UNL     1      -4.124  10.797  17.368  0.00  0.00    +0.000 A 
ATOM     10  C   UNL     1      -3.045  10.008  16.944  0.00  0.00    +0.000 A 
ATOM     11  C   UNL     1      -1.829  10.204  17.606  0.00  0.00    +0.000 A 
ATOM     12  N   UNL     1      -0.591   9.624  17.486  0.00  0.00    +0.000 N 
ATOM     13  H   UNL     1       2.002  10.244  19.338  0.00  0.00    +0.000 HD
ATOM     14  H   UNL     1      -0.299   8.899  16.852  0.00  0.00    +0.000 HD
ENDBRANCH   2   3
BRANCH   1  19
ATOM     15  C   UNL     1       3.815   4.267  17.980  0.00  0.00    +0.000 A 
ATOM     16  C   UNL     1       4.789   4.549  17.006  0.00  0.00    +0.000 A 
ATOM     17  C   UNL     1       5.003   5.851  16.559  0.00  0.00    +0.000 A 
ATOM     18  C   UNL     1       4.229   6.885  17.065  0.00  0.00    +0.000 A 
ATOM     19  C   UNL     1       3.211   6.608  17.986  0.00  0.00    +0.000 A 
ATOM     20  C   UNL     1       2.961   5.290  18.431  0.00  0.00    +0.000 A 
BRANCH  15  22
ATOM     21  C   UNL     1       2.777   2.152  17.819  0.00  0.00    +0.000 C 
ATOM     22  O   UNL     1       3.702   3.003  18.502  0.00  0.00    +0.000 OA
ENDBRANCH  15  22
BRANCH  20  23
ATOM     23  O   UNL     1       1.921   5.171  19.317  0.00  0.00    +0.000 OA
ATOM     24  C   UNL     1       2.174   4.921  20.691  0.00  0.00    +0.000 C 
ENDBRANCH  20  23
ENDBRANCH   1  19
TORSDOF 4
ENDMDL
MODEL 3
REMARK VINA RESULT:      -7.6      3.974      8.189
REMARK  Name = 
REMARK  6 active torsions:
REMARK  status: ('A' for Active; 'I' for Inactive)
REMARK    1  A    between atoms: C_1  and  O_2
REMARK    2  A    between atoms: O_2  and  C_3
REMARK    3  A    between atoms: C_7  and  C_8
REMARK    4  A    between atoms: N_9  and  N_10
REMARK    5  A    between atoms: C_20  and  O_21
REMARK    6  A    between atoms: O_21  and  C_22
REMARK                            x       y       z     vdW  Elec       q    Type
REMARK                         _______ _______ _______ _____ _____    ______ ____
ROOT
ATOM      1  C   UNL     1       3.384   7.827  17.988  0.00  0.00    +0.000 C 
ATOM      2  N   UNL     1       2.104   7.994  17.829  0.00  0.00    +0.000 NA
ENDROOT
BRANCH   2   3
ATOM      3  N   UNL     1       1.705   9.275  18.069  0.00  0.00    +0.000 N 
ATOM      4  C   UNL     1       1.043   9.705  19.160  0.00  0.00    +0.000 A 
ATOM      5  N   UNL     1       0.623  10.927  19.391  0.00  0.00    +0.000 NA
ATOM      6  C   UNL     1       0.079  10.885  20.645  0.00  0.00    +0.000 A 
ATOM      7  C   UNL     1      -0.490  11.922  21.399  0.00  0.00    +0.000 A 
ATOM      8  C   UNL     1      -0.958  11.640  22.687  0.00  0.00    +0.000 A 
ATOM      9  C   UNL     1      -0.863  10.346  23.211  0.00  0.00    +0.000 A 
ATOM     10  C   UNL     1      -0.311   9.292  22.468  0.00  0.00    +0.000 A 
ATOM     11  C   UNL     1       0.150   9.604  21.186  0.00  0.00    +0.000 A 
ATOM     12  N   UNL     1       0.750   8.865  20.199  0.00  0.00    +0.000 N 
ATOM     13  H   UNL     1       1.841   9.991  17.356  0.00  0.00    +0.000 HD
ATOM     14  H   UNL     1       0.985   7.886  20.206  0.00  0.00    +0.000 HD
ENDBRANCH   2   3
BRANCH   1  19
ATOM     15  C   UNL     1       4.926   4.407  18.422  0.00  0.00    +0.000 A 
ATOM     16  C   UNL     1       5.500   4.235  17.149  0.00  0.00    +0.000 A 
ATOM     17  C   UNL     1       5.401   5.226  16.176  0.00  0.00    +0.000 A 
ATOM     18  C   UNL     1       4.707   6.395  16.456  0.00  0.00    +0.000 A 
ATOM     19  C   UNL     1       4.074   6.551  17.695  0.00  0.00    +0.000 A 
ATOM     20  C   UNL     1       4.141   5.544  18.686  0.00  0.00    +0.000 A 
BRANCH  15  22
ATOM     21  C   UNL     1       4.265   2.347  19.368  0.00  0.00    +0.000 C 
ATOM     22  O   UNL     1       5.139   3.479  19.409  0.00  0.00    +0.000 OA
ENDBRANCH  15  22
BRANCH  20  23
ATOM     23  O   UNL     1       3.457   5.830  19.840  0.00  0.00    +0.000 OA
ATOM     24  C   UNL     1       2.211   5.205  20.108  0.00  0.00    +0.000 C 
ENDBRANCH  20  23
ENDBRANCH   1  19
TORSDOF 4
ENDMDL
MODEL 4
REMARK VINA RESULT:      -7.6      4.070      8.519
REMARK  Name = 
REMARK  6 active torsions:
REMARK  status: ('A' for Active; 'I' for Inactive)
REMARK    1  A    between atoms: C_1  and  O_2
REMARK    2  A    between atoms: O_2  and  C_3
REMARK    3  A    between atoms: C_7  and  C_8
REMARK    4  A    between atoms: N_9  and  N_10
REMARK    5  A    between atoms: C_20  and  O_21
REMARK    6  A    between atoms: O_21  and  C_22
REMARK                            x       y       z     vdW  Elec       q    Type
REMARK                         _______ _______ _______ _____ _____    ______ ____
ROOT
ATOM      1  C   UNL     1       3.517   7.471  17.793  0.00  0.00    +0.000 C 
ATOM      2  N   UNL     1       2.245   7.718  17.911  0.00  0.00    +0.000 NA
ENDROOT
BRANCH   2   3
ATOM      3  N   UNL     1       1.982   9.035  18.142  0.00  0.00    +0.000 N 
ATOM      4  C   UNL     1       1.294   9.531  19.187  0.00  0.00    +0.000 A 
ATOM      5  N   UNL     1       1.004  10.793  19.407  0.00  0.00    +0.000 NA
ATOM      6  C   UNL     1       0.364  10.805  20.617  0.00  0.00    +0.000 A 
ATOM      7  C   UNL     1      -0.136  11.896  21.343  0.00  0.00    +0.000 A 
ATOM      8  C   UNL     1      -0.731  11.661  22.587  0.00  0.00    +0.000 A 
ATOM      9  C   UNL     1      -0.829  10.360  23.094  0.00  0.00    +0.000 A 
ATOM     10  C   UNL     1      -0.350   9.254  22.377  0.00  0.00    +0.000 A 
ATOM     11  C   UNL     1       0.242   9.520  21.139  0.00  0.00    +0.000 A 
ATOM     12  N   UNL     1       0.825   8.723  20.187  0.00  0.00    +0.000 N 
ATOM     13  H   UNL     1       2.256   9.736  17.454  0.00  0.00    +0.000 HD
ATOM     14  H   UNL     1       0.942   7.723  20.195  0.00  0.00    +0.000 HD
ENDBRANCH   2   3
BRANCH   1  19
ATOM     15  C   UNL     1       5.753   4.752  16.426  0.00  0.00    +0.000 A 
ATOM     16  C   UNL     1       4.951   3.625  16.682  0.00  0.00    +0.000 A 
ATOM     17  C   UNL     1       3.697   3.755  17.273  0.00  0.00    +0.000 A 
ATOM     18  C   UNL     1       3.236   5.013  17.635  0.00  0.00    +0.000 A 
ATOM     19  C   UNL     1       4.052   6.135  17.446  0.00  0.00    +0.000 A 
ATOM     20  C   UNL     1       5.339   6.020  16.873  0.00  0.00    +0.000 A 
BRANCH  15  22
ATOM     21  C   UNL     1       6.806   4.758  14.312  0.00  0.00    +0.000 C 
ATOM     22  O   UNL     1       6.928   4.623  15.731  0.00  0.00    +0.000 OA
ENDBRANCH  15  22
BRANCH  20  23
ATOM     23  O   UNL     1       6.028   7.202  16.769  0.00  0.00    +0.000 OA
ATOM     24  C   UNL     1       7.240   7.390  17.483  0.00  0.00    +0.000 C 
ENDBRANCH  20  23
ENDBRANCH   1  19
TORSDOF 4
ENDMDL
MODEL 5
REMARK VINA RESULT:      -7.6      4.613      8.787
REMARK  Name = 
REMARK  6 active torsions:
REMARK  status: ('A' for Active; 'I' for Inactive)
REMARK    1  A    between atoms: C_1  and  O_2
REMARK    2  A    between atoms: O_2  and  C_3
REMARK    3  A    between atoms: C_7  and  C_8
REMARK    4  A    between atoms: N_9  and  N_10
REMARK    5  A    between atoms: C_20  and  O_21
REMARK    6  A    between atoms: O_21  and  C_22
REMARK                            x       y       z     vdW  Elec       q    Type
REMARK                         _______ _______ _______ _____ _____    ______ ____
ROOT
ATOM      1  C   UNL     1       1.909   6.495  20.317  0.00  0.00    +0.000 C 
ATOM      2  N   UNL     1       2.028   7.789  20.382  0.00  0.00    +0.000 NA
ENDROOT
BRANCH   2   3
ATOM      3  N   UNL     1       1.525   8.308  21.538  0.00  0.00    +0.000 N 
ATOM      4  C   UNL     1       0.685   9.355  21.633  0.00  0.00    +0.000 A 
ATOM      5  N   UNL     1       0.218   9.887  22.739  0.00  0.00    +0.000 NA
ATOM      6  C   UNL     1      -0.642  10.868  22.326  0.00  0.00    +0.000 A 
ATOM      7  C   UNL     1      -1.438  11.730  23.095  0.00  0.00    +0.000 A 
ATOM      8  C   UNL     1      -2.272  12.642  22.439  0.00  0.00    +0.000 A 
ATOM      9  C   UNL     1      -2.307  12.696  21.042  0.00  0.00    +0.000 A 
ATOM     10  C   UNL     1      -1.508  11.854  20.254  0.00  0.00    +0.000 A 
ATOM     11  C   UNL     1      -0.687  10.951  20.937  0.00  0.00    +0.000 A 
ATOM     12  N   UNL     1       0.194   9.986  20.523  0.00  0.00    +0.000 N 
ATOM     13  H   UNL     1       1.837   7.942  22.437  0.00  0.00    +0.000 HD
ATOM     14  H   UNL     1       0.441   9.727  19.582  0.00  0.00    +0.000 HD
ENDBRANCH   2   3
BRANCH   1  19
ATOM     15  C   UNL     1       2.704   3.570  18.064  0.00  0.00    +0.000 A 
ATOM     16  C   UNL     1       3.634   4.175  17.199  0.00  0.00    +0.000 A 
ATOM     17  C   UNL     1       4.008   5.506  17.362  0.00  0.00    +0.000 A 
ATOM     18  C   UNL     1       3.439   6.258  18.381  0.00  0.00    +0.000 A 
ATOM     19  C   UNL     1       2.463   5.688  19.207  0.00  0.00    +0.000 A 
ATOM     20  C   UNL     1       2.050   4.346  19.039  0.00  0.00    +0.000 A 
BRANCH  15  22
ATOM     21  C   UNL     1       3.501   1.375  18.410  0.00  0.00    +0.000 C 
ATOM     22  O   UNL     1       2.440   2.228  17.969  0.00  0.00    +0.000 OA
ENDBRANCH  15  22
BRANCH  20  23
ATOM     23  O   UNL     1       1.073   3.934  19.908  0.00  0.00    +0.000 OA
ATOM     24  C   UNL     1       1.403   3.121  21.025  0.00  0.00    +0.000 C 
ENDBRANCH  20  23
ENDBRANCH   1  19
TORSDOF 4
ENDMDL
MODEL 6
REMARK VINA RESULT:      -7.5      6.484      8.465
REMARK  Name = 
REMARK  6 active torsions:
REMARK  status: ('A' for Active; 'I' for Inactive)
REMARK    1  A    between atoms: C_1  and  O_2
REMARK    2  A    between atoms: O_2  and  C_3
REMARK    3  A    between atoms: C_7  and  C_8
REMARK    4  A    between atoms: N_9  and  N_10
REMARK    5  A    between atoms: C_20  and  O_21
REMARK    6  A    between atoms: O_21  and  C_22
REMARK                            x       y       z     vdW  Elec       q    Type
REMARK                         _______ _______ _______ _____ _____    ______ ____
ROOT
ATOM      1  C   UNL     1       8.403  10.091  17.853  0.00  0.00    +0.000 C 
ATOM      2  N   UNL     1       8.335   8.817  18.108  0.00  0.00    +0.000 NA
ENDROOT
BRANCH   2   3
ATOM      3  N   UNL     1       7.744   8.108  17.104  0.00  0.00    +0.000 N 
ATOM      4  C   UNL     1       7.003   6.995  17.254  0.00  0.00    +0.000 A 
ATOM      5  N   UNL     1       6.455   6.283  16.297  0.00  0.00    +0.000 NA
ATOM      6  C   UNL     1       5.750   5.303  16.941  0.00  0.00    +0.000 A 
ATOM      7  C   UNL     1       4.950   4.286  16.400  0.00  0.00    +0.000 A 
ATOM      8  C   UNL     1       4.294   3.409  17.270  0.00  0.00    +0.000 A 
ATOM      9  C   UNL     1       4.438   3.543  18.655  0.00  0.00    +0.000 A 
ATOM     10  C   UNL     1       5.244   4.543  19.217  0.00  0.00    +0.000 A 
ATOM     11  C   UNL     1       5.884   5.406  18.323  0.00  0.00    +0.000 A 
ATOM     12  N   UNL     1       6.715   6.485  18.491  0.00  0.00    +0.000 N 
ATOM     13  H   UNL     1       7.907   8.372  16.133  0.00  0.00    +0.000 HD
ATOM     14  H   UNL     1       7.050   6.887  19.351  0.00  0.00    +0.000 HD
ENDBRANCH   2   3
BRANCH   1  19
ATOM     15  C   UNL     1       9.851  13.302  19.214  0.00  0.00    +0.000 A 
ATOM     16  C   UNL     1      10.493  12.811  20.365  0.00  0.00    +0.000 A 
ATOM     17  C   UNL     1      10.469  11.454  20.679  0.00  0.00    +0.000 A 
ATOM     18  C   UNL     1       9.783  10.572  19.855  0.00  0.00    +0.000 A 
ATOM     19  C   UNL     1       9.084  11.057  18.743  0.00  0.00    +0.000 A 
ATOM     20  C   UNL     1       9.075  12.434  18.425  0.00  0.00    +0.000 A 
BRANCH  15  22
ATOM     21  C   UNL     1      11.061  14.880  17.941  0.00  0.00    +0.000 C 
ATOM     22  O   UNL     1       9.989  14.617  18.851  0.00  0.00    +0.000 OA
ENDBRANCH  15  22
BRANCH  20  23
ATOM     23  O   UNL     1       8.331  12.762  17.319  0.00  0.00    +0.000 OA
ATOM     24  C   UNL     1       7.208  13.622  17.439  0.00  0.00    +0.000 C 
ENDBRANCH  20  23
ENDBRANCH   1  19
TORSDOF 4
ENDMDL
MODEL 7
REMARK VINA RESULT:      -7.5      5.112      7.090
REMARK  Name = 
REMARK  6 active torsions:
REMARK  status: ('A' for Active; 'I' for Inactive)
REMARK    1  A    between atoms: C_1  and  O_2
REMARK    2  A    between atoms: O_2  and  C_3
REMARK    3  A    between atoms: C_7  and  C_8
REMARK    4  A    between atoms: N_9  and  N_10
REMARK    5  A    between atoms: C_20  and  O_21
REMARK    6  A    between atoms: O_21  and  C_22
REMARK                            x       y       z     vdW  Elec       q    Type
REMARK                         _______ _______ _______ _____ _____    ______ ____
ROOT
ATOM      1  C   UNL     1       7.349   6.613  18.240  0.00  0.00    +0.000 C 
ATOM      2  N   UNL     1       7.931   7.703  17.832  0.00  0.00    +0.000 NA
ENDROOT
BRANCH   2   3
ATOM      3  N   UNL     1       8.627   8.332  18.821  0.00  0.00    +0.000 N 
ATOM      4  C   UNL     1       8.960   9.636  18.846  0.00  0.00    +0.000 A 
ATOM      5  N   UNL     1       9.658  10.250  19.774  0.00  0.00    +0.000 NA
ATOM      6  C   UNL     1       9.670  11.566  19.398  0.00  0.00    +0.000 A 
ATOM      7  C   UNL     1      10.249  12.666  20.046  0.00  0.00    +0.000 A 
ATOM      8  C   UNL     1      10.101  13.937  19.479  0.00  0.00    +0.000 A 
ATOM      9  C   UNL     1       9.392  14.103  18.285  0.00  0.00    +0.000 A 
ATOM     10  C   UNL     1       8.819  13.015  17.612  0.00  0.00    +0.000 A 
ATOM     11  C   UNL     1       8.980  11.759  18.204  0.00  0.00    +0.000 A 
ATOM     12  N   UNL     1       8.559  10.498  17.862  0.00  0.00    +0.000 N 
ATOM     13  H   UNL     1       9.006   7.792  19.598  0.00  0.00    +0.000 HD
ATOM     14  H   UNL     1       8.020  10.216  17.060  0.00  0.00    +0.000 HD
ENDBRANCH   2   3
BRANCH   1  19
ATOM     15  C   UNL     1       5.001   3.934  16.988  0.00  0.00    +0.000 A 
ATOM     16  C   UNL     1       5.358   3.914  15.627  0.00  0.00    +0.000 A 
ATOM     17  C   UNL     1       6.361   4.745  15.134  0.00  0.00    +0.000 A 
ATOM     18  C   UNL     1       7.005   5.626  15.993  0.00  0.00    +0.000 A 
ATOM     19  C   UNL     1       6.613   5.704  17.335  0.00  0.00    +0.000 A 
ATOM     20  C   UNL     1       5.579   4.887  17.847  0.00  0.00    +0.000 A 
BRANCH  15  22
ATOM     21  C   UNL     1       2.736   3.287  17.152  0.00  0.00    +0.000 C 
ATOM     22  O   UNL     1       4.103   3.024  17.483  0.00  0.00    +0.000 OA
ENDBRANCH  15  22
BRANCH  20  23
ATOM     23  O   UNL     1       5.293   5.089  19.173  0.00  0.00    +0.000 OA
ATOM     24  C   UNL     1       4.034   5.617  19.562  0.00  0.00    +0.000 C 
ENDBRANCH  20  23
ENDBRANCH   1  19
TORSDOF 4
ENDMDL
MODEL 8
REMARK VINA RESULT:      -7.3      4.438      6.391
REMARK  Name = 
REMARK  6 active torsions:
REMARK  status: ('A' for Active; 'I' for Inactive)
REMARK    1  A    between atoms: C_1  and  O_2
REMARK    2  A    between atoms: O_2  and  C_3
REMARK    3  A    between atoms: C_7  and  C_8
REMARK    4  A    between atoms: N_9  and  N_10
REMARK    5  A    between atoms: C_20  and  O_21
REMARK    6  A    between atoms: O_21  and  C_22
REMARK                            x       y       z     vdW  Elec       q    Type
REMARK                         _______ _______ _______ _____ _____    ______ ____
ROOT
ATOM      1  C   UNL     1       1.541   8.188  21.361  0.00  0.00    +0.000 C 
ATOM      2  N   UNL     1       1.166   7.087  20.779  0.00  0.00    +0.000 NA
ENDROOT
BRANCH   2   3
ATOM      3  N   UNL     1       2.145   6.138  20.764  0.00  0.00    +0.000 N 
ATOM      4  C   UNL     1       3.006   5.907  19.756  0.00  0.00    +0.000 A 
ATOM      5  N   UNL     1       3.931   4.976  19.713  0.00  0.00    +0.000 NA
ATOM      6  C   UNL     1       4.590   5.184  18.531  0.00  0.00    +0.000 A 
ATOM      7  C   UNL     1       5.688   4.495  17.997  0.00  0.00    +0.000 A 
ATOM      8  C   UNL     1       6.216   4.915  16.771  0.00  0.00    +0.000 A 
ATOM      9  C   UNL     1       5.655   6.001  16.091  0.00  0.00    +0.000 A 
ATOM     10  C   UNL     1       4.547   6.695  16.600  0.00  0.00    +0.000 A 
ATOM     11  C   UNL     1       4.044   6.254  17.827  0.00  0.00    +0.000 A 
ATOM     12  N   UNL     1       3.013   6.679  18.627  0.00  0.00    +0.000 N 
ATOM     13  H   UNL     1       2.224   5.479  21.538  0.00  0.00    +0.000 HD
ATOM     14  H   UNL     1       2.374   7.441  18.469  0.00  0.00    +0.000 HD
ENDBRANCH   2   3
BRANCH   1  19
ATOM     15  C   UNL     1      -0.227  11.498  20.936  0.00  0.00    +0.000 A 
ATOM     16  C   UNL     1      -0.982  11.525  22.123  0.00  0.00    +0.000 A 
ATOM     17  C   UNL     1      -0.899  10.490  23.051  0.00  0.00    +0.000 A 
ATOM     18  C   UNL     1      -0.075   9.403  22.795  0.00  0.00    +0.000 A 
ATOM     19  C   UNL     1       0.631   9.333  21.588  0.00  0.00    +0.000 A 
ATOM     20  C   UNL     1       0.538  10.360  20.621  0.00  0.00    +0.000 A 
BRANCH  15  22
ATOM     21  C   UNL     1      -1.419  12.749  19.327  0.00  0.00    +0.000 C 
ATOM     22  O   UNL     1      -0.223  12.579  20.092  0.00  0.00    +0.000 OA
ENDBRANCH  15  22
BRANCH  20  23
ATOM     23  O   UNL     1       1.270  10.142  19.481  0.00  0.00    +0.000 OA
ATOM     24  C   UNL     1       0.620   9.803  18.266  0.00  0.00    +0.000 C 
ENDBRANCH  20  23
ENDBRANCH   1  19
TORSDOF 4
ENDMDL
MODEL 9
REMARK VINA RESULT:      -7.2      7.016      8.885
REMARK  Name = 
REMARK  6 active torsions:
REMARK  status: ('A' for Active; 'I' for Inactive)
REMARK    1  A    between atoms: C_1  and  O_2
REMARK    2  A    between atoms: O_2  and  C_3
REMARK    3  A    between atoms: C_7  and  C_8
REMARK    4  A    between atoms: N_9  and  N_10
REMARK    5  A    between atoms: C_20  and  O_21
REMARK    6  A    between atoms: O_21  and  C_22
REMARK                            x       y       z     vdW  Elec       q    Type
REMARK                         _______ _______ _______ _____ _____    ______ ____
ROOT
ATOM      1  C   UNL     1       9.838  10.532  18.836  0.00  0.00    +0.000 C 
ATOM      2  N   UNL     1       8.863   9.866  18.289  0.00  0.00    +0.000 NA
ENDROOT
BRANCH   2   3
ATOM      3  N   UNL     1       8.775   8.585  18.749  0.00  0.00    +0.000 N 
ATOM      4  C   UNL     1       7.939   7.637  18.288  0.00  0.00    +0.000 A 
ATOM      5  N   UNL     1       7.819   6.410  18.741  0.00  0.00    +0.000 NA
ATOM      6  C   UNL     1       6.906   5.814  17.914  0.00  0.00    +0.000 A 
ATOM      7  C   UNL     1       6.430   4.495  17.926  0.00  0.00    +0.000 A 
ATOM      8  C   UNL     1       5.509   4.101  16.949  0.00  0.00    +0.000 A 
ATOM      9  C   UNL     1       5.070   5.010  15.980  0.00  0.00    +0.000 A 
ATOM     10  C   UNL     1       5.522   6.337  15.959  0.00  0.00    +0.000 A 
ATOM     11  C   UNL     1       6.443   6.700  16.946  0.00  0.00    +0.000 A 
ATOM     12  N   UNL     1       7.105   7.868  17.228  0.00  0.00    +0.000 N 
ATOM     13  H   UNL     1       9.327   8.297  19.556  0.00  0.00    +0.000 HD
ATOM     14  H   UNL     1       7.046   8.751  16.749  0.00  0.00    +0.000 HD
ENDBRANCH   2   3
BRANCH   1  19
ATOM     15  C   UNL     1       9.684  14.296  19.090  0.00  0.00    +0.000 A 
ATOM     16  C   UNL     1      10.446  14.648  17.961  0.00  0.00    +0.000 A 
ATOM     17  C   UNL     1      10.983  13.674  17.124  0.00  0.00    +0.000 A 
ATOM     18  C   UNL     1      10.782  12.332  17.416  0.00  0.00    +0.000 A 
ATOM     19  C   UNL     1      10.082  11.968  18.573  0.00  0.00    +0.000 A 
ATOM     20  C   UNL     1       9.554  12.942  19.450  0.00  0.00    +0.000 A 
BRANCH  15  22
ATOM     21  C   UNL     1       7.874  15.805  19.239  0.00  0.00    +0.000 C 
ATOM     22  O   UNL     1       9.057  15.264  19.833  0.00  0.00    +0.000 OA
ENDBRANCH  15  22
BRANCH  20  23
ATOM     23  O   UNL     1       8.910  12.435  20.550  0.00  0.00    +0.000 OA
ATOM     24  C   UNL     1       9.481  12.576  21.842  0.00  0.00    +0.000 C 
ENDBRANCH  20  23
ENDBRANCH   1  19
TORSDOF 4
ENDMDL
