MODEL 1
REMARK VINA RESULT:      -7.9      0.000      0.000
REMARK  Name = 
REMARK  8 active torsions:
REMARK  status: ('A' for Active; 'I' for Inactive)
REMARK    1  A    between atoms: C_1  and  O_2
REMARK    2  A    between atoms: O_2  and  C_3
REMARK    3  A    between atoms: C_11  and  N_12
REMARK    4  A    between atoms: C_17  and  N_18
REMARK    5  A    between atoms: N_18  and  C_19
REMARK    6  A    between atoms: C_20  and  C_22
REMARK    7  A    between atoms: C_22  and  O_23
REMARK    8  A    between atoms: O_23  and  C_24
REMARK                            x       y       z     vdW  Elec       q    Type
REMARK                         _______ _______ _______ _____ _____    ______ ____
ROOT
ATOM      1  C   UNL     1      -3.998  11.605  18.227  0.00  0.00    +0.000 A 
ATOM      2  C   UNL     1      -3.913  10.835  17.064  0.00  0.00    +0.000 A 
ATOM      3  C   UNL     1      -2.697  10.313  16.638  0.00  0.00    +0.000 A 
ATOM      4  C   UNL     1      -1.537  10.555  17.371  0.00  0.00    +0.000 A 
ATOM      5  C   UNL     1      -1.588  11.262  18.588  0.00  0.00    +0.000 A 
ATOM      6  C   UNL     1      -2.836  11.782  19.045  0.00  0.00    +0.000 A 
ATOM      7  C   UNL     1      -2.923  12.538  20.357  0.00  0.00    +0.000 C 
ATOM      8  C   UNL     1      -1.630  12.592  21.157  0.00  0.00    +0.000 C 
ATOM      9  C   UNL     1      -0.447  12.835  20.203  0.00  0.00    +0.000 C 
ATOM     10  C   UNL     1      -0.294  11.472  19.394  0.00  0.00    +0.000 C 
ENDROOT
BRANCH   9  11
ATOM     11  N   UNL     1      -0.676  14.027  19.311  0.00  0.00    +0.000 NA
ATOM     12  C   UNL     1       0.451  14.271  18.383  0.00  0.00    +0.000 C 
ATOM     13  C   UNL     1       1.321  15.319  19.048  0.00  0.00    +0.000 C 
ATOM     14  C   UNL     1       0.256  16.274  19.500  0.00  0.00    +0.000 C 
ATOM     15  C   UNL     1      -0.778  15.309  20.075  0.00  0.00    +0.000 C 
ENDBRANCH   9  11
BRANCH  10  16
ATOM     16  N   UNL     1       0.119  10.291  20.239  0.00  0.00    +0.000 N 
ATOM     17  C   UNL     1      -0.405  10.146  21.605  0.00  0.00    +0.000 C 
ATOM     18  C   UNL     1       0.996   9.296  19.820  0.00  0.00    +0.000 C 
ATOM     19  O   UNL     1       1.462   9.284  18.697  0.00  0.00    +0.000 OA
BRANCH  18  20
ATOM     20  C   UNL     1       1.458   8.162  20.710  0.00  0.00    +0.000 C 
BRANCH  20  21
ATOM     21  O   UNL     1       2.408   7.380  20.075  0.00  0.00    +0.000 OA
BRANCH  21  22
ATOM     22  C   UNL     1       2.208   6.078  19.725  0.00  0.00    +0.000 A 
ATOM     23  C   UNL     1       2.228   5.657  18.379  0.00  0.00    +0.000 A 
ATOM     24  C   UNL     1       2.000   4.323  18.047  0.00  0.00    +0.000 A 
ATOM     25  C   UNL     1       1.753   3.380  19.045  0.00  0.00    +0.000 A 
ATOM     26 CL   UNL     1       1.453   1.712  18.573  0.00  0.00    +0.000 Cl
ATOM     27  C   UNL     1       1.746   3.777  20.393  0.00  0.00    +0.000 A 
ATOM     28 CL   UNL     1       1.447   2.610  21.676  0.00  0.00    +0.000 Cl
ATOM     29  C   UNL     1       1.974   5.121  20.727  0.00  0.00    +0.000 A 
ENDBRANCH  21  22
ENDBRANCH  20  21
ENDBRANCH  18  20
ENDBRANCH  10  16
BRANCH   1  31
ATOM     30  C   UNL     1      -6.295  12.188  17.625  0.00  0.00    +0.000 C 
ATOM     31  O   UNL     1      -5.216  12.155  18.486  0.00  0.00    +0.000 OA
ENDBRANCH   1  31
TORSDOF 6
ENDMDL
MODEL 2
REMARK VINA RESULT:      -7.8      1.468      1.746
REMARK  Name = 
REMARK  8 active torsions:
REMARK  status: ('A' for Active; 'I' for Inactive)
REMARK    1  A    between atoms: C_1  and  O_2
REMARK    2  A    between atoms: O_2  and  C_3
REMARK    3  A    between atoms: C_11  and  N_12
REMARK    4  A    between atoms: C_17  and  N_18
REMARK    5  A    between atoms: N_18  and  C_19
REMARK    6  A    between atoms: C_20  and  C_22
REMARK    7  A    between atoms: C_22  and  O_23
REMARK    8  A    between atoms: O_23  and  C_24
REMARK                            x       y       z     vdW  Elec       q    Type
REMARK                         _______ _______ _______ _____ _____    ______ ____
ROOT
ATOM      1  C   UNL     1      -3.309  11.535  18.552  0.00  0.00    +0.000 A 
ATOM      2  C   UNL     1      -3.524  10.687  17.462  0.00  0.00    +0.000 A 
ATOM      3  C   UNL     1      -2.511   9.865  16.985  0.00  0.00    +0.000 A 
ATOM      4  C   UNL     1      -1.256   9.876  17.591  0.00  0.00    +0.000 A 
ATOM      5  C   UNL     1      -1.017  10.659  18.737  0.00  0.00    +0.000 A 
ATOM      6  C   UNL     1      -2.059  11.490  19.248  0.00  0.00    +0.000 A 
ATOM      7  C   UNL     1      -1.834  12.335  20.487  0.00  0.00    +0.000 C 
ATOM      8  C   UNL     1      -0.486  12.137  21.167  0.00  0.00    +0.000 C 
ATOM      9  C   UNL     1       0.615  12.027  20.097  0.00  0.00    +0.000 C 
ATOM     10  C   UNL     1       0.368  10.613  19.408  0.00  0.00    +0.000 C 
ENDROOT
BRANCH   9  11
ATOM     11  N   UNL     1       0.573  13.174  19.122  0.00  0.00    +0.000 NA
ATOM     12  C   UNL     1       1.648  13.101  18.107  0.00  0.00    +0.000 C 
ATOM     13  C   UNL     1       2.770  13.979  18.624  0.00  0.00    +0.000 C 
ATOM     14  C   UNL     1       1.970  15.172  19.058  0.00  0.00    +0.000 C 
ATOM     15  C   UNL     1       0.805  14.497  19.777  0.00  0.00    +0.000 C 
ENDBRANCH   9  11
BRANCH  10  16
ATOM     16  N   UNL     1       0.585   9.429  20.320  0.00  0.00    +0.000 N 
ATOM     17  C   UNL     1      -0.160   9.329  21.583  0.00  0.00    +0.000 C 
ATOM     18  C   UNL     1       1.474   8.392  20.059  0.00  0.00    +0.000 C 
ATOM     19  O   UNL     1       2.116   8.342  19.028  0.00  0.00    +0.000 OA
BRANCH  18  20
ATOM     20  C   UNL     1       1.735   7.255  21.024  0.00  0.00    +0.000 C 
BRANCH  20  21
ATOM     21  O   UNL     1       1.044   6.113  20.652  0.00  0.00    +0.000 OA
BRANCH  21  22
ATOM     22  C   UNL     1       1.643   4.987  20.173  0.00  0.00    +0.000 A 
ATOM     23  C   UNL     1       0.964   3.753  20.107  0.00  0.00    +0.000 A 
ATOM     24  C   UNL     1       1.606   2.611  19.631  0.00  0.00    +0.000 A 
ATOM     25  C   UNL     1       2.933   2.674  19.206  0.00  0.00    +0.000 A 
ATOM     26 CL   UNL     1       3.706   1.202  18.631  0.00  0.00    +0.000 Cl
ATOM     27  C   UNL     1       3.622   3.898  19.248  0.00  0.00    +0.000 A 
ATOM     28 CL   UNL     1       5.294   4.013  18.712  0.00  0.00    +0.000 Cl
ATOM     29  C   UNL     1       2.975   5.048  19.729  0.00  0.00    +0.000 A 
ENDBRANCH  21  22
ENDBRANCH  20  21
ENDBRANCH  18  20
ENDBRANCH  10  16
BRANCH   1  31
ATOM     30  C   UNL     1      -5.585  12.001  19.315  0.00  0.00    +0.000 C 
ATOM     31  O   UNL     1      -4.335  12.374  18.861  0.00  0.00    +0.000 OA
ENDBRANCH   1  31
TORSDOF 6
ENDMDL
MODEL 3
REMARK VINA RESULT:      -7.7      0.657      1.282
REMARK  Name = 
REMARK  8 active torsions:
REMARK  status: ('A' for Active; 'I' for Inactive)
REMARK    1  A    between atoms: C_1  and  O_2
REMARK    2  A    between atoms: O_2  and  C_3
REMARK    3  A    between atoms: C_11  and  N_12
REMARK    4  A    between atoms: C_17  and  N_18
REMARK    5  A    between atoms: N_18  and  C_19
REMARK    6  A    between atoms: C_20  and  C_22
REMARK    7  A    between atoms: C_22  and  O_23
REMARK    8  A    between atoms: O_23  and  C_24
REMARK                            x       y       z     vdW  Elec       q    Type
REMARK                         _______ _______ _______ _____ _____    ______ ____
ROOT
ATOM      1  C   UNL     1      -4.048  11.428  18.233  0.00  0.00    +0.000 A 
ATOM      2  C   UNL     1      -3.913  10.632  17.092  0.00  0.00    +0.000 A 
ATOM      3  C   UNL     1      -2.673  10.139  16.706  0.00  0.00    +0.000 A 
ATOM      4  C   UNL     1      -1.537  10.436  17.455  0.00  0.00    +0.000 A 
ATOM      5  C   UNL     1      -1.636  11.172  18.652  0.00  0.00    +0.000 A 
ATOM      6  C   UNL     1      -2.910  11.663  19.070  0.00  0.00    +0.000 A 
ATOM      7  C   UNL     1      -3.049  12.449  20.359  0.00  0.00    +0.000 C 
ATOM      8  C   UNL     1      -1.775  12.564  21.185  0.00  0.00    +0.000 C 
ATOM      9  C   UNL     1      -0.580  12.821  20.249  0.00  0.00    +0.000 C 
ATOM     10  C   UNL     1      -0.367  11.443  19.479  0.00  0.00    +0.000 C 
ENDROOT
BRANCH   9  11
ATOM     11  N   UNL     1      -0.828  13.982  19.322  0.00  0.00    +0.000 NA
ATOM     12  C   UNL     1       0.297  14.218  18.389  0.00  0.00    +0.000 C 
ATOM     13  C   UNL     1       1.148  15.299  19.025  0.00  0.00    +0.000 C 
ATOM     14  C   UNL     1       0.065  16.249  19.447  0.00  0.00    +0.000 C 
ATOM     15  C   UNL     1      -0.953  15.284  20.048  0.00  0.00    +0.000 C 
ENDBRANCH   9  11
BRANCH  10  16
ATOM     16  N   UNL     1       0.064  10.298  20.363  0.00  0.00    +0.000 N 
ATOM     17  C   UNL     1      -0.445  10.198  21.738  0.00  0.00    +0.000 C 
ATOM     18  C   UNL     1       0.947   9.296  19.972  0.00  0.00    +0.000 C 
ATOM     19  O   UNL     1       1.403   9.248  18.846  0.00  0.00    +0.000 OA
BRANCH  18  20
ATOM     20  C   UNL     1       1.428   8.200  20.899  0.00  0.00    +0.000 C 
BRANCH  20  21
ATOM     21  O   UNL     1       2.384   7.408  20.286  0.00  0.00    +0.000 OA
BRANCH  21  22
ATOM     22  C   UNL     1       2.188   6.100  19.958  0.00  0.00    +0.000 A 
ATOM     23  C   UNL     1       1.410   5.240  20.761  0.00  0.00    +0.000 A 
ATOM     24  C   UNL     1       1.242   3.900  20.414  0.00  0.00    +0.000 A 
ATOM     25  C   UNL     1       1.839   3.390  19.261  0.00  0.00    +0.000 A 
ATOM     26 CL   UNL     1       1.613   1.688  18.877  0.00  0.00    +0.000 Cl
ATOM     27  C   UNL     1       2.605   4.235  18.440  0.00  0.00    +0.000 A 
ATOM     28 CL   UNL     1       3.364   3.624  16.975  0.00  0.00    +0.000 Cl
ATOM     29  C   UNL     1       2.775   5.584  18.790  0.00  0.00    +0.000 A 
ENDBRANCH  21  22
ENDBRANCH  20  21
ENDBRANCH  18  20
ENDBRANCH  10  16
BRANCH   1  31
ATOM     30  C   UNL     1      -6.490  11.327  18.170  0.00  0.00    +0.000 C 
ATOM     31  O   UNL     1      -5.287  11.945  18.452  0.00  0.00    +0.000 OA
ENDBRANCH   1  31
TORSDOF 6
ENDMDL
MODEL 4
REMARK VINA RESULT:      -7.6      2.463      2.710
REMARK  Name = 
REMARK  8 active torsions:
REMARK  status: ('A' for Active; 'I' for Inactive)
REMARK    1  A    between atoms: C_1  and  O_2
REMARK    2  A    between atoms: O_2  and  C_3
REMARK    3  A    between atoms: C_11  and  N_12
REMARK    4  A    between atoms: C_17  and  N_18
REMARK    5  A    between atoms: N_18  and  C_19
REMARK    6  A    between atoms: C_20  and  C_22
REMARK    7  A    between atoms: C_22  and  O_23
REMARK    8  A    between atoms: O_23  and  C_24
REMARK                            x       y       z     vdW  Elec       q    Type
REMARK                         _______ _______ _______ _____ _____    ______ ____
ROOT
ATOM      1  C   UNL     1      -3.012  11.537  18.800  0.00  0.00    +0.000 A 
ATOM      2  C   UNL     1      -3.419  10.800  17.686  0.00  0.00    +0.000 A 
ATOM      3  C   UNL     1      -2.522   9.992  16.995  0.00  0.00    +0.000 A 
ATOM      4  C   UNL     1      -1.194   9.909  17.408  0.00  0.00    +0.000 A 
ATOM      5  C   UNL     1      -0.758  10.576  18.570  0.00  0.00    +0.000 A 
ATOM      6  C   UNL     1      -1.677  11.389  19.298  0.00  0.00    +0.000 A 
ATOM      7  C   UNL     1      -1.238  12.110  20.558  0.00  0.00    +0.000 C 
ATOM      8  C   UNL     1       0.183  11.809  21.012  0.00  0.00    +0.000 C 
ATOM      9  C   UNL     1       1.113  11.762  19.786  0.00  0.00    +0.000 C 
ATOM     10  C   UNL     1       0.706  10.425  19.022  0.00  0.00    +0.000 C 
ENDROOT
BRANCH   9  11
ATOM     11  N   UNL     1       0.981  12.994  18.930  0.00  0.00    +0.000 NA
ATOM     12  C   UNL     1       2.119  13.166  17.998  0.00  0.00    +0.000 C 
ATOM     13  C   UNL     1       3.080  14.115  18.684  0.00  0.00    +0.000 C 
ATOM     14  C   UNL     1       2.105  15.145  19.172  0.00  0.00    +0.000 C 
ATOM     15  C   UNL     1       0.996  14.257  19.729  0.00  0.00    +0.000 C 
ENDBRANCH   9  11
BRANCH  10  16
ATOM     16  N   UNL     1       0.999   9.158  19.788  0.00  0.00    +0.000 N 
ATOM     17  C   UNL     1       0.355   8.918  21.088  0.00  0.00    +0.000 C 
ATOM     18  C   UNL     1       1.871   8.164  19.354  0.00  0.00    +0.000 C 
ATOM     19  O   UNL     1       2.431   8.229  18.277  0.00  0.00    +0.000 OA
BRANCH  18  20
ATOM     20  C   UNL     1       2.211   6.938  20.173  0.00  0.00    +0.000 C 
BRANCH  20  21
ATOM     21  O   UNL     1       2.329   5.815  19.370  0.00  0.00    +0.000 OA
BRANCH  21  22
ATOM     22  C   UNL     1       3.466   5.478  18.699  0.00  0.00    +0.000 A 
ATOM     23  C   UNL     1       3.427   4.880  17.422  0.00  0.00    +0.000 A 
ATOM     24  C   UNL     1       4.605   4.527  16.766  0.00  0.00    +0.000 A 
ATOM     25  C   UNL     1       5.843   4.765  17.362  0.00  0.00    +0.000 A 
ATOM     26 CL   UNL     1       7.300   4.283  16.501  0.00  0.00    +0.000 Cl
ATOM     27  C   UNL     1       5.903   5.374  18.627  0.00  0.00    +0.000 A 
ATOM     28 CL   UNL     1       7.450   5.696  19.402  0.00  0.00    +0.000 Cl
ATOM     29  C   UNL     1       4.717   5.729  19.288  0.00  0.00    +0.000 A 
ENDBRANCH  21  22
ENDBRANCH  20  21
ENDBRANCH  18  20
ENDBRANCH  10  16
BRANCH   1  31
ATOM     30  C   UNL     1      -5.206  12.023  19.764  0.00  0.00    +0.000 C 
ATOM     31  O   UNL     1      -3.944  12.377  19.329  0.00  0.00    +0.000 OA
ENDBRANCH   1  31
TORSDOF 6
ENDMDL
MODEL 5
REMARK VINA RESULT:      -7.5      2.293      4.329
REMARK  Name = 
REMARK  8 active torsions:
REMARK  status: ('A' for Active; 'I' for Inactive)
REMARK    1  A    between atoms: C_1  and  O_2
REMARK    2  A    between atoms: O_2  and  C_3
REMARK    3  A    between atoms: C_11  and  N_12
REMARK    4  A    between atoms: C_17  and  N_18
REMARK    5  A    between atoms: N_18  and  C_19
REMARK    6  A    between atoms: C_20  and  C_22
REMARK    7  A    between atoms: C_22  and  O_23
REMARK    8  A    between atoms: O_23  and  C_24
REMARK                            x       y       z     vdW  Elec       q    Type
REMARK                         _______ _______ _______ _____ _____    ______ ____
ROOT
ATOM      1  C   UNL     1       1.411  15.427  19.136  0.00  0.00    +0.000 A 
ATOM      2  C   UNL     1       2.655  15.651  19.730  0.00  0.00    +0.000 A 
ATOM      3  C   UNL     1       3.266  14.671  20.503  0.00  0.00    +0.000 A 
ATOM      4  C   UNL     1       2.639  13.442  20.699  0.00  0.00    +0.000 A 
ATOM      5  C   UNL     1       1.420  13.146  20.059  0.00  0.00    +0.000 A 
ATOM      6  C   UNL     1       0.797  14.138  19.244  0.00  0.00    +0.000 A 
ATOM      7  C   UNL     1      -0.511  13.843  18.534  0.00  0.00    +0.000 C 
ATOM      8  C   UNL     1      -1.015  12.414  18.679  0.00  0.00    +0.000 C 
ATOM      9  C   UNL     1      -0.799  11.939  20.127  0.00  0.00    +0.000 C 
ATOM     10  C   UNL     1       0.778  11.762  20.262  0.00  0.00    +0.000 C 
ENDROOT
BRANCH   9  11
ATOM     11  N   UNL     1      -1.372  12.905  21.130  0.00  0.00    +0.000 NA
ATOM     12  C   UNL     1      -0.971  12.590  22.520  0.00  0.00    +0.000 C 
ATOM     13  C   UNL     1      -2.107  11.777  23.108  0.00  0.00    +0.000 C 
ATOM     14  C   UNL     1      -3.270  12.597  22.631  0.00  0.00    +0.000 C 
ATOM     15  C   UNL     1      -2.866  12.863  21.183  0.00  0.00    +0.000 C 
ENDBRANCH   9  11
BRANCH  10  16
ATOM     16  N   UNL     1       1.357  10.668  19.398  0.00  0.00    +0.000 N 
ATOM     17  C   UNL     1       2.085  11.010  18.168  0.00  0.00    +0.000 C 
ATOM     18  C   UNL     1       1.245   9.308  19.675  0.00  0.00    +0.000 C 
ATOM     19  O   UNL     1       0.703   8.903  20.684  0.00  0.00    +0.000 OA
BRANCH  18  20
ATOM     20  C   UNL     1       1.765   8.225  18.755  0.00  0.00    +0.000 C 
BRANCH  20  21
ATOM     21  O   UNL     1       2.656   7.393  19.413  0.00  0.00    +0.000 OA
BRANCH  21  22
ATOM     22  C   UNL     1       2.769   6.057  19.167  0.00  0.00    +0.000 A 
ATOM     23  C   UNL     1       3.502   5.562  18.068  0.00  0.00    +0.000 A 
ATOM     24  C   UNL     1       3.584   4.192  17.827  0.00  0.00    +0.000 A 
ATOM     25  C   UNL     1       2.945   3.287  18.674  0.00  0.00    +0.000 A 
ATOM     26 CL   UNL     1       3.064   1.569  18.316  0.00  0.00    +0.000 Cl
ATOM     27  C   UNL     1       2.224   3.759  19.783  0.00  0.00    +0.000 A 
ATOM     28 CL   UNL     1       1.414   2.643  20.876  0.00  0.00    +0.000 Cl
ATOM     29  C   UNL     1       2.139   5.140  20.025  0.00  0.00    +0.000 A 
ENDBRANCH  21  22
ENDBRANCH  20  21
ENDBRANCH  18  20
ENDBRANCH  10  16
BRANCH   1  31
ATOM     30  C   UNL     1       1.347  17.785  18.493  0.00  0.00    +0.000 C 
ATOM     31  O   UNL     1       0.859  16.493  18.495  0.00  0.00    +0.000 OA
ENDBRANCH   1  31
TORSDOF 6
ENDMDL
MODEL 6
REMARK VINA RESULT:      -7.4      1.226      1.434
REMARK  Name = 
REMARK  8 active torsions:
REMARK  status: ('A' for Active; 'I' for Inactive)
REMARK    1  A    between atoms: C_1  and  O_2
REMARK    2  A    between atoms: O_2  and  C_3
REMARK    3  A    between atoms: C_11  and  N_12
REMARK    4  A    between atoms: C_17  and  N_18
REMARK    5  A    between atoms: N_18  and  C_19
REMARK    6  A    between atoms: C_20  and  C_22
REMARK    7  A    between atoms: C_22  and  O_23
REMARK    8  A    between atoms: O_23  and  C_24
REMARK                            x       y       z     vdW  Elec       q    Type
REMARK                         _______ _______ _______ _____ _____    ______ ____
ROOT
ATOM      1  C   UNL     1      -3.966  11.928  18.745  0.00  0.00    +0.000 A 
ATOM      2  C   UNL     1      -4.243  11.423  17.472  0.00  0.00    +0.000 A 
ATOM      3  C   UNL     1      -3.224  10.961  16.647  0.00  0.00    +0.000 A 
ATOM      4  C   UNL     1      -1.901  10.999  17.082  0.00  0.00    +0.000 A 
ATOM      5  C   UNL     1      -1.583  11.430  18.385  0.00  0.00    +0.000 A 
ATOM      6  C   UNL     1      -2.626  11.884  19.247  0.00  0.00    +0.000 A 
ATOM      7  C   UNL     1      -2.315  12.344  20.659  0.00  0.00    +0.000 C 
ATOM      8  C   UNL     1      -0.864  12.178  21.085  0.00  0.00    +0.000 C 
ATOM      9  C   UNL     1       0.061  12.578  19.922  0.00  0.00    +0.000 C 
ATOM     10  C   UNL     1      -0.115  11.415  18.848  0.00  0.00    +0.000 C 
ENDROOT
BRANCH   9  11
ATOM     11  N   UNL     1      -0.274  13.941  19.376  0.00  0.00    +0.000 NA
ATOM     12  C   UNL     1       0.745  14.444  18.427  0.00  0.00    +0.000 C 
ATOM     13  C   UNL     1       1.669  15.330  19.238  0.00  0.00    +0.000 C 
ATOM     14  C   UNL     1       0.646  16.108  20.014  0.00  0.00    +0.000 C 
ATOM     15  C   UNL     1      -0.309  14.995  20.436  0.00  0.00    +0.000 C 
ENDBRANCH   9  11
BRANCH  10  16
ATOM     16  N   UNL     1       0.386  10.066  19.304  0.00  0.00    +0.000 N 
ATOM     17  C   UNL     1      -0.155   9.456  20.527  0.00  0.00    +0.000 C 
ATOM     18  C   UNL     1       1.365   9.330  18.644  0.00  0.00    +0.000 C 
ATOM     19  O   UNL     1       1.858   9.712  17.600  0.00  0.00    +0.000 OA
BRANCH  18  20
ATOM     20  C   UNL     1       1.910   8.016  19.160  0.00  0.00    +0.000 C 
BRANCH  20  21
ATOM     21  O   UNL     1       2.639   7.357  18.184  0.00  0.00    +0.000 OA
BRANCH  21  22
ATOM     22  C   UNL     1       2.878   6.015  18.193  0.00  0.00    +0.000 A 
ATOM     23  C   UNL     1       4.152   5.484  17.905  0.00  0.00    +0.000 A 
ATOM     24  C   UNL     1       4.365   4.107  17.900  0.00  0.00    +0.000 A 
ATOM     25  C   UNL     1       3.318   3.231  18.186  0.00  0.00    +0.000 A 
ATOM     26 CL   UNL     1       3.632   1.500  18.150  0.00  0.00    +0.000 Cl
ATOM     27  C   UNL     1       2.045   3.741  18.492  0.00  0.00    +0.000 A 
ATOM     28 CL   UNL     1       0.706   2.663  18.866  0.00  0.00    +0.000 Cl
ATOM     29  C   UNL     1       1.831   5.129  18.495  0.00  0.00    +0.000 A 
ENDBRANCH  21  22
ENDBRANCH  20  21
ENDBRANCH  18  20
ENDBRANCH  10  16
BRANCH   1  31
ATOM     30  C   UNL     1      -5.872  11.768  20.269  0.00  0.00    +0.000 C 
ATOM     31  O   UNL     1      -5.026  12.453  19.418  0.00  0.00    +0.000 OA
ENDBRANCH   1  31
TORSDOF 6
ENDMDL
MODEL 7
REMARK VINA RESULT:      -7.4      2.388      4.409
REMARK  Name = 
REMARK  8 active torsions:
REMARK  status: ('A' for Active; 'I' for Inactive)
REMARK    1  A    between atoms: C_1  and  O_2
REMARK    2  A    between atoms: O_2  and  C_3
REMARK    3  A    between atoms: C_11  and  N_12
REMARK    4  A    between atoms: C_17  and  N_18
REMARK    5  A    between atoms: N_18  and  C_19
REMARK    6  A    between atoms: C_20  and  C_22
REMARK    7  A    between atoms: C_22  and  O_23
REMARK    8  A    between atoms: O_23  and  C_24
REMARK                            x       y       z     vdW  Elec       q    Type
REMARK                         _______ _______ _______ _____ _____    ______ ____
ROOT
ATOM      1  C   UNL     1       1.331  15.116  19.028  0.00  0.00    +0.000 A 
ATOM      2  C   UNL     1       2.556  15.387  19.641  0.00  0.00    +0.000 A 
ATOM      3  C   UNL     1       3.122  14.489  20.539  0.00  0.00    +0.000 A 
ATOM      4  C   UNL     1       2.467  13.298  20.844  0.00  0.00    +0.000 A 
ATOM      5  C   UNL     1       1.266  12.950  20.195  0.00  0.00    +0.000 A 
ATOM      6  C   UNL     1       0.690  13.855  19.253  0.00  0.00    +0.000 A 
ATOM      7  C   UNL     1      -0.596  13.502  18.531  0.00  0.00    +0.000 C 
ATOM      8  C   UNL     1      -1.130  12.104  18.811  0.00  0.00    +0.000 C 
ATOM      9  C   UNL     1      -0.974  11.787  20.309  0.00  0.00    +0.000 C 
ATOM     10  C   UNL     1       0.593  11.605  20.523  0.00  0.00    +0.000 C 
ENDROOT
BRANCH   9  11
ATOM     11  N   UNL     1      -1.566  12.865  21.179  0.00  0.00    +0.000 NA
ATOM     12  C   UNL     1      -1.266  12.669  22.615  0.00  0.00    +0.000 C 
ATOM     13  C   UNL     1      -2.469  11.959  23.201  0.00  0.00    +0.000 C 
ATOM     14  C   UNL     1      -3.564  12.771  22.575  0.00  0.00    +0.000 C 
ATOM     15  C   UNL     1      -3.061  12.884  21.138  0.00  0.00    +0.000 C 
ENDBRANCH   9  11
BRANCH  10  16
ATOM     16  N   UNL     1       1.184  10.415  19.805  0.00  0.00    +0.000 N 
ATOM     17  C   UNL     1       1.708  10.566  18.440  0.00  0.00    +0.000 C 
ATOM     18  C   UNL     1       1.266   9.135  20.345  0.00  0.00    +0.000 C 
ATOM     19  O   UNL     1       0.903   8.895  21.481  0.00  0.00    +0.000 OA
BRANCH  18  20
ATOM     20  C   UNL     1       1.790   7.940  19.581  0.00  0.00    +0.000 C 
BRANCH  20  21
ATOM     21  O   UNL     1       1.868   6.819  20.392  0.00  0.00    +0.000 OA
BRANCH  21  22
ATOM     22  C   UNL     1       2.233   5.584  19.946  0.00  0.00    +0.000 A 
ATOM     23  C   UNL     1       1.902   4.410  20.653  0.00  0.00    +0.000 A 
ATOM     24  C   UNL     1       2.305   3.160  20.186  0.00  0.00    +0.000 A 
ATOM     25  C   UNL     1       3.040   3.052  19.005  0.00  0.00    +0.000 A 
ATOM     26 CL   UNL     1       3.541   1.454  18.467  0.00  0.00    +0.000 Cl
ATOM     27  C   UNL     1       3.366   4.209  18.278  0.00  0.00    +0.000 A 
ATOM     28 CL   UNL     1       4.284   4.106  16.781  0.00  0.00    +0.000 Cl
ATOM     29  C   UNL     1       2.960   5.469  18.750  0.00  0.00    +0.000 A 
ENDBRANCH  21  22
ENDBRANCH  20  21
ENDBRANCH  18  20
ENDBRANCH  10  16
BRANCH   1  31
ATOM     30  C   UNL     1       0.549  17.404  18.665  0.00  0.00    +0.000 C 
ATOM     31  O   UNL     1       0.820  16.113  18.255  0.00  0.00    +0.000 OA
ENDBRANCH   1  31
TORSDOF 6
ENDMDL
MODEL 8
REMARK VINA RESULT:      -7.1      1.209      1.393
REMARK  Name = 
REMARK  8 active torsions:
REMARK  status: ('A' for Active; 'I' for Inactive)
REMARK    1  A    between atoms: C_1  and  O_2
REMARK    2  A    between atoms: O_2  and  C_3
REMARK    3  A    between atoms: C_11  and  N_12
REMARK    4  A    between atoms: C_17  and  N_18
REMARK    5  A    between atoms: N_18  and  C_19
REMARK    6  A    between atoms: C_20  and  C_22
REMARK    7  A    between atoms: C_22  and  O_23
REMARK    8  A    between atoms: O_23  and  C_24
REMARK                            x       y       z     vdW  Elec       q    Type
REMARK                         _______ _______ _______ _____ _____    ______ ____
ROOT
ATOM      1  C   UNL     1      -3.456  12.474  19.795  0.00  0.00    +0.000 A 
ATOM      2  C   UNL     1      -3.880  11.860  18.614  0.00  0.00    +0.000 A 
ATOM      3  C   UNL     1      -2.984  11.176  17.801  0.00  0.00    +0.000 A 
ATOM      4  C   UNL     1      -1.639  11.096  18.154  0.00  0.00    +0.000 A 
ATOM      5  C   UNL     1      -1.181  11.637  19.371  0.00  0.00    +0.000 A 
ATOM      6  C   UNL     1      -2.098  12.320  20.225  0.00  0.00    +0.000 A 
ATOM      7  C   UNL     1      -1.635  12.903  21.546  0.00  0.00    +0.000 C 
ATOM      8  C   UNL     1      -0.188  12.606  21.910  0.00  0.00    +0.000 C 
ATOM      9  C   UNL     1       0.694  12.742  20.656  0.00  0.00    +0.000 C 
ATOM     10  C   UNL     1       0.304  11.490  19.751  0.00  0.00    +0.000 C 
ENDROOT
BRANCH   9  11
ATOM     11  N   UNL     1       0.487  14.061  19.960  0.00  0.00    +0.000 NA
ATOM     12  C   UNL     1       1.317  14.201  18.742  0.00  0.00    +0.000 C 
ATOM     13  C   UNL     1       2.555  14.965  19.167  0.00  0.00    +0.000 C 
ATOM     14  C   UNL     1       1.910  16.041  19.991  0.00  0.00    +0.000 C 
ATOM     15  C   UNL     1       0.902  15.227  20.798  0.00  0.00    +0.000 C 
ENDBRANCH   9  11
BRANCH  10  16
ATOM     16  N   UNL     1       0.671  10.153  20.348  0.00  0.00    +0.000 N 
ATOM     17  C   UNL     1       0.429   9.893  21.774  0.00  0.00    +0.000 C 
ATOM     18  C   UNL     1       1.253   9.110  19.634  0.00  0.00    +0.000 C 
ATOM     19  O   UNL     1       1.464   9.191  18.440  0.00  0.00    +0.000 OA
BRANCH  18  20
ATOM     20  C   UNL     1       1.685   7.806  20.268  0.00  0.00    +0.000 C 
BRANCH  20  21
ATOM     21  O   UNL     1       2.746   7.240  19.579  0.00  0.00    +0.000 OA
BRANCH  21  22
ATOM     22  C   UNL     1       2.874   5.902  19.352  0.00  0.00    +0.000 A 
ATOM     23  C   UNL     1       3.441   5.401  18.161  0.00  0.00    +0.000 A 
ATOM     24  C   UNL     1       3.542   4.028  17.944  0.00  0.00    +0.000 A 
ATOM     25  C   UNL     1       3.088   3.127  18.907  0.00  0.00    +0.000 A 
ATOM     26 CL   UNL     1       3.221   1.403  18.579  0.00  0.00    +0.000 Cl
ATOM     27  C   UNL     1       2.536   3.606  20.107  0.00  0.00    +0.000 A 
ATOM     28 CL   UNL     1       1.962   2.496  21.345  0.00  0.00    +0.000 Cl
ATOM     29  C   UNL     1       2.433   4.990  20.325  0.00  0.00    +0.000 A 
ENDBRANCH  21  22
ENDBRANCH  20  21
ENDBRANCH  18  20
ENDBRANCH  10  16
BRANCH   1  31
ATOM     30  C   UNL     1      -5.741  12.915  20.542  0.00  0.00    +0.000 C 
ATOM     31  O   UNL     1      -4.394  13.208  20.453  0.00  0.00    +0.000 OA
ENDBRANCH   1  31
TORSDOF 6
ENDMDL
MODEL 9
REMARK VINA RESULT:      -7.0      1.489      1.877
REMARK  Name = 
REMARK  8 active torsions:
REMARK  status: ('A' for Active; 'I' for Inactive)
REMARK    1  A    between atoms: C_1  and  O_2
REMARK    2  A    between atoms: O_2  and  C_3
REMARK    3  A    between atoms: C_11  and  N_12
REMARK    4  A    between atoms: C_17  and  N_18
REMARK    5  A    between atoms: N_18  and  C_19
REMARK    6  A    between atoms: C_20  and  C_22
REMARK    7  A    between atoms: C_22  and  O_23
REMARK    8  A    between atoms: O_23  and  C_24
REMARK                            x       y       z     vdW  Elec       q    Type
REMARK                         _______ _______ _______ _____ _____    ______ ____
ROOT
ATOM      1  C   UNL     1      -4.124  12.906  20.679  0.00  0.00    +0.000 A 
ATOM      2  C   UNL     1      -4.722  12.350  19.546  0.00  0.00    +0.000 A 
ATOM      3  C   UNL     1      -3.962  11.705  18.578  0.00  0.00    +0.000 A 
ATOM      4  C   UNL     1      -2.580  11.607  18.725  0.00  0.00    +0.000 A 
ATOM      5  C   UNL     1      -1.943  12.087  19.886  0.00  0.00    +0.000 A 
ATOM      6  C   UNL     1      -2.719  12.729  20.897  0.00  0.00    +0.000 A 
ATOM      7  C   UNL     1      -2.063  13.246  22.163  0.00  0.00    +0.000 C 
ATOM      8  C   UNL     1      -0.580  12.929  22.295  0.00  0.00    +0.000 C 
ATOM      9  C   UNL     1       0.109  13.125  20.933  0.00  0.00    +0.000 C 
ATOM     10  C   UNL     1      -0.420  11.920  20.036  0.00  0.00    +0.000 C 
ENDROOT
BRANCH   9  11
ATOM     11  N   UNL     1      -0.187  14.477  20.338  0.00  0.00    +0.000 NA
ATOM     12  C   UNL     1       0.281  14.601  18.939  0.00  0.00    +0.000 C 
ATOM     13  C   UNL     1       1.640  15.268  19.012  0.00  0.00    +0.000 C 
ATOM     14  C   UNL     1       1.329  16.357  19.996  0.00  0.00    +0.000 C 
ATOM     15  C   UNL     1       0.527  15.586  21.042  0.00  0.00    +0.000 C 
ENDBRANCH   9  11
BRANCH  10  16
ATOM     16  N   UNL     1       0.019  10.555  20.507  0.00  0.00    +0.000 N 
ATOM     17  C   UNL     1      -0.456  10.034  21.797  0.00  0.00    +0.000 C 
ATOM     18  C   UNL     1       0.880   9.721  19.799  0.00  0.00    +0.000 C 
ATOM     19  O   UNL     1       1.306  10.024  18.702  0.00  0.00    +0.000 OA
BRANCH  18  20
ATOM     20  C   UNL     1       1.370   8.390  20.325  0.00  0.00    +0.000 C 
BRANCH  20  21
ATOM     21  O   UNL     1       2.010   7.663  19.334  0.00  0.00    +0.000 OA
BRANCH  21  22
ATOM     22  C   UNL     1       2.551   6.428  19.530  0.00  0.00    +0.000 A 
ATOM     23  C   UNL     1       3.746   6.030  18.895  0.00  0.00    +0.000 A 
ATOM     24  C   UNL     1       4.268   4.753  19.096  0.00  0.00    +0.000 A 
ATOM     25  C   UNL     1       3.617   3.849  19.935  0.00  0.00    +0.000 A 
ATOM     26 CL   UNL     1       4.305   2.243  20.142  0.00  0.00    +0.000 Cl
ATOM     27  C   UNL     1       2.434   4.232  20.590  0.00  0.00    +0.000 A 
ATOM     28 CL   UNL     1       1.593   3.119  21.662  0.00  0.00    +0.000 Cl
ATOM     29  C   UNL     1       1.908   5.518  20.386  0.00  0.00    +0.000 A 
ENDBRANCH  21  22
ENDBRANCH  20  21
ENDBRANCH  18  20
ENDBRANCH  10  16
BRANCH   1  31
ATOM     30  C   UNL     1      -5.568  14.807  21.208  0.00  0.00    +0.000 C 
ATOM     31  O   UNL     1      -4.950  13.607  21.503  0.00  0.00    +0.000 OA
ENDBRANCH   1  31
TORSDOF 6
ENDMDL
