MODEL 1
REMARK VINA RESULT:      -8.3      0.000      0.000
REMARK  Name = 
REMARK  2 active torsions:
REMARK  status: ('A' for Active; 'I' for Inactive)
REMARK    1  A    between atoms: S_2  and  C_4
REMARK    2  A    between atoms: S_2  and  N_11
REMARK                            x       y       z     vdW  Elec       q    Type
REMARK                         _______ _______ _______ _____ _____    ______ ____
ROOT
ATOM      1  N   UNL     1       4.203   5.741  18.176  0.00  0.00    +0.000 NA
ATOM      2  C   UNL     1       5.409   5.364  18.973  0.00  0.00    +0.000 C 
ATOM      3  C   UNL     1       5.276   3.805  19.212  0.00  0.00    +0.000 C 
ATOM      4  O   UNL     1       4.234   3.039  18.459  0.00  0.00    +0.000 OA
ATOM      5  C   UNL     1       3.781   3.520  17.129  0.00  0.00    +0.000 C 
ATOM      6  C   UNL     1       4.314   4.905  16.891  0.00  0.00    +0.000 C 
ATOM      7  C   UNL     1       5.477   5.351  16.037  0.00  0.00    +0.000 A 
ATOM      8  C   UNL     1       5.883   5.005  14.735  0.00  0.00    +0.000 A 
ATOM      9  N   UNL     1       7.199   5.177  14.563  0.00  0.00    +0.000 NA
ATOM     10  N   UNL     1       7.647   5.611  15.763  0.00  0.00    +0.000 N 
ATOM     11  C   UNL     1       6.650   5.721  16.686  0.00  0.00    +0.000 A 
ATOM     12  C   UNL     1       6.757   5.843  18.195  0.00  0.00    +0.000 C 
ATOM     13  H   UNL     1       8.652   5.692  15.888  0.00  0.00    +0.000 HD
ENDROOT
BRANCH   1  15
ATOM     14  O   UNL     1       2.969   5.371  20.379  0.00  0.00    +0.000 OA
ATOM     15  S   UNL     1       2.695   5.852  19.040  0.00  0.00    +0.000 S 
ATOM     16  O   UNL     1       1.688   5.200  18.218  0.00  0.00    +0.000 OA
BRANCH  15  17
ATOM     17  C   UNL     1       2.079   7.563  19.261  0.00  0.00    +0.000 A 
ATOM     18  C   UNL     1       1.560   8.028  20.480  0.00  0.00    +0.000 A 
ATOM     19  C   UNL     1       0.874   9.260  20.530  0.00  0.00    +0.000 A 
ATOM     20  C   UNL     1       0.756  10.046  19.384  0.00  0.00    +0.000 A 
ATOM     21 CL   UNL     1      -0.224  11.463  19.397  0.00  0.00    +0.000 Cl
ATOM     22  C   UNL     1       1.416   9.672  18.216  0.00  0.00    +0.000 A 
ATOM     23  C   UNL     1       2.123   8.458  18.172  0.00  0.00    +0.000 A 
ENDBRANCH  15  17
ENDBRANCH   1  15
TORSDOF 2
ENDMDL
MODEL 2
REMARK VINA RESULT:      -7.9      0.368      1.093
REMARK  Name = 
REMARK  2 active torsions:
REMARK  status: ('A' for Active; 'I' for Inactive)
REMARK    1  A    between atoms: S_2  and  C_4
REMARK    2  A    between atoms: S_2  and  N_11
REMARK                            x       y       z     vdW  Elec       q    Type
REMARK                         _______ _______ _______ _____ _____    ______ ____
ROOT
ATOM      1  N   UNL     1       4.210   5.819  18.058  0.00  0.00    +0.000 NA
ATOM      2  C   UNL     1       5.432   5.550  18.875  0.00  0.00    +0.000 C 
ATOM      3  C   UNL     1       5.377   4.002  19.203  0.00  0.00    +0.000 C 
ATOM      4  O   UNL     1       4.376   3.143  18.496  0.00  0.00    +0.000 OA
ATOM      5  C   UNL     1       3.902   3.523  17.141  0.00  0.00    +0.000 C 
ATOM      6  C   UNL     1       4.365   4.917  16.823  0.00  0.00    +0.000 C 
ATOM      7  C   UNL     1       5.506   5.371  15.943  0.00  0.00    +0.000 A 
ATOM      8  C   UNL     1       5.931   4.970  14.664  0.00  0.00    +0.000 A 
ATOM      9  N   UNL     1       7.237   5.199  14.481  0.00  0.00    +0.000 NA
ATOM     10  N   UNL     1       7.661   5.723  15.654  0.00  0.00    +0.000 N 
ATOM     11  C   UNL     1       6.657   5.835  16.570  0.00  0.00    +0.000 A 
ATOM     12  C   UNL     1       6.755   6.050  18.069  0.00  0.00    +0.000 C 
ATOM     13  H   UNL     1       8.661   5.862  15.773  0.00  0.00    +0.000 HD
ENDROOT
BRANCH   1  15
ATOM     14  O   UNL     1       2.998   5.549  20.288  0.00  0.00    +0.000 OA
ATOM     15  S   UNL     1       2.697   5.903  18.916  0.00  0.00    +0.000 S 
ATOM     16  O   UNL     1       1.734   5.126  18.151  0.00  0.00    +0.000 OA
BRANCH  15  17
ATOM     17  C   UNL     1       1.974   7.585  19.001  0.00  0.00    +0.000 A 
ATOM     18  C   UNL     1       1.941   8.449  17.894  0.00  0.00    +0.000 A 
ATOM     19  C   UNL     1       1.607   9.809  18.072  0.00  0.00    +0.000 A 
ATOM     20  C   UNL     1       1.257  10.288  19.335  0.00  0.00    +0.000 A 
ATOM     21 CL   UNL     1       1.019  11.975  19.590  0.00  0.00    +0.000 Cl
ATOM     22  C   UNL     1       1.123   9.400  20.399  0.00  0.00    +0.000 A 
ATOM     23  C   UNL     1       1.428   8.041  20.218  0.00  0.00    +0.000 A 
ENDBRANCH  15  17
ENDBRANCH   1  15
TORSDOF 2
ENDMDL
MODEL 3
REMARK VINA RESULT:      -7.0      3.668      5.871
REMARK  Name = 
REMARK  2 active torsions:
REMARK  status: ('A' for Active; 'I' for Inactive)
REMARK    1  A    between atoms: S_2  and  C_4
REMARK    2  A    between atoms: S_2  and  N_11
REMARK                            x       y       z     vdW  Elec       q    Type
REMARK                         _______ _______ _______ _____ _____    ______ ____
ROOT
ATOM      1  N   UNL     1       4.064   4.602  18.582  0.00  0.00    +0.000 NA
ATOM      2  C   UNL     1       2.745   5.304  18.572  0.00  0.00    +0.000 C 
ATOM      3  C   UNL     1       1.870   4.524  17.509  0.00  0.00    +0.000 C 
ATOM      4  O   UNL     1       2.369   3.219  16.971  0.00  0.00    +0.000 OA
ATOM      5  C   UNL     1       3.269   2.375  17.796  0.00  0.00    +0.000 C 
ATOM      6  C   UNL     1       3.730   3.160  18.993  0.00  0.00    +0.000 C 
ATOM      7  C   UNL     1       3.260   3.085  20.427  0.00  0.00    +0.000 A 
ATOM      8  C   UNL     1       2.992   2.000  21.280  0.00  0.00    +0.000 A 
ATOM      9  N   UNL     1       2.106   2.321  22.230  0.00  0.00    +0.000 NA
ATOM     10  N   UNL     1       1.781   3.609  21.973  0.00  0.00    +0.000 N 
ATOM     11  C   UNL     1       2.442   4.110  20.891  0.00  0.00    +0.000 A 
ATOM     12  C   UNL     1       2.137   5.356  20.081  0.00  0.00    +0.000 C 
ATOM     13  H   UNL     1       1.024   4.020  22.513  0.00  0.00    +0.000 HD
ENDROOT
BRANCH   1  15
ATOM     14  O   UNL     1       4.328   5.597  16.247  0.00  0.00    +0.000 OA
ATOM     15  S   UNL     1       5.133   4.923  17.245  0.00  0.00    +0.000 S 
ATOM     16  O   UNL     1       5.799   3.670  16.927  0.00  0.00    +0.000 OA
BRANCH  15  17
ATOM     17  C   UNL     1       6.493   6.088  17.633  0.00  0.00    +0.000 A 
ATOM     18  C   UNL     1       7.462   5.818  18.613  0.00  0.00    +0.000 A 
ATOM     19  C   UNL     1       8.330   6.842  19.047  0.00  0.00    +0.000 A 
ATOM     20  C   UNL     1       8.266   8.110  18.468  0.00  0.00    +0.000 A 
ATOM     21 CL   UNL     1       9.200   9.408  19.110  0.00  0.00    +0.000 Cl
ATOM     22  C   UNL     1       7.426   8.333  17.381  0.00  0.00    +0.000 A 
ATOM     23  C   UNL     1       6.580   7.306  16.929  0.00  0.00    +0.000 A 
ENDBRANCH  15  17
ENDBRANCH   1  15
TORSDOF 2
ENDMDL
MODEL 4
REMARK VINA RESULT:      -7.0      4.163      6.910
REMARK  Name = 
REMARK  2 active torsions:
REMARK  status: ('A' for Active; 'I' for Inactive)
REMARK    1  A    between atoms: S_2  and  C_4
REMARK    2  A    between atoms: S_2  and  N_11
REMARK                            x       y       z     vdW  Elec       q    Type
REMARK                         _______ _______ _______ _____ _____    ______ ____
ROOT
ATOM      1  N   UNL     1       4.592   4.385  17.155  0.00  0.00    +0.000 NA
ATOM      2  C   UNL     1       5.175   3.897  18.441  0.00  0.00    +0.000 C 
ATOM      3  C   UNL     1       5.078   5.127  19.432  0.00  0.00    +0.000 C 
ATOM      4  O   UNL     1       4.274   6.324  19.031  0.00  0.00    +0.000 OA
ATOM      5  C   UNL     1       3.128   6.166  18.100  0.00  0.00    +0.000 C 
ATOM      6  C   UNL     1       3.151   4.783  17.511  0.00  0.00    +0.000 C 
ATOM      7  C   UNL     1       2.313   3.577  17.862  0.00  0.00    +0.000 A 
ATOM      8  C   UNL     1       0.935   3.420  18.102  0.00  0.00    +0.000 A 
ATOM      9  N   UNL     1       0.686   2.369  18.892  0.00  0.00    +0.000 NA
ATOM     10  N   UNL     1       1.906   1.864  19.186  0.00  0.00    +0.000 N 
ATOM     11  C   UNL     1       2.918   2.564  18.598  0.00  0.00    +0.000 A 
ATOM     12  C   UNL     1       4.400   2.547  18.919  0.00  0.00    +0.000 C 
ATOM     13  H   UNL     1       1.954   1.122  19.878  0.00  0.00    +0.000 HD
ENDROOT
BRANCH   1  15
ATOM     14  O   UNL     1       6.869   5.505  16.873  0.00  0.00    +0.000 OA
ATOM     15  S   UNL     1       5.594   5.433  16.189  0.00  0.00    +0.000 S 
ATOM     16  O   UNL     1       4.824   6.641  15.940  0.00  0.00    +0.000 OA
BRANCH  15  17
ATOM     17  C   UNL     1       5.979   4.775  14.522  0.00  0.00    +0.000 A 
ATOM     18  C   UNL     1       5.089   3.956  13.809  0.00  0.00    +0.000 A 
ATOM     19  C   UNL     1       5.529   3.277  12.653  0.00  0.00    +0.000 A 
ATOM     20  C   UNL     1       6.830   3.459  12.183  0.00  0.00    +0.000 A 
ATOM     21 CL   UNL     1       7.425   2.504  10.878  0.00  0.00    +0.000 Cl
ATOM     22  C   UNL     1       7.659   4.400  12.787  0.00  0.00    +0.000 A 
ATOM     23  C   UNL     1       7.214   5.097  13.922  0.00  0.00    +0.000 A 
ENDBRANCH  15  17
ENDBRANCH   1  15
TORSDOF 2
ENDMDL
MODEL 5
REMARK VINA RESULT:      -6.8      3.361      6.437
REMARK  Name = 
REMARK  2 active torsions:
REMARK  status: ('A' for Active; 'I' for Inactive)
REMARK    1  A    between atoms: S_2  and  C_4
REMARK    2  A    between atoms: S_2  and  N_11
REMARK                            x       y       z     vdW  Elec       q    Type
REMARK                         _______ _______ _______ _____ _____    ______ ____
ROOT
ATOM      1  N   UNL     1       3.674   5.968  19.055  0.00  0.00    +0.000 NA
ATOM      2  C   UNL     1       2.894   6.229  17.808  0.00  0.00    +0.000 C 
ATOM      3  C   UNL     1       1.812   5.075  17.747  0.00  0.00    +0.000 C 
ATOM      4  O   UNL     1       1.617   4.196  18.942  0.00  0.00    +0.000 OA
ATOM      5  C   UNL     1       1.914   4.718  20.300  0.00  0.00    +0.000 C 
ATOM      6  C   UNL     1       2.632   6.034  20.182  0.00  0.00    +0.000 C 
ATOM      7  C   UNL     1       2.100   7.436  20.366  0.00  0.00    +0.000 A 
ATOM      8  C   UNL     1       1.267   8.012  21.342  0.00  0.00    +0.000 A 
ATOM      9  N   UNL     1       0.608   9.076  20.868  0.00  0.00    +0.000 NA
ATOM     10  N   UNL     1       0.995   9.170  19.575  0.00  0.00    +0.000 N 
ATOM     11  C   UNL     1       1.884   8.198  19.223  0.00  0.00    +0.000 A 
ATOM     12  C   UNL     1       2.302   7.746  17.836  0.00  0.00    +0.000 C 
ATOM     13  H   UNL     1       0.517   9.848  18.989  0.00  0.00    +0.000 HD
ENDROOT
BRANCH   1  15
ATOM     14  O   UNL     1       4.086   3.452  19.180  0.00  0.00    +0.000 OA
ATOM     15  S   UNL     1       4.840   4.675  18.994  0.00  0.00    +0.000 S 
ATOM     16  O   UNL     1       5.909   5.027  19.915  0.00  0.00    +0.000 OA
BRANCH  15  17
ATOM     17  C   UNL     1       5.667   4.487  17.370  0.00  0.00    +0.000 A 
ATOM     18  C   UNL     1       7.013   4.832  17.163  0.00  0.00    +0.000 A 
ATOM     19  C   UNL     1       7.528   4.906  15.852  0.00  0.00    +0.000 A 
ATOM     20  C   UNL     1       6.721   4.584  14.760  0.00  0.00    +0.000 A 
ATOM     21 CL   UNL     1       7.289   4.838  13.154  0.00  0.00    +0.000 Cl
ATOM     22  C   UNL     1       5.441   4.078  14.970  0.00  0.00    +0.000 A 
ATOM     23  C   UNL     1       4.936   3.978  16.277  0.00  0.00    +0.000 A 
ENDBRANCH  15  17
ENDBRANCH   1  15
TORSDOF 2
ENDMDL
MODEL 6
REMARK VINA RESULT:      -6.4      4.206      6.455
REMARK  Name = 
REMARK  2 active torsions:
REMARK  status: ('A' for Active; 'I' for Inactive)
REMARK    1  A    between atoms: S_2  and  C_4
REMARK    2  A    between atoms: S_2  and  N_11
REMARK                            x       y       z     vdW  Elec       q    Type
REMARK                         _______ _______ _______ _____ _____    ______ ____
ROOT
ATOM      1  N   UNL     1       3.725   5.179  18.823  0.00  0.00    +0.000 NA
ATOM      2  C   UNL     1       2.729   4.680  17.828  0.00  0.00    +0.000 C 
ATOM      3  C   UNL     1       3.404   3.408  17.170  0.00  0.00    +0.000 C 
ATOM      4  O   UNL     1       4.651   2.848  17.779  0.00  0.00    +0.000 OA
ATOM      5  C   UNL     1       4.908   3.024  19.231  0.00  0.00    +0.000 C 
ATOM      6  C   UNL     1       3.920   4.006  19.797  0.00  0.00    +0.000 C 
ATOM      7  C   UNL     1       2.676   3.751  20.615  0.00  0.00    +0.000 A 
ATOM      8  C   UNL     1       2.422   2.909  21.713  0.00  0.00    +0.000 A 
ATOM      9  N   UNL     1       1.130   2.567  21.787  0.00  0.00    +0.000 NA
ATOM     10  N   UNL     1       0.555   3.167  20.720  0.00  0.00    +0.000 N 
ATOM     11  C   UNL     1       1.447   3.883  19.977  0.00  0.00    +0.000 A 
ATOM     12  C   UNL     1       1.301   4.415  18.565  0.00  0.00    +0.000 C 
ATOM     13  H   UNL     1      -0.415   2.939  20.518  0.00  0.00    +0.000 HD
ENDROOT
BRANCH   1  15
ATOM     14  O   UNL     1       6.201   5.747  19.077  0.00  0.00    +0.000 OA
ATOM     15  S   UNL     1       5.095   6.049  18.191  0.00  0.00    +0.000 S 
ATOM     16  O   UNL     1       4.668   7.425  17.994  0.00  0.00    +0.000 OA
BRANCH  15  17
ATOM     17  C   UNL     1       5.641   5.489  16.534  0.00  0.00    +0.000 A 
ATOM     18  C   UNL     1       5.051   5.955  15.347  0.00  0.00    +0.000 A 
ATOM     19  C   UNL     1       5.331   5.313  14.122  0.00  0.00    +0.000 A 
ATOM     20  C   UNL     1       6.234   4.250  14.075  0.00  0.00    +0.000 A 
ATOM     21 CL   UNL     1       6.448   3.354  12.619  0.00  0.00    +0.000 Cl
ATOM     22  C   UNL     1       6.948   3.898  15.217  0.00  0.00    +0.000 A 
ATOM     23  C   UNL     1       6.691   4.554  16.432  0.00  0.00    +0.000 A 
ENDBRANCH  15  17
ENDBRANCH   1  15
TORSDOF 2
ENDMDL
MODEL 7
REMARK VINA RESULT:      -6.3      4.360      6.554
REMARK  Name = 
REMARK  2 active torsions:
REMARK  status: ('A' for Active; 'I' for Inactive)
REMARK    1  A    between atoms: S_2  and  C_4
REMARK    2  A    between atoms: S_2  and  N_11
REMARK                            x       y       z     vdW  Elec       q    Type
REMARK                         _______ _______ _______ _____ _____    ______ ____
ROOT
ATOM      1  N   UNL     1       3.456   5.054  18.341  0.00  0.00    +0.000 NA
ATOM      2  C   UNL     1       2.766   4.019  17.514  0.00  0.00    +0.000 C 
ATOM      3  C   UNL     1       3.812   2.839  17.371  0.00  0.00    +0.000 C 
ATOM      4  O   UNL     1       5.049   2.857  18.213  0.00  0.00    +0.000 OA
ATOM      5  C   UNL     1       5.037   3.540  19.532  0.00  0.00    +0.000 C 
ATOM      6  C   UNL     1       3.772   4.342  19.666  0.00  0.00    +0.000 C 
ATOM      7  C   UNL     1       2.515   4.027  20.441  0.00  0.00    +0.000 A 
ATOM      8  C   UNL     1       2.303   3.533  21.741  0.00  0.00    +0.000 A 
ATOM      9  N   UNL     1       1.132   2.894  21.845  0.00  0.00    +0.000 NA
ATOM     10  N   UNL     1       0.599   2.952  20.603  0.00  0.00    +0.000 N 
ATOM     11  C   UNL     1       1.400   3.614  19.720  0.00  0.00    +0.000 A 
ATOM     12  C   UNL     1       1.346   3.619  18.204  0.00  0.00    +0.000 C 
ATOM     13  H   UNL     1      -0.248   2.418  20.429  0.00  0.00    +0.000 HD
ENDROOT
BRANCH   1  15
ATOM     14  O   UNL     1       5.731   6.202  18.502  0.00  0.00    +0.000 OA
ATOM     15  S   UNL     1       4.663   6.021  17.539  0.00  0.00    +0.000 S 
ATOM     16  O   UNL     1       3.976   7.174  16.980  0.00  0.00    +0.000 OA
BRANCH  15  17
ATOM     17  C   UNL     1       5.447   5.202  16.100  0.00  0.00    +0.000 A 
ATOM     18  C   UNL     1       6.840   5.105  15.953  0.00  0.00    +0.000 A 
ATOM     19  C   UNL     1       7.391   4.694  14.720  0.00  0.00    +0.000 A 
ATOM     20  C   UNL     1       6.556   4.331  13.662  0.00  0.00    +0.000 A 
ATOM     21 CL   UNL     1       7.218   3.997  12.107  0.00  0.00    +0.000 Cl
ATOM     22  C   UNL     1       5.180   4.262  13.859  0.00  0.00    +0.000 A 
ATOM     23  C   UNL     1       4.631   4.645  15.094  0.00  0.00    +0.000 A 
ENDBRANCH  15  17
ENDBRANCH   1  15
TORSDOF 2
ENDMDL
MODEL 8
REMARK VINA RESULT:      -6.2      3.598      5.653
REMARK  Name = 
REMARK  2 active torsions:
REMARK  status: ('A' for Active; 'I' for Inactive)
REMARK    1  A    between atoms: S_2  and  C_4
REMARK    2  A    between atoms: S_2  and  N_11
REMARK                            x       y       z     vdW  Elec       q    Type
REMARK                         _______ _______ _______ _____ _____    ______ ____
ROOT
ATOM      1  N   UNL     1       4.786   3.982  17.469  0.00  0.00    +0.000 NA
ATOM      2  C   UNL     1       5.120   3.805  18.914  0.00  0.00    +0.000 C 
ATOM      3  C   UNL     1       4.813   5.205  19.585  0.00  0.00    +0.000 C 
ATOM      4  O   UNL     1       4.078   6.244  18.797  0.00  0.00    +0.000 OA
ATOM      5  C   UNL     1       3.135   5.830  17.727  0.00  0.00    +0.000 C 
ATOM      6  C   UNL     1       3.296   4.359  17.462  0.00  0.00    +0.000 C 
ATOM      7  C   UNL     1       2.428   3.205  17.903  0.00  0.00    +0.000 A 
ATOM      8  C   UNL     1       1.034   3.019  17.914  0.00  0.00    +0.000 A 
ATOM      9  N   UNL     1       0.658   2.141  18.852  0.00  0.00    +0.000 NA
ATOM     10  N   UNL     1       1.808   1.780  19.465  0.00  0.00    +0.000 N 
ATOM     11  C   UNL     1       2.900   2.402  18.936  0.00  0.00    +0.000 A 
ATOM     12  C   UNL     1       4.294   2.539  19.520  0.00  0.00    +0.000 C 
ATOM     13  H   UNL     1       1.736   1.201  20.297  0.00  0.00    +0.000 HD
ENDROOT
BRANCH   1  15
ATOM     14  O   UNL     1       5.174   5.440  15.411  0.00  0.00    +0.000 OA
ATOM     15  S   UNL     1       5.934   4.865  16.501  0.00  0.00    +0.000 S 
ATOM     16  O   UNL     1       7.040   3.961  16.229  0.00  0.00    +0.000 OA
BRANCH  15  17
ATOM     17  C   UNL     1       6.699   6.292  17.360  0.00  0.00    +0.000 A 
ATOM     18  C   UNL     1       6.395   7.622  17.030  0.00  0.00    +0.000 A 
ATOM     19  C   UNL     1       7.187   8.673  17.540  0.00  0.00    +0.000 A 
ATOM     20  C   UNL     1       8.240   8.400  18.414  0.00  0.00    +0.000 A 
ATOM     21 CL   UNL     1       9.315   9.655  18.901  0.00  0.00    +0.000 Cl
ATOM     22  C   UNL     1       8.436   7.101  18.877  0.00  0.00    +0.000 A 
ATOM     23  C   UNL     1       7.630   6.058  18.392  0.00  0.00    +0.000 A 
ENDBRANCH  15  17
ENDBRANCH   1  15
TORSDOF 2
ENDMDL
MODEL 9
REMARK VINA RESULT:      -6.2      4.001      6.725
REMARK  Name = 
REMARK  2 active torsions:
REMARK  status: ('A' for Active; 'I' for Inactive)
REMARK    1  A    between atoms: S_2  and  C_4
REMARK    2  A    between atoms: S_2  and  N_11
REMARK                            x       y       z     vdW  Elec       q    Type
REMARK                         _______ _______ _______ _____ _____    ______ ____
ROOT
ATOM      1  N   UNL     1       4.351   4.285  17.473  0.00  0.00    +0.000 NA
ATOM      2  C   UNL     1       4.862   3.539  18.662  0.00  0.00    +0.000 C 
ATOM      3  C   UNL     1       4.795   4.573  19.859  0.00  0.00    +0.000 C 
ATOM      4  O   UNL     1       4.068   5.867  19.663  0.00  0.00    +0.000 OA
ATOM      5  C   UNL     1       2.949   5.947  18.690  0.00  0.00    +0.000 C 
ATOM      6  C   UNL     1       2.921   4.694  17.859  0.00  0.00    +0.000 C 
ATOM      7  C   UNL     1       2.009   3.495  17.963  0.00  0.00    +0.000 A 
ATOM      8  C   UNL     1       0.618   3.376  18.135  0.00  0.00    +0.000 A 
ATOM      9  N   UNL     1       0.286   2.215  18.714  0.00  0.00    +0.000 NA
ATOM     10  N   UNL     1       1.467   1.596  18.941  0.00  0.00    +0.000 N 
ATOM     11  C   UNL     1       2.534   2.332  18.516  0.00  0.00    +0.000 A 
ATOM     12  C   UNL     1       4.002   2.171  18.866  0.00  0.00    +0.000 C 
ATOM     13  H   UNL     1       1.452   0.740  19.487  0.00  0.00    +0.000 HD
ENDROOT
BRANCH   1  15
ATOM     14  O   UNL     1       6.558   5.554  17.652  0.00  0.00    +0.000 OA
ATOM     15  S   UNL     1       5.439   5.431  16.740  0.00  0.00    +0.000 S 
ATOM     16  O   UNL     1       4.647   6.598  16.387  0.00  0.00    +0.000 OA
BRANCH  15  17
ATOM     17  C   UNL     1       6.169   4.866  15.156  0.00  0.00    +0.000 A 
ATOM     18  C   UNL     1       7.368   5.392  14.648  0.00  0.00    +0.000 A 
ATOM     19  C   UNL     1       7.754   5.110  13.321  0.00  0.00    +0.000 A 
ATOM     20  C   UNL     1       6.976   4.268  12.526  0.00  0.00    +0.000 A 
ATOM     21 CL   UNL     1       7.346   4.060  10.856  0.00  0.00    +0.000 Cl
ATOM     22  C   UNL     1       5.881   3.610  13.079  0.00  0.00    +0.000 A 
ATOM     23  C   UNL     1       5.511   3.868  14.410  0.00  0.00    +0.000 A 
ENDBRANCH  15  17
ENDBRANCH   1  15
TORSDOF 2
ENDMDL
