MODEL 1
REMARK VINA RESULT:      -6.6      0.000      0.000
REMARK  Name = 
REMARK  9 active torsions:
REMARK  status: ('A' for Active; 'I' for Inactive)
REMARK    1  A    between atoms: C_1  and  C_2
REMARK    2  A    between atoms: C_13  and  C_14
REMARK    3  A    between atoms: C_18  and  C_19
REMARK    4  A    between atoms: C_20  and  C_21
REMARK    5  A    between atoms: C_21  and  O_23
REMARK    6  A    between atoms: N_27  and  C_28
REMARK    7  A    between atoms: C_28  and  C_29
REMARK    8  A    between atoms: C_29  and  C_30
REMARK    9  A    between atoms: C_29  and  C_31
REMARK                            x       y       z     vdW  Elec       q    Type
REMARK                         _______ _______ _______ _____ _____    ______ ____
ROOT
ATOM      1  C   UNL     1      -0.768  16.497  23.156  0.00  0.00    +0.000 C 
ATOM      2  C   UNL     1      -1.476  15.924  21.908  0.00  0.00    +0.000 C 
ATOM      3  C   UNL     1      -3.025  16.000  22.113  0.00  0.00    +0.000 C 
ATOM      4  C   UNL     1      -3.558  14.761  22.741  0.00  0.00    +0.000 A 
ATOM      5  C   UNL     1      -2.754  13.651  22.903  0.00  0.00    +0.000 A 
ATOM      6  N   UNL     1      -3.527  12.667  23.468  0.00  0.00    +0.000 N 
ATOM      7  C   UNL     1      -4.823  13.104  23.617  0.00  0.00    +0.000 A 
ATOM      8  C   UNL     1      -5.956  12.428  24.086  0.00  0.00    +0.000 A 
ATOM      9  C   UNL     1      -7.160  13.132  24.116  0.00  0.00    +0.000 A 
ATOM     10  C   UNL     1      -7.230  14.461  23.705  0.00  0.00    +0.000 A 
ATOM     11  C   UNL     1      -6.089  15.124  23.235  0.00  0.00    +0.000 A 
ATOM     12  C   UNL     1      -4.861  14.435  23.183  0.00  0.00    +0.000 A 
ATOM     13  C   UNL     1      -1.304  13.518  22.517  0.00  0.00    +0.000 C 
ATOM     14  N   UNL     1      -0.983  14.558  21.469  0.00  0.00    +0.000 NA
ATOM     15  H   UNL     1      -3.214  11.724  23.678  0.00  0.00    +0.000 HD
ENDROOT
BRANCH  13  16
ATOM     16  C   UNL     1      -0.996  12.079  22.128  0.00  0.00    +0.000 A 
ATOM     17  C   UNL     1      -0.932  11.664  20.791  0.00  0.00    +0.000 A 
ATOM     18  C   UNL     1      -0.440  10.394  20.469  0.00  0.00    +0.000 A 
ATOM     19  F   UNL     1      -0.317  10.076  19.170  0.00  0.00    +0.000 F 
ATOM     20  C   UNL     1      -0.019   9.490  21.453  0.00  0.00    +0.000 A 
ATOM     21  C   UNL     1      -0.187   9.880  22.788  0.00  0.00    +0.000 A 
ATOM     22  F   UNL     1       0.199   9.073  23.790  0.00  0.00    +0.000 F 
ATOM     23  C   UNL     1      -0.689  11.140  23.129  0.00  0.00    +0.000 A 
BRANCH  20  24
ATOM     24  C   UNL     1       0.535   8.185  21.052  0.00  0.00    +0.000 C 
ATOM     25  C   UNL     1       1.634   8.010  20.299  0.00  0.00    +0.000 C 
BRANCH  25  26
ATOM     26  C   UNL     1       2.093   6.641  20.003  0.00  0.00    +0.000 C 
ATOM     27  O   UNL     1       2.456   6.244  18.909  0.00  0.00    +0.000 OA
BRANCH  26  28
ATOM     28  O   UNL     1       2.067   5.847  21.098  0.00  0.00    +0.000 OA
ATOM     29  H   UNL     1       1.387   5.149  21.088  0.00  0.00    +0.000 HD
ENDBRANCH  26  28
ENDBRANCH  25  26
ENDBRANCH  20  24
ENDBRANCH  13  16
BRANCH  14  30
ATOM     30  C   UNL     1       0.459  14.645  21.063  0.00  0.00    +0.000 C 
BRANCH  30  31
ATOM     31  C   UNL     1       0.862  14.732  19.555  0.00  0.00    +0.000 C 
ATOM     32  C   UNL     1       2.037  13.830  19.196  0.00  0.00    +0.000 C 
ATOM     33  C   UNL     1      -0.310  14.484  18.611  0.00  0.00    +0.000 C 
ATOM     34  F   UNL     1       1.197  16.012  19.248  0.00  0.00    +0.000 F 
ENDBRANCH  30  31
ENDBRANCH  14  30
TORSDOF 6
ENDMDL
MODEL 2
REMARK VINA RESULT:      -6.6      5.216     10.452
REMARK  Name = 
REMARK  9 active torsions:
REMARK  status: ('A' for Active; 'I' for Inactive)
REMARK    1  A    between atoms: C_1  and  C_2
REMARK    2  A    between atoms: C_13  and  C_14
REMARK    3  A    between atoms: C_18  and  C_19
REMARK    4  A    between atoms: C_20  and  C_21
REMARK    5  A    between atoms: C_21  and  O_23
REMARK    6  A    between atoms: N_27  and  C_28
REMARK    7  A    between atoms: C_28  and  C_29
REMARK    8  A    between atoms: C_29  and  C_30
REMARK    9  A    between atoms: C_29  and  C_31
REMARK                            x       y       z     vdW  Elec       q    Type
REMARK                         _______ _______ _______ _____ _____    ______ ____
ROOT
ATOM      1  C   UNL     1       5.719   5.349  15.421  0.00  0.00    +0.000 C 
ATOM      2  C   UNL     1       5.822   5.313  16.962  0.00  0.00    +0.000 C 
ATOM      3  C   UNL     1       5.284   3.940  17.483  0.00  0.00    +0.000 C 
ATOM      4  C   UNL     1       3.828   3.996  17.778  0.00  0.00    +0.000 A 
ATOM      5  C   UNL     1       3.151   5.197  17.763  0.00  0.00    +0.000 A 
ATOM      6  N   UNL     1       1.847   4.937  18.107  0.00  0.00    +0.000 N 
ATOM      7  C   UNL     1       1.689   3.601  18.399  0.00  0.00    +0.000 A 
ATOM      8  C   UNL     1       0.563   2.902  18.850  0.00  0.00    +0.000 A 
ATOM      9  C   UNL     1       0.701   1.533  19.077  0.00  0.00    +0.000 A 
ATOM     10  C   UNL     1       1.913   0.883  18.851  0.00  0.00    +0.000 A 
ATOM     11  C   UNL     1       3.033   1.595  18.404  0.00  0.00    +0.000 A 
ATOM     12  C   UNL     1       2.925   2.981  18.177  0.00  0.00    +0.000 A 
ATOM     13  C   UNL     1       3.723   6.556  17.452  0.00  0.00    +0.000 C 
ATOM     14  N   UNL     1       5.218   6.514  17.666  0.00  0.00    +0.000 NA
ATOM     15  H   UNL     1       1.117   5.633  18.208  0.00  0.00    +0.000 HD
ENDROOT
BRANCH  13  16
ATOM     16  C   UNL     1       2.979   7.629  18.234  0.00  0.00    +0.000 A 
ATOM     17  C   UNL     1       2.582   8.840  17.649  0.00  0.00    +0.000 A 
ATOM     18  C   UNL     1       1.720   9.704  18.333  0.00  0.00    +0.000 A 
ATOM     19  F   UNL     1       1.300  10.809  17.695  0.00  0.00    +0.000 F 
ATOM     20  C   UNL     1       1.244   9.414  19.618  0.00  0.00    +0.000 A 
ATOM     21  C   UNL     1       1.733   8.253  20.230  0.00  0.00    +0.000 A 
ATOM     22  F   UNL     1       1.319   7.901  21.458  0.00  0.00    +0.000 F 
ATOM     23  C   UNL     1       2.604   7.383  19.567  0.00  0.00    +0.000 A 
BRANCH  20  24
ATOM     24  C   UNL     1       0.301  10.340  20.269  0.00  0.00    +0.000 C 
ATOM     25  C   UNL     1       0.641  11.488  20.880  0.00  0.00    +0.000 C 
BRANCH  25  26
ATOM     26  C   UNL     1      -0.417  12.334  21.461  0.00  0.00    +0.000 C 
ATOM     27  O   UNL     1      -0.365  12.869  22.555  0.00  0.00    +0.000 OA
BRANCH  26  28
ATOM     28  O   UNL     1      -1.481  12.459  20.635  0.00  0.00    +0.000 OA
ATOM     29  H   UNL     1      -1.407  11.982  19.788  0.00  0.00    +0.000 HD
ENDBRANCH  26  28
ENDBRANCH  25  26
ENDBRANCH  20  24
ENDBRANCH  13  16
BRANCH  14  30
ATOM     30  C   UNL     1       5.963   7.758  17.279  0.00  0.00    +0.000 C 
BRANCH  30  31
ATOM     31  C   UNL     1       7.500   7.882  17.536  0.00  0.00    +0.000 C 
ATOM     32  C   UNL     1       7.938   9.303  17.871  0.00  0.00    +0.000 C 
ATOM     33  C   UNL     1       8.009   6.904  18.590  0.00  0.00    +0.000 C 
ATOM     34  F   UNL     1       8.179   7.476  16.432  0.00  0.00    +0.000 F 
ENDBRANCH  30  31
ENDBRANCH  14  30
TORSDOF 6
ENDMDL
MODEL 3
REMARK VINA RESULT:      -6.6      3.992      4.852
REMARK  Name = 
REMARK  9 active torsions:
REMARK  status: ('A' for Active; 'I' for Inactive)
REMARK    1  A    between atoms: C_1  and  C_2
REMARK    2  A    between atoms: C_13  and  C_14
REMARK    3  A    between atoms: C_18  and  C_19
REMARK    4  A    between atoms: C_20  and  C_21
REMARK    5  A    between atoms: C_21  and  O_23
REMARK    6  A    between atoms: N_27  and  C_28
REMARK    7  A    between atoms: C_28  and  C_29
REMARK    8  A    between atoms: C_29  and  C_30
REMARK    9  A    between atoms: C_29  and  C_31
REMARK                            x       y       z     vdW  Elec       q    Type
REMARK                         _______ _______ _______ _____ _____    ______ ____
ROOT
ATOM      1  C   UNL     1      -0.736  12.665  23.049  0.00  0.00    +0.000 C 
ATOM      2  C   UNL     1      -1.270  13.696  22.030  0.00  0.00    +0.000 C 
ATOM      3  C   UNL     1      -2.531  14.404  22.627  0.00  0.00    +0.000 C 
ATOM      4  C   UNL     1      -3.785  13.691  22.265  0.00  0.00    +0.000 A 
ATOM      5  C   UNL     1      -3.771  12.661  21.348  0.00  0.00    +0.000 A 
ATOM      6  N   UNL     1      -5.066  12.232  21.195  0.00  0.00    +0.000 N 
ATOM      7  C   UNL     1      -5.917  13.005  21.952  0.00  0.00    +0.000 A 
ATOM      8  C   UNL     1      -7.312  12.972  22.059  0.00  0.00    +0.000 A 
ATOM      9  C   UNL     1      -7.916  13.899  22.909  0.00  0.00    +0.000 A 
ATOM     10  C   UNL     1      -7.156  14.815  23.634  0.00  0.00    +0.000 A 
ATOM     11  C   UNL     1      -5.762  14.838  23.515  0.00  0.00    +0.000 A 
ATOM     12  C   UNL     1      -5.125  13.922  22.655  0.00  0.00    +0.000 A 
ATOM     13  C   UNL     1      -2.571  12.111  20.621  0.00  0.00    +0.000 C 
ATOM     14  N   UNL     1      -1.478  13.155  20.629  0.00  0.00    +0.000 NA
ATOM     15  H   UNL     1      -5.371  11.501  20.560  0.00  0.00    +0.000 HD
ENDROOT
BRANCH  13  16
ATOM     16  C   UNL     1      -2.980  11.600  19.247  0.00  0.00    +0.000 A 
ATOM     17  C   UNL     1      -4.086  12.116  18.557  0.00  0.00    +0.000 A 
ATOM     18  C   UNL     1      -4.303  11.775  17.218  0.00  0.00    +0.000 A 
ATOM     19  F   UNL     1      -5.325  12.364  16.575  0.00  0.00    +0.000 F 
ATOM     20  C   UNL     1      -3.454  10.900  16.527  0.00  0.00    +0.000 A 
ATOM     21  C   UNL     1      -2.416  10.312  17.260  0.00  0.00    +0.000 A 
ATOM     22  F   UNL     1      -1.554   9.468  16.669  0.00  0.00    +0.000 F 
ATOM     23  C   UNL     1      -2.190  10.631  18.603  0.00  0.00    +0.000 A 
BRANCH  20  24
ATOM     24  C   UNL     1      -3.706  10.615  15.104  0.00  0.00    +0.000 C 
ATOM     25  C   UNL     1      -2.864   9.962  14.285  0.00  0.00    +0.000 C 
BRANCH  25  26
ATOM     26  C   UNL     1      -3.264   9.719  12.887  0.00  0.00    +0.000 C 
ATOM     27  O   UNL     1      -4.411   9.744  12.473  0.00  0.00    +0.000 OA
BRANCH  26  28
ATOM     28  O   UNL     1      -2.204   9.455  12.091  0.00  0.00    +0.000 OA
ATOM     29  H   UNL     1      -2.076  10.076  11.351  0.00  0.00    +0.000 HD
ENDBRANCH  26  28
ENDBRANCH  25  26
ENDBRANCH  20  24
ENDBRANCH  13  16
BRANCH  14  30
ATOM     30  C   UNL     1      -0.163  12.719  20.051  0.00  0.00    +0.000 C 
BRANCH  30  31
ATOM     31  C   UNL     1       0.727  13.721  19.245  0.00  0.00    +0.000 C 
ATOM     32  C   UNL     1      -0.059  14.899  18.681  0.00  0.00    +0.000 C 
ATOM     33  C   UNL     1       1.934  14.214  20.036  0.00  0.00    +0.000 C 
ATOM     34  F   UNL     1       1.321  13.070  18.212  0.00  0.00    +0.000 F 
ENDBRANCH  30  31
ENDBRANCH  14  30
TORSDOF 6
ENDMDL
MODEL 4
REMARK VINA RESULT:      -6.5      1.447      1.633
REMARK  Name = 
REMARK  9 active torsions:
REMARK  status: ('A' for Active; 'I' for Inactive)
REMARK    1  A    between atoms: C_1  and  C_2
REMARK    2  A    between atoms: C_13  and  C_14
REMARK    3  A    between atoms: C_18  and  C_19
REMARK    4  A    between atoms: C_20  and  C_21
REMARK    5  A    between atoms: C_21  and  O_23
REMARK    6  A    between atoms: N_27  and  C_28
REMARK    7  A    between atoms: C_28  and  C_29
REMARK    8  A    between atoms: C_29  and  C_30
REMARK    9  A    between atoms: C_29  and  C_31
REMARK                            x       y       z     vdW  Elec       q    Type
REMARK                         _______ _______ _______ _____ _____    ______ ____
ROOT
ATOM      1  C   UNL     1      -0.895  16.343  22.851  0.00  0.00    +0.000 C 
ATOM      2  C   UNL     1      -1.074  15.802  21.415  0.00  0.00    +0.000 C 
ATOM      3  C   UNL     1      -2.554  16.027  20.961  0.00  0.00    +0.000 C 
ATOM      4  C   UNL     1      -3.416  14.861  21.297  0.00  0.00    +0.000 A 
ATOM      5  C   UNL     1      -2.863  13.688  21.764  0.00  0.00    +0.000 A 
ATOM      6  N   UNL     1      -3.891  12.796  21.947  0.00  0.00    +0.000 N 
ATOM      7  C   UNL     1      -5.084  13.356  21.550  0.00  0.00    +0.000 A 
ATOM      8  C   UNL     1      -6.369  12.802  21.499  0.00  0.00    +0.000 A 
ATOM      9  C   UNL     1      -7.403  13.615  21.035  0.00  0.00    +0.000 A 
ATOM     10  C   UNL     1      -7.167  14.932  20.647  0.00  0.00    +0.000 A 
ATOM     11  C   UNL     1      -5.877  15.472  20.700  0.00  0.00    +0.000 A 
ATOM     12  C   UNL     1      -4.810  14.671  21.154  0.00  0.00    +0.000 A 
ATOM     13  C   UNL     1      -1.403  13.410  22.013  0.00  0.00    +0.000 C 
ATOM     14  N   UNL     1      -0.578  14.384  21.205  0.00  0.00    +0.000 NA
ATOM     15  H   UNL     1      -3.786  11.836  22.257  0.00  0.00    +0.000 HD
ENDROOT
BRANCH  13  16
ATOM     16  C   UNL     1      -1.102  11.937  21.772  0.00  0.00    +0.000 A 
ATOM     17  C   UNL     1      -0.990  11.400  20.481  0.00  0.00    +0.000 A 
ATOM     18  C   UNL     1      -0.506  10.100  20.298  0.00  0.00    +0.000 A 
ATOM     19  F   UNL     1      -0.334   9.663  19.040  0.00  0.00    +0.000 F 
ATOM     20  C   UNL     1      -0.141   9.285  21.378  0.00  0.00    +0.000 A 
ATOM     21  C   UNL     1      -0.357   9.798  22.663  0.00  0.00    +0.000 A 
ATOM     22  F   UNL     1      -0.027   9.082  23.750  0.00  0.00    +0.000 F 
ATOM     23  C   UNL     1      -0.852  11.091  22.866  0.00  0.00    +0.000 A 
BRANCH  20  24
ATOM     24  C   UNL     1       0.408   7.942  21.122  0.00  0.00    +0.000 C 
ATOM     25  C   UNL     1       1.663   7.684  20.713  0.00  0.00    +0.000 C 
BRANCH  25  26
ATOM     26  C   UNL     1       2.085   6.284  20.529  0.00  0.00    +0.000 C 
ATOM     27  O   UNL     1       1.437   5.307  20.864  0.00  0.00    +0.000 OA
BRANCH  26  28
ATOM     28  O   UNL     1       3.296   6.191  19.935  0.00  0.00    +0.000 OA
ATOM     29  H   UNL     1       3.882   5.498  20.293  0.00  0.00    +0.000 HD
ENDBRANCH  26  28
ENDBRANCH  25  26
ENDBRANCH  20  24
ENDBRANCH  13  16
BRANCH  14  30
ATOM     30  C   UNL     1       0.904  14.324  21.435  0.00  0.00    +0.000 C 
BRANCH  30  31
ATOM     31  C   UNL     1       1.903  14.413  20.236  0.00  0.00    +0.000 C 
ATOM     32  C   UNL     1       1.303  13.933  18.920  0.00  0.00    +0.000 C 
ATOM     33  C   UNL     1       2.511  15.802  20.070  0.00  0.00    +0.000 C 
ATOM     34  F   UNL     1       3.002  13.661  20.504  0.00  0.00    +0.000 F 
ENDBRANCH  30  31
ENDBRANCH  14  30
TORSDOF 6
ENDMDL
MODEL 5
REMARK VINA RESULT:      -6.5      4.089      6.062
REMARK  Name = 
REMARK  9 active torsions:
REMARK  status: ('A' for Active; 'I' for Inactive)
REMARK    1  A    between atoms: C_1  and  C_2
REMARK    2  A    between atoms: C_13  and  C_14
REMARK    3  A    between atoms: C_18  and  C_19
REMARK    4  A    between atoms: C_20  and  C_21
REMARK    5  A    between atoms: C_21  and  O_23
REMARK    6  A    between atoms: N_27  and  C_28
REMARK    7  A    between atoms: C_28  and  C_29
REMARK    8  A    between atoms: C_29  and  C_30
REMARK    9  A    between atoms: C_29  and  C_31
REMARK                            x       y       z     vdW  Elec       q    Type
REMARK                         _______ _______ _______ _____ _____    ______ ____
ROOT
ATOM      1  C   UNL     1      -2.861  10.086  15.817  0.00  0.00    +0.000 C 
ATOM      2  C   UNL     1      -2.718   9.652  17.293  0.00  0.00    +0.000 C 
ATOM      3  C   UNL     1      -4.130   9.638  17.965  0.00  0.00    +0.000 C 
ATOM      4  C   UNL     1      -4.455  10.949  18.588  0.00  0.00    +0.000 A 
ATOM      5  C   UNL     1      -3.498  11.936  18.694  0.00  0.00    +0.000 A 
ATOM      6  N   UNL     1      -4.078  13.001  19.338  0.00  0.00    +0.000 N 
ATOM      7  C   UNL     1      -5.370  12.694  19.698  0.00  0.00    +0.000 A 
ATOM      8  C   UNL     1      -6.309  13.442  20.419  0.00  0.00    +0.000 A 
ATOM      9  C   UNL     1      -7.557  12.862  20.649  0.00  0.00    +0.000 A 
ATOM     10  C   UNL     1      -7.860  11.590  20.168  0.00  0.00    +0.000 A 
ATOM     11  C   UNL     1      -6.911  10.852  19.453  0.00  0.00    +0.000 A 
ATOM     12  C   UNL     1      -5.638  11.407  19.215  0.00  0.00    +0.000 A 
ATOM     13  C   UNL     1      -2.070  11.868  18.218  0.00  0.00    +0.000 C 
ATOM     14  N   UNL     1      -1.672  10.417  18.081  0.00  0.00    +0.000 NA
ATOM     15  H   UNL     1      -3.607  13.865  19.585  0.00  0.00    +0.000 HD
ENDROOT
BRANCH  13  16
ATOM     16  C   UNL     1      -1.177  12.711  19.119  0.00  0.00    +0.000 A 
ATOM     17  C   UNL     1      -1.141  12.536  20.509  0.00  0.00    +0.000 A 
ATOM     18  C   UNL     1      -0.161  13.175  21.276  0.00  0.00    +0.000 A 
ATOM     19  F   UNL     1      -0.115  12.907  22.590  0.00  0.00    +0.000 F 
ATOM     20  C   UNL     1       0.796  14.022  20.700  0.00  0.00    +0.000 A 
ATOM     21  C   UNL     1       0.682  14.268  19.326  0.00  0.00    +0.000 A 
ATOM     22  F   UNL     1       1.564  15.062  18.698  0.00  0.00    +0.000 F 
ATOM     23  C   UNL     1      -0.299  13.648  18.545  0.00  0.00    +0.000 A 
BRANCH  20  24
ATOM     24  C   UNL     1       1.833  14.630  21.551  0.00  0.00    +0.000 C 
ATOM     25  C   UNL     1       3.135  14.294  21.543  0.00  0.00    +0.000 C 
BRANCH  25  26
ATOM     26  C   UNL     1       4.068  15.014  22.428  0.00  0.00    +0.000 C 
ATOM     27  O   UNL     1       4.432  14.627  23.526  0.00  0.00    +0.000 OA
BRANCH  26  28
ATOM     28  O   UNL     1       4.490  16.178  21.886  0.00  0.00    +0.000 OA
ATOM     29  H   UNL     1       4.377  16.252  20.921  0.00  0.00    +0.000 HD
ENDBRANCH  26  28
ENDBRANCH  25  26
ENDBRANCH  20  24
ENDBRANCH  13  16
BRANCH  14  30
ATOM     30  C   UNL     1      -0.313  10.171  17.495  0.00  0.00    +0.000 C 
BRANCH  30  31
ATOM     31  C   UNL     1       0.898   9.800  18.412  0.00  0.00    +0.000 C 
ATOM     32  C   UNL     1       2.001  10.853  18.401  0.00  0.00    +0.000 C 
ATOM     33  C   UNL     1       0.484   9.475  19.843  0.00  0.00    +0.000 C 
ATOM     34  F   UNL     1       1.432   8.620  18.004  0.00  0.00    +0.000 F 
ENDBRANCH  30  31
ENDBRANCH  14  30
TORSDOF 6
ENDMDL
MODEL 6
REMARK VINA RESULT:      -6.5      4.159      6.243
REMARK  Name = 
REMARK  9 active torsions:
REMARK  status: ('A' for Active; 'I' for Inactive)
REMARK    1  A    between atoms: C_1  and  C_2
REMARK    2  A    between atoms: C_13  and  C_14
REMARK    3  A    between atoms: C_18  and  C_19
REMARK    4  A    between atoms: C_20  and  C_21
REMARK    5  A    between atoms: C_21  and  O_23
REMARK    6  A    between atoms: N_27  and  C_28
REMARK    7  A    between atoms: C_28  and  C_29
REMARK    8  A    between atoms: C_29  and  C_30
REMARK    9  A    between atoms: C_29  and  C_31
REMARK                            x       y       z     vdW  Elec       q    Type
REMARK                         _______ _______ _______ _____ _____    ______ ____
ROOT
ATOM      1  C   UNL     1      -4.482  12.394  24.716  0.00  0.00    +0.000 C 
ATOM      2  C   UNL     1      -4.853  13.615  23.845  0.00  0.00    +0.000 C 
ATOM      3  C   UNL     1      -5.799  13.154  22.688  0.00  0.00    +0.000 C 
ATOM      4  C   UNL     1      -5.033  12.768  21.472  0.00  0.00    +0.000 A 
ATOM      5  C   UNL     1      -3.678  13.008  21.387  0.00  0.00    +0.000 A 
ATOM      6  N   UNL     1      -3.264  12.583  20.149  0.00  0.00    +0.000 N 
ATOM      7  C   UNL     1      -4.338  12.129  19.418  0.00  0.00    +0.000 A 
ATOM      8  C   UNL     1      -4.400  11.663  18.098  0.00  0.00    +0.000 A 
ATOM      9  C   UNL     1      -5.648  11.274  17.610  0.00  0.00    +0.000 A 
ATOM     10  C   UNL     1      -6.787  11.335  18.410  0.00  0.00    +0.000 A 
ATOM     11  C   UNL     1      -6.711  11.806  19.726  0.00  0.00    +0.000 A 
ATOM     12  C   UNL     1      -5.466  12.217  20.243  0.00  0.00    +0.000 A 
ATOM     13  C   UNL     1      -2.802  13.640  22.438  0.00  0.00    +0.000 C 
ATOM     14  N   UNL     1      -3.671  14.443  23.377  0.00  0.00    +0.000 NA
ATOM     15  H   UNL     1      -2.319  12.658  19.788  0.00  0.00    +0.000 HD
ENDROOT
BRANCH  13  16
ATOM     16  C   UNL     1      -1.665  14.408  21.778  0.00  0.00    +0.000 A 
ATOM     17  C   UNL     1      -0.319  14.154  22.078  0.00  0.00    +0.000 A 
ATOM     18  C   UNL     1       0.696  14.725  21.303  0.00  0.00    +0.000 A 
ATOM     19  F   UNL     1       1.965  14.381  21.574  0.00  0.00    +0.000 F 
ATOM     20  C   UNL     1       0.417  15.580  20.228  0.00  0.00    +0.000 A 
ATOM     21  C   UNL     1      -0.926  15.907  20.008  0.00  0.00    +0.000 A 
ATOM     22  F   UNL     1      -1.277  16.714  18.993  0.00  0.00    +0.000 F 
ATOM     23  C   UNL     1      -1.954  15.356  20.780  0.00  0.00    +0.000 A 
BRANCH  20  24
ATOM     24  C   UNL     1       1.526  16.114  19.418  0.00  0.00    +0.000 C 
ATOM     25  C   UNL     1       2.276  15.396  18.564  0.00  0.00    +0.000 C 
BRANCH  25  26
ATOM     26  C   UNL     1       3.334  16.072  17.792  0.00  0.00    +0.000 C 
ATOM     27  O   UNL     1       3.637  17.249  17.901  0.00  0.00    +0.000 OA
BRANCH  26  28
ATOM     28  O   UNL     1       3.949  15.235  16.927  0.00  0.00    +0.000 OA
ATOM     29  H   UNL     1       4.908  15.373  16.827  0.00  0.00    +0.000 HD
ENDBRANCH  26  28
ENDBRANCH  25  26
ENDBRANCH  20  24
ENDBRANCH  13  16
BRANCH  14  30
ATOM     30  C   UNL     1      -2.967  15.039  24.560  0.00  0.00    +0.000 C 
BRANCH  30  31
ATOM     31  C   UNL     1      -3.073  16.569  24.866  0.00  0.00    +0.000 C 
ATOM     32  C   UNL     1      -1.941  17.082  25.749  0.00  0.00    +0.000 C 
ATOM     33  C   UNL     1      -3.195  17.421  23.607  0.00  0.00    +0.000 C 
ATOM     34  F   UNL     1      -4.251  16.828  25.490  0.00  0.00    +0.000 F 
ENDBRANCH  30  31
ENDBRANCH  14  30
TORSDOF 6
ENDMDL
MODEL 7
REMARK VINA RESULT:      -6.4      1.553      1.691
REMARK  Name = 
REMARK  9 active torsions:
REMARK  status: ('A' for Active; 'I' for Inactive)
REMARK    1  A    between atoms: C_1  and  C_2
REMARK    2  A    between atoms: C_13  and  C_14
REMARK    3  A    between atoms: C_18  and  C_19
REMARK    4  A    between atoms: C_20  and  C_21
REMARK    5  A    between atoms: C_21  and  O_23
REMARK    6  A    between atoms: N_27  and  C_28
REMARK    7  A    between atoms: C_28  and  C_29
REMARK    8  A    between atoms: C_29  and  C_30
REMARK    9  A    between atoms: C_29  and  C_31
REMARK                            x       y       z     vdW  Elec       q    Type
REMARK                         _______ _______ _______ _____ _____    ______ ____
ROOT
ATOM      1  C   UNL     1      -1.718  16.311  22.673  0.00  0.00    +0.000 C 
ATOM      2  C   UNL     1      -1.785  15.710  21.251  0.00  0.00    +0.000 C 
ATOM      3  C   UNL     1      -3.270  15.711  20.760  0.00  0.00    +0.000 C 
ATOM      4  C   UNL     1      -3.966  14.444  21.114  0.00  0.00    +0.000 A 
ATOM      5  C   UNL     1      -3.264  13.374  21.628  0.00  0.00    +0.000 A 
ATOM      6  N   UNL     1      -4.160  12.351  21.817  0.00  0.00    +0.000 N 
ATOM      7  C   UNL     1      -5.410  12.725  21.379  0.00  0.00    +0.000 A 
ATOM      8  C   UNL     1      -6.602  11.993  21.319  0.00  0.00    +0.000 A 
ATOM      9  C   UNL     1      -7.730  12.638  20.810  0.00  0.00    +0.000 A 
ATOM     10  C   UNL     1      -7.673  13.964  20.387  0.00  0.00    +0.000 A 
ATOM     11  C   UNL     1      -6.474  14.683  20.450  0.00  0.00    +0.000 A 
ATOM     12  C   UNL     1      -5.316  14.054  20.949  0.00  0.00    +0.000 A 
ATOM     13  C   UNL     1      -1.786  13.313  21.915  0.00  0.00    +0.000 C 
ATOM     14  N   UNL     1      -1.088  14.372  21.094  0.00  0.00    +0.000 NA
ATOM     15  H   UNL     1      -3.929  11.424  22.158  0.00  0.00    +0.000 HD
ENDROOT
BRANCH  13  16
ATOM     16  C   UNL     1      -1.275  11.892  21.724  0.00  0.00    +0.000 A 
ATOM     17  C   UNL     1      -1.025  11.352  20.454  0.00  0.00    +0.000 A 
ATOM     18  C   UNL     1      -0.359  10.129  20.326  0.00  0.00    +0.000 A 
ATOM     19  F   UNL     1      -0.066   9.697  19.088  0.00  0.00    +0.000 F 
ATOM     20  C   UNL     1       0.060   9.392  21.441  0.00  0.00    +0.000 A 
ATOM     21  C   UNL     1      -0.289   9.893  22.701  0.00  0.00    +0.000 A 
ATOM     22  F   UNL     1       0.082   9.249  23.820  0.00  0.00    +0.000 F 
ATOM     23  C   UNL     1      -0.966  11.108  22.849  0.00  0.00    +0.000 A 
BRANCH  20  24
ATOM     24  C   UNL     1       0.800   8.133  21.244  0.00  0.00    +0.000 C 
ATOM     25  C   UNL     1       1.546   7.835  20.166  0.00  0.00    +0.000 C 
BRANCH  25  26
ATOM     26  C   UNL     1       2.260   6.546  20.120  0.00  0.00    +0.000 C 
ATOM     27  O   UNL     1       3.366   6.375  19.636  0.00  0.00    +0.000 OA
BRANCH  26  28
ATOM     28  O   UNL     1       1.544   5.546  20.683  0.00  0.00    +0.000 OA
ATOM     29  H   UNL     1       0.622   5.769  20.903  0.00  0.00    +0.000 HD
ENDBRANCH  26  28
ENDBRANCH  25  26
ENDBRANCH  20  24
ENDBRANCH  13  16
BRANCH  14  30
ATOM     30  C   UNL     1       0.381  14.530  21.356  0.00  0.00    +0.000 C 
BRANCH  30  31
ATOM     31  C   UNL     1       1.413  14.472  20.182  0.00  0.00    +0.000 C 
ATOM     32  C   UNL     1       1.473  15.764  19.375  0.00  0.00    +0.000 C 
ATOM     33  C   UNL     1       2.809  14.061  20.636  0.00  0.00    +0.000 C 
ATOM     34  F   UNL     1       1.087  13.458  19.340  0.00  0.00    +0.000 F 
ENDBRANCH  30  31
ENDBRANCH  14  30
TORSDOF 6
ENDMDL
MODEL 8
REMARK VINA RESULT:      -6.4      2.205      6.035
REMARK  Name = 
REMARK  9 active torsions:
REMARK  status: ('A' for Active; 'I' for Inactive)
REMARK    1  A    between atoms: C_1  and  C_2
REMARK    2  A    between atoms: C_13  and  C_14
REMARK    3  A    between atoms: C_18  and  C_19
REMARK    4  A    between atoms: C_20  and  C_21
REMARK    5  A    between atoms: C_21  and  O_23
REMARK    6  A    between atoms: N_27  and  C_28
REMARK    7  A    between atoms: C_28  and  C_29
REMARK    8  A    between atoms: C_29  and  C_30
REMARK    9  A    between atoms: C_29  and  C_31
REMARK                            x       y       z     vdW  Elec       q    Type
REMARK                         _______ _______ _______ _____ _____    ______ ____
ROOT
ATOM      1  C   UNL     1      -1.549  16.451  20.090  0.00  0.00    +0.000 C 
ATOM      2  C   UNL     1      -0.592  15.844  21.140  0.00  0.00    +0.000 C 
ATOM      3  C   UNL     1       0.833  16.462  20.958  0.00  0.00    +0.000 C 
ATOM      4  C   UNL     1       1.666  15.658  20.024  0.00  0.00    +0.000 A 
ATOM      5  C   UNL     1       1.234  14.427  19.576  0.00  0.00    +0.000 A 
ATOM      6  N   UNL     1       2.220  13.917  18.769  0.00  0.00    +0.000 N 
ATOM      7  C   UNL     1       3.299  14.770  18.737  0.00  0.00    +0.000 A 
ATOM      8  C   UNL     1       4.540  14.634  18.103  0.00  0.00    +0.000 A 
ATOM      9  C   UNL     1       5.460  15.671  18.257  0.00  0.00    +0.000 A 
ATOM     10  C   UNL     1       5.151  16.805  19.004  0.00  0.00    +0.000 A 
ATOM     11  C   UNL     1       3.907  16.927  19.636  0.00  0.00    +0.000 A 
ATOM     12  C   UNL     1       2.962  15.890  19.507  0.00  0.00    +0.000 A 
ATOM     13  C   UNL     1      -0.065  13.743  19.918  0.00  0.00    +0.000 C 
ATOM     14  N   UNL     1      -0.599  14.328  21.204  0.00  0.00    +0.000 NA
ATOM     15  H   UNL     1       2.198  13.008  18.318  0.00  0.00    +0.000 HD
ENDROOT
BRANCH  13  16
ATOM     16  C   UNL     1       0.123  12.232  19.913  0.00  0.00    +0.000 A 
ATOM     17  C   UNL     1      -0.115  11.454  18.771  0.00  0.00    +0.000 A 
ATOM     18  C   UNL     1       0.269  10.109  18.742  0.00  0.00    +0.000 A 
ATOM     19  F   UNL     1       0.100   9.430  17.596  0.00  0.00    +0.000 F 
ATOM     20  C   UNL     1       0.876   9.486  19.841  0.00  0.00    +0.000 A 
ATOM     21  C   UNL     1       1.010  10.248  21.008  0.00  0.00    +0.000 A 
ATOM     22  F   UNL     1       1.588   9.727  22.102  0.00  0.00    +0.000 F 
ATOM     23  C   UNL     1       0.621  11.591  21.061  0.00  0.00    +0.000 A 
BRANCH  20  24
ATOM     24  C   UNL     1       1.302   8.080  19.735  0.00  0.00    +0.000 C 
ATOM     25  C   UNL     1       2.359   7.643  19.027  0.00  0.00    +0.000 C 
BRANCH  25  26
ATOM     26  C   UNL     1       2.688   6.207  19.040  0.00  0.00    +0.000 C 
ATOM     27  O   UNL     1       2.472   5.430  18.125  0.00  0.00    +0.000 OA
BRANCH  26  28
ATOM     28  O   UNL     1       3.268   5.827  20.201  0.00  0.00    +0.000 OA
ATOM     29  H   UNL     1       2.799   5.126  20.690  0.00  0.00    +0.000 HD
ENDBRANCH  26  28
ENDBRANCH  25  26
ENDBRANCH  20  24
ENDBRANCH  13  16
BRANCH  14  30
ATOM     30  C   UNL     1      -1.956  13.842  21.622  0.00  0.00    +0.000 C 
BRANCH  30  31
ATOM     31  C   UNL     1      -2.210  13.337  23.080  0.00  0.00    +0.000 C 
ATOM     32  C   UNL     1      -3.433  13.974  23.729  0.00  0.00    +0.000 C 
ATOM     33  C   UNL     1      -2.284  11.817  23.178  0.00  0.00    +0.000 C 
ATOM     34  F   UNL     1      -1.126  13.611  23.851  0.00  0.00    +0.000 F 
ENDBRANCH  30  31
ENDBRANCH  14  30
TORSDOF 6
ENDMDL
MODEL 9
REMARK VINA RESULT:      -6.4      4.248      6.335
REMARK  Name = 
REMARK  9 active torsions:
REMARK  status: ('A' for Active; 'I' for Inactive)
REMARK    1  A    between atoms: C_1  and  C_2
REMARK    2  A    between atoms: C_13  and  C_14
REMARK    3  A    between atoms: C_18  and  C_19
REMARK    4  A    between atoms: C_20  and  C_21
REMARK    5  A    between atoms: C_21  and  O_23
REMARK    6  A    between atoms: N_27  and  C_28
REMARK    7  A    between atoms: C_28  and  C_29
REMARK    8  A    between atoms: C_29  and  C_30
REMARK    9  A    between atoms: C_29  and  C_31
REMARK                            x       y       z     vdW  Elec       q    Type
REMARK                         _______ _______ _______ _____ _____    ______ ____
ROOT
ATOM      1  C   UNL     1      -2.668  10.002  15.939  0.00  0.00    +0.000 C 
ATOM      2  C   UNL     1      -2.546   9.628  17.433  0.00  0.00    +0.000 C 
ATOM      3  C   UNL     1      -3.973   9.604  18.075  0.00  0.00    +0.000 C 
ATOM      4  C   UNL     1      -4.344  10.929  18.640  0.00  0.00    +0.000 A 
ATOM      5  C   UNL     1      -3.413  11.943  18.728  0.00  0.00    +0.000 A 
ATOM      6  N   UNL     1      -4.034  13.017  19.318  0.00  0.00    +0.000 N 
ATOM      7  C   UNL     1      -5.326  12.691  19.663  0.00  0.00    +0.000 A 
ATOM      8  C   UNL     1      -6.298  13.442  20.334  0.00  0.00    +0.000 A 
ATOM      9  C   UNL     1      -7.536  12.839  20.559  0.00  0.00    +0.000 A 
ATOM     10  C   UNL     1      -7.798  11.542  20.122  0.00  0.00    +0.000 A 
ATOM     11  C   UNL     1      -6.814  10.802  19.456  0.00  0.00    +0.000 A 
ATOM     12  C   UNL     1      -5.551  11.380  19.224  0.00  0.00    +0.000 A 
ATOM     13  C   UNL     1      -1.974  11.894  18.285  0.00  0.00    +0.000 C 
ATOM     14  N   UNL     1      -1.537  10.449  18.213  0.00  0.00    +0.000 NA
ATOM     15  H   UNL     1      -3.589  13.902  19.541  0.00  0.00    +0.000 HD
ENDROOT
BRANCH  13  16
ATOM     16  C   UNL     1      -1.123  12.793  19.171  0.00  0.00    +0.000 A 
ATOM     17  C   UNL     1      -1.098  12.659  20.567  0.00  0.00    +0.000 A 
ATOM     18  C   UNL     1      -0.150  13.354  21.326  0.00  0.00    +0.000 A 
ATOM     19  F   UNL     1      -0.110  13.125  22.648  0.00  0.00    +0.000 F 
ATOM     20  C   UNL     1       0.783  14.217  20.737  0.00  0.00    +0.000 A 
ATOM     21  C   UNL     1       0.678  14.420  19.355  0.00  0.00    +0.000 A 
ATOM     22  F   UNL     1       1.540  15.226  18.714  0.00  0.00    +0.000 F 
ATOM     23  C   UNL     1      -0.271  13.744  18.582  0.00  0.00    +0.000 A 
BRANCH  20  24
ATOM     24  C   UNL     1       1.789  14.885  21.581  0.00  0.00    +0.000 C 
ATOM     25  C   UNL     1       1.616  16.064  22.204  0.00  0.00    +0.000 C 
BRANCH  25  26
ATOM     26  C   UNL     1       2.700  16.597  23.048  0.00  0.00    +0.000 C 
ATOM     27  O   UNL     1       3.380  15.937  23.816  0.00  0.00    +0.000 OA
BRANCH  26  28
ATOM     28  O   UNL     1       2.869  17.928  22.880  0.00  0.00    +0.000 OA
ATOM     29  H   UNL     1       3.064  18.428  23.694  0.00  0.00    +0.000 HD
ENDBRANCH  26  28
ENDBRANCH  25  26
ENDBRANCH  20  24
ENDBRANCH  13  16
BRANCH  14  30
ATOM     30  C   UNL     1      -0.160  10.216  17.666  0.00  0.00    +0.000 C 
BRANCH  30  31
ATOM     31  C   UNL     1       1.040   9.914  18.622  0.00  0.00    +0.000 C 
ATOM     32  C   UNL     1       0.600   9.511  20.024  0.00  0.00    +0.000 C 
ATOM     33  C   UNL     1       2.012   8.886  18.051  0.00  0.00    +0.000 C 
ATOM     34  F   UNL     1       1.829  11.014  18.722  0.00  0.00    +0.000 F 
ENDBRANCH  30  31
ENDBRANCH  14  30
TORSDOF 6
ENDMDL
