MODEL 1
REMARK VINA RESULT:      -9.2      0.000      0.000
REMARK  Name = 
REMARK  5 active torsions:
REMARK  status: ('A' for Active; 'I' for Inactive)
REMARK    1  A    between atoms: C_2  and  C_10
REMARK    2  A    between atoms: N_3  and  C_4
REMARK    3  A    between atoms: C_4  and  C_5
REMARK    4  A    between atoms: C_14  and  C_15
REMARK    5  A    between atoms: C_25  and  C_26
REMARK                            x       y       z     vdW  Elec       q    Type
REMARK                         _______ _______ _______ _____ _____    ______ ____
ROOT
ATOM      1  C   UNL     1       5.260   5.371  16.715  0.00  0.00    +0.000 A 
ATOM      2  C   UNL     1       4.809   6.699  16.861  0.00  0.00    +0.000 A 
ATOM      3  C   UNL     1       3.875   6.669  17.865  0.00  0.00    +0.000 A 
ATOM      4  N   UNL     1       3.100   7.664  18.384  0.00  0.00    +0.000 NA
ATOM      5  C   UNL     1       2.326   7.353  19.385  0.00  0.00    +0.000 A 
ATOM      6  C   UNL     1       2.254   5.981  19.980  0.00  0.00    +0.000 A 
ATOM      7  C   UNL     1       3.019   5.025  19.410  0.00  0.00    +0.000 A 
ATOM      8  N   UNL     1       3.834   5.350  18.330  0.00  0.00    +0.000 N 
ATOM      9  N   UNL     1       4.653   4.549  17.590  0.00  0.00    +0.000 NA
ENDROOT
BRANCH   5  10
ATOM     10  C   UNL     1       1.424   8.399  19.954  0.00  0.00    +0.000 A 
ATOM     11  C   UNL     1       0.956   9.488  19.184  0.00  0.00    +0.000 A 
ATOM     12  C   UNL     1       0.133  10.466  19.758  0.00  0.00    +0.000 A 
ATOM     13  C   UNL     1      -0.204  10.327  21.090  0.00  0.00    +0.000 A 
ATOM     14  C   UNL     1       0.234   9.260  21.837  0.00  0.00    +0.000 A 
ATOM     15  C   UNL     1       1.039   8.278  21.299  0.00  0.00    +0.000 A 
ATOM     16  O   UNL     1      -0.212   9.312  23.120  0.00  0.00    +0.000 OA
ATOM     17  C   UNL     1      -0.959  10.546  23.101  0.00  0.00    +0.000 C 
ATOM     18  O   UNL     1      -0.979  11.182  21.805  0.00  0.00    +0.000 OA
ENDBRANCH   5  10
BRANCH   1  20
ATOM     19  O   UNL     1       7.461   4.918  15.991  0.00  0.00    +0.000 OA
ATOM     20  C   UNL     1       6.260   4.920  15.734  0.00  0.00    +0.000 C 
ATOM     21  N   UNL     1       5.758   4.527  14.514  0.00  0.00    +0.000 N 
ATOM     22  H   UNL     1       4.777   4.715  14.335  0.00  0.00    +0.000 HD
BRANCH  21  23
ATOM     23  C   UNL     1       6.656   4.231  13.428  0.00  0.00    +0.000 C 
BRANCH  23  24
ATOM     24  C   UNL     1       5.977   3.392  12.415  0.00  0.00    +0.000 A 
ATOM     25  C   UNL     1       4.703   3.402  11.884  0.00  0.00    +0.000 A 
ATOM     26  C   UNL     1       4.622   2.289  11.014  0.00  0.00    +0.000 A 
ATOM     27  C   UNL     1       5.853   1.678  11.061  0.00  0.00    +0.000 A 
ATOM     28  O   UNL     1       6.684   2.342  11.904  0.00  0.00    +0.000 OA
ENDBRANCH  23  24
ENDBRANCH  21  23
ENDBRANCH   1  20
BRANCH   7  29
ATOM     29  C   UNL     1       3.010   3.634  19.924  0.00  0.00    +0.000 C 
ATOM     30  F   UNL     1       2.511   2.685  19.100  0.00  0.00    +0.000 F 
ATOM     31  F   UNL     1       4.272   3.237  20.244  0.00  0.00    +0.000 F 
ATOM     32  F   UNL     1       2.296   3.555  21.080  0.00  0.00    +0.000 F 
ENDBRANCH   7  29
TORSDOF 5
ENDMDL
MODEL 2
REMARK VINA RESULT:      -9.1      0.859      1.619
REMARK  Name = 
REMARK  5 active torsions:
REMARK  status: ('A' for Active; 'I' for Inactive)
REMARK    1  A    between atoms: C_2  and  C_10
REMARK    2  A    between atoms: N_3  and  C_4
REMARK    3  A    between atoms: C_4  and  C_5
REMARK    4  A    between atoms: C_14  and  C_15
REMARK    5  A    between atoms: C_25  and  C_26
REMARK                            x       y       z     vdW  Elec       q    Type
REMARK                         _______ _______ _______ _____ _____    ______ ____
ROOT
ATOM      1  C   UNL     1       5.558   5.316  16.394  0.00  0.00    +0.000 A 
ATOM      2  C   UNL     1       5.056   6.623  16.559  0.00  0.00    +0.000 A 
ATOM      3  C   UNL     1       4.144   6.548  17.581  0.00  0.00    +0.000 A 
ATOM      4  N   UNL     1       3.339   7.506  18.124  0.00  0.00    +0.000 NA
ATOM      5  C   UNL     1       2.600   7.157  19.137  0.00  0.00    +0.000 A 
ATOM      6  C   UNL     1       2.596   5.779  19.723  0.00  0.00    +0.000 A 
ATOM      7  C   UNL     1       3.388   4.859  19.130  0.00  0.00    +0.000 A 
ATOM      8  N   UNL     1       4.167   5.224  18.036  0.00  0.00    +0.000 N 
ATOM      9  N   UNL     1       5.003   4.464  17.275  0.00  0.00    +0.000 NA
ENDROOT
BRANCH   5  10
ATOM     10  C   UNL     1       1.667   8.161  19.732  0.00  0.00    +0.000 A 
ATOM     11  C   UNL     1       1.155   8.027  21.042  0.00  0.00    +0.000 A 
ATOM     12  C   UNL     1       0.261   8.973  21.559  0.00  0.00    +0.000 A 
ATOM     13  C   UNL     1      -0.096  10.034  20.750  0.00  0.00    +0.000 A 
ATOM     14  C   UNL     1       0.415  10.178  19.483  0.00  0.00    +0.000 A 
ATOM     15  C   UNL     1       1.302   9.268  18.949  0.00  0.00    +0.000 A 
ATOM     16  O   UNL     1      -0.062  11.288  18.859  0.00  0.00    +0.000 OA
ATOM     17  C   UNL     1      -0.950  11.812  19.869  0.00  0.00    +0.000 C 
ATOM     18  O   UNL     1      -0.955  11.032  21.084  0.00  0.00    +0.000 OA
ENDBRANCH   5  10
BRANCH   1  20
ATOM     19  O   UNL     1       7.744   4.790  15.674  0.00  0.00    +0.000 OA
ATOM     20  C   UNL     1       6.556   4.913  15.390  0.00  0.00    +0.000 C 
ATOM     21  N   UNL     1       6.068   4.709  14.119  0.00  0.00    +0.000 N 
ATOM     22  H   UNL     1       5.109   4.990  13.940  0.00  0.00    +0.000 HD
BRANCH  21  23
ATOM     23  C   UNL     1       6.979   4.480  13.027  0.00  0.00    +0.000 C 
BRANCH  23  24
ATOM     24  C   UNL     1       6.524   3.331  12.212  0.00  0.00    +0.000 A 
ATOM     25  C   UNL     1       5.280   2.791  11.957  0.00  0.00    +0.000 A 
ATOM     26  C   UNL     1       5.497   1.637  11.168  0.00  0.00    +0.000 A 
ATOM     27  C   UNL     1       6.857   1.551  10.983  0.00  0.00    +0.000 A 
ATOM     28  O   UNL     1       7.489   2.578  11.609  0.00  0.00    +0.000 OA
ENDBRANCH  23  24
ENDBRANCH  21  23
ENDBRANCH   1  20
BRANCH   7  29
ATOM     29  C   UNL     1       3.446   3.465  19.633  0.00  0.00    +0.000 C 
ATOM     30  F   UNL     1       4.672   2.973  19.921  0.00  0.00    +0.000 F 
ATOM     31  F   UNL     1       2.706   3.338  20.769  0.00  0.00    +0.000 F 
ATOM     32  F   UNL     1       2.888   2.607  18.734  0.00  0.00    +0.000 F 
ENDBRANCH   7  29
TORSDOF 5
ENDMDL
MODEL 3
REMARK VINA RESULT:      -8.9      0.689      1.091
REMARK  Name = 
REMARK  5 active torsions:
REMARK  status: ('A' for Active; 'I' for Inactive)
REMARK    1  A    between atoms: C_2  and  C_10
REMARK    2  A    between atoms: N_3  and  C_4
REMARK    3  A    between atoms: C_4  and  C_5
REMARK    4  A    between atoms: C_14  and  C_15
REMARK    5  A    between atoms: C_25  and  C_26
REMARK                            x       y       z     vdW  Elec       q    Type
REMARK                         _______ _______ _______ _____ _____    ______ ____
ROOT
ATOM      1  C   UNL     1       4.952   5.204  17.067  0.00  0.00    +0.000 A 
ATOM      2  C   UNL     1       4.573   6.559  17.154  0.00  0.00    +0.000 A 
ATOM      3  C   UNL     1       3.632   6.622  18.150  0.00  0.00    +0.000 A 
ATOM      4  N   UNL     1       2.908   7.678  18.621  0.00  0.00    +0.000 NA
ATOM      5  C   UNL     1       2.113   7.452  19.626  0.00  0.00    +0.000 A 
ATOM      6  C   UNL     1       1.961   6.112  20.277  0.00  0.00    +0.000 A 
ATOM      7  C   UNL     1       2.676   5.092  19.753  0.00  0.00    +0.000 A 
ATOM      8  N   UNL     1       3.515   5.327  18.668  0.00  0.00    +0.000 N 
ATOM      9  N   UNL     1       4.294   4.453  17.970  0.00  0.00    +0.000 NA
ENDROOT
BRANCH   5  10
ATOM     10  C   UNL     1       1.265   8.568  20.144  0.00  0.00    +0.000 A 
ATOM     11  C   UNL     1       0.981   9.717  19.372  0.00  0.00    +0.000 A 
ATOM     12  C   UNL     1       0.206  10.757  19.899  0.00  0.00    +0.000 A 
ATOM     13  C   UNL     1      -0.271  10.619  21.187  0.00  0.00    +0.000 A 
ATOM     14  C   UNL     1      -0.013   9.496  21.935  0.00  0.00    +0.000 A 
ATOM     15  C   UNL     1       0.741   8.452  21.442  0.00  0.00    +0.000 A 
ATOM     16  O   UNL     1      -0.574   9.560  23.171  0.00  0.00    +0.000 OA
ATOM     17  C   UNL     1      -1.193  10.863  23.125  0.00  0.00    +0.000 C 
ATOM     18  O   UNL     1      -1.025  11.529  21.856  0.00  0.00    +0.000 OA
ENDBRANCH   5  10
BRANCH   1  20
ATOM     19  O   UNL     1       6.894   3.993  16.488  0.00  0.00    +0.000 OA
ATOM     20  C   UNL     1       5.932   4.659  16.115  0.00  0.00    +0.000 C 
ATOM     21  N   UNL     1       5.707   4.966  14.792  0.00  0.00    +0.000 N 
ATOM     22  H   UNL     1       4.986   5.652  14.591  0.00  0.00    +0.000 HD
BRANCH  21  23
ATOM     23  C   UNL     1       6.693   4.630  13.797  0.00  0.00    +0.000 C 
BRANCH  23  24
ATOM     24  C   UNL     1       6.127   3.675  12.816  0.00  0.00    +0.000 A 
ATOM     25  C   UNL     1       6.684   2.668  12.054  0.00  0.00    +0.000 A 
ATOM     26  C   UNL     1       5.644   2.162  11.238  0.00  0.00    +0.000 A 
ATOM     27  C   UNL     1       4.519   2.884  11.561  0.00  0.00    +0.000 A 
ATOM     28  O   UNL     1       4.801   3.802  12.522  0.00  0.00    +0.000 OA
ENDBRANCH  23  24
ENDBRANCH  21  23
ENDBRANCH   1  20
BRANCH   7  29
ATOM     29  C   UNL     1       2.588   3.726  20.323  0.00  0.00    +0.000 C 
ATOM     30  F   UNL     1       1.968   3.605  21.519  0.00  0.00    +0.000 F 
ATOM     31  F   UNL     1       1.931   2.895  19.467  0.00  0.00    +0.000 F 
ATOM     32  F   UNL     1       3.829   3.189  20.476  0.00  0.00    +0.000 F 
ENDBRANCH   7  29
TORSDOF 5
ENDMDL
MODEL 4
REMARK VINA RESULT:      -8.9      0.876      1.661
REMARK  Name = 
REMARK  5 active torsions:
REMARK  status: ('A' for Active; 'I' for Inactive)
REMARK    1  A    between atoms: C_2  and  C_10
REMARK    2  A    between atoms: N_3  and  C_4
REMARK    3  A    between atoms: C_4  and  C_5
REMARK    4  A    between atoms: C_14  and  C_15
REMARK    5  A    between atoms: C_25  and  C_26
REMARK                            x       y       z     vdW  Elec       q    Type
REMARK                         _______ _______ _______ _____ _____    ______ ____
ROOT
ATOM      1  C   UNL     1       5.137   5.227  17.056  0.00  0.00    +0.000 A 
ATOM      2  C   UNL     1       4.722   6.567  17.200  0.00  0.00    +0.000 A 
ATOM      3  C   UNL     1       3.765   6.559  18.182  0.00  0.00    +0.000 A 
ATOM      4  N   UNL     1       3.007   7.574  18.689  0.00  0.00    +0.000 NA
ATOM      5  C   UNL     1       2.202   7.281  19.669  0.00  0.00    +0.000 A 
ATOM      6  C   UNL     1       2.075   5.908  20.254  0.00  0.00    +0.000 A 
ATOM      7  C   UNL     1       2.824   4.933  19.696  0.00  0.00    +0.000 A 
ATOM      8  N   UNL     1       3.673   5.239  18.637  0.00  0.00    +0.000 N 
ATOM      9  N   UNL     1       4.485   4.419  17.912  0.00  0.00    +0.000 NA
ENDROOT
BRANCH   5  10
ATOM     10  C   UNL     1       1.318   8.350  20.224  0.00  0.00    +0.000 A 
ATOM     11  C   UNL     1       0.798   8.290  21.537  0.00  0.00    +0.000 A 
ATOM     12  C   UNL     1      -0.050   9.297  22.015  0.00  0.00    +0.000 A 
ATOM     13  C   UNL     1      -0.354  10.343  21.167  0.00  0.00    +0.000 A 
ATOM     14  C   UNL     1       0.165  10.415  19.897  0.00  0.00    +0.000 A 
ATOM     15  C   UNL     1       1.008   9.444  19.399  0.00  0.00    +0.000 A 
ATOM     16  O   UNL     1      -0.257  11.522  19.230  0.00  0.00    +0.000 OA
ATOM     17  C   UNL     1      -1.119  12.126  20.217  0.00  0.00    +0.000 C 
ATOM     18  O   UNL     1      -1.163  11.393  21.460  0.00  0.00    +0.000 OA
ENDBRANCH   5  10
BRANCH   1  20
ATOM     19  O   UNL     1       7.312   4.557  16.428  0.00  0.00    +0.000 OA
ATOM     20  C   UNL     1       6.146   4.752  16.096  0.00  0.00    +0.000 C 
ATOM     21  N   UNL     1       5.697   4.566  14.808  0.00  0.00    +0.000 N 
ATOM     22  H   UNL     1       4.765   4.905  14.589  0.00  0.00    +0.000 HD
BRANCH  21  23
ATOM     23  C   UNL     1       6.633   4.268  13.755  0.00  0.00    +0.000 C 
BRANCH  23  24
ATOM     24  C   UNL     1       5.985   3.444  12.710  0.00  0.00    +0.000 A 
ATOM     25  C   UNL     1       6.435   2.412  11.911  0.00  0.00    +0.000 A 
ATOM     26  C   UNL     1       5.368   2.085  11.040  0.00  0.00    +0.000 A 
ATOM     27  C   UNL     1       4.334   2.930  11.369  0.00  0.00    +0.000 A 
ATOM     28  O   UNL     1       4.697   3.755  12.386  0.00  0.00    +0.000 OA
ENDBRANCH  23  24
ENDBRANCH  21  23
ENDBRANCH   1  20
BRANCH   7  29
ATOM     29  C   UNL     1       2.761   3.539  20.200  0.00  0.00    +0.000 C 
ATOM     30  F   UNL     1       3.941   2.929  20.449  0.00  0.00    +0.000 F 
ATOM     31  F   UNL     1       2.049   3.486  21.360  0.00  0.00    +0.000 F 
ATOM     32  F   UNL     1       2.092   2.742  19.322  0.00  0.00    +0.000 F 
ENDBRANCH   7  29
TORSDOF 5
ENDMDL
MODEL 5
REMARK VINA RESULT:      -8.6      1.050      1.673
REMARK  Name = 
REMARK  5 active torsions:
REMARK  status: ('A' for Active; 'I' for Inactive)
REMARK    1  A    between atoms: C_2  and  C_10
REMARK    2  A    between atoms: N_3  and  C_4
REMARK    3  A    between atoms: C_4  and  C_5
REMARK    4  A    between atoms: C_14  and  C_15
REMARK    5  A    between atoms: C_25  and  C_26
REMARK                            x       y       z     vdW  Elec       q    Type
REMARK                         _______ _______ _______ _____ _____    ______ ____
ROOT
ATOM      1  C   UNL     1       4.940   5.431  16.929  0.00  0.00    +0.000 A 
ATOM      2  C   UNL     1       4.552   6.787  16.909  0.00  0.00    +0.000 A 
ATOM      3  C   UNL     1       3.605   6.920  17.892  0.00  0.00    +0.000 A 
ATOM      4  N   UNL     1       2.872   8.004  18.276  0.00  0.00    +0.000 NA
ATOM      5  C   UNL     1       2.072   7.851  19.291  0.00  0.00    +0.000 A 
ATOM      6  C   UNL     1       1.926   6.564  20.043  0.00  0.00    +0.000 A 
ATOM      7  C   UNL     1       2.650   5.512  19.604  0.00  0.00    +0.000 A 
ATOM      8  N   UNL     1       3.494   5.668  18.508  0.00  0.00    +0.000 N 
ATOM      9  N   UNL     1       4.283   4.748  17.884  0.00  0.00    +0.000 NA
ENDROOT
BRANCH   5  10
ATOM     10  C   UNL     1       1.214   8.998  19.716  0.00  0.00    +0.000 A 
ATOM     11  C   UNL     1       0.465   8.973  20.914  0.00  0.00    +0.000 A 
ATOM     12  C   UNL     1      -0.351  10.055  21.268  0.00  0.00    +0.000 A 
ATOM     13  C   UNL     1      -0.392  11.140  20.414  0.00  0.00    +0.000 A 
ATOM     14  C   UNL     1       0.350  11.176  19.259  0.00  0.00    +0.000 A 
ATOM     15  C   UNL     1       1.167  10.130  18.886  0.00  0.00    +0.000 A 
ATOM     16  O   UNL     1       0.167  12.331  18.565  0.00  0.00    +0.000 OA
ATOM     17  C   UNL     1      -0.794  13.006  19.404  0.00  0.00    +0.000 C 
ATOM     18  O   UNL     1      -1.133  12.264  20.595  0.00  0.00    +0.000 OA
ENDBRANCH   5  10
BRANCH   1  20
ATOM     19  O   UNL     1       6.997   4.379  16.444  0.00  0.00    +0.000 OA
ATOM     20  C   UNL     1       5.930   4.821  16.027  0.00  0.00    +0.000 C 
ATOM     21  N   UNL     1       5.585   4.803  14.695  0.00  0.00    +0.000 N 
ATOM     22  H   UNL     1       4.763   5.332  14.421  0.00  0.00    +0.000 HD
BRANCH  21  23
ATOM     23  C   UNL     1       6.547   4.386  13.707  0.00  0.00    +0.000 C 
BRANCH  23  24
ATOM     24  C   UNL     1       5.883   3.600  12.643  0.00  0.00    +0.000 A 
ATOM     25  C   UNL     1       4.627   3.657  12.074  0.00  0.00    +0.000 A 
ATOM     26  C   UNL     1       4.551   2.580  11.160  0.00  0.00    +0.000 A 
ATOM     27  C   UNL     1       5.767   1.942  11.220  0.00  0.00    +0.000 A 
ATOM     28  O   UNL     1       6.585   2.556  12.113  0.00  0.00    +0.000 OA
ENDBRANCH  23  24
ENDBRANCH  21  23
ENDBRANCH   1  20
BRANCH   7  29
ATOM     29  C   UNL     1       2.567   4.194  20.278  0.00  0.00    +0.000 C 
ATOM     30  F   UNL     1       1.857   3.232  19.646  0.00  0.00    +0.000 F 
ATOM     31  F   UNL     1       3.813   3.682  20.476  0.00  0.00    +0.000 F 
ATOM     32  F   UNL     1       2.022   4.323  21.519  0.00  0.00    +0.000 F 
ENDBRANCH   7  29
TORSDOF 5
ENDMDL
MODEL 6
REMARK VINA RESULT:      -8.3      1.926      9.220
REMARK  Name = 
REMARK  5 active torsions:
REMARK  status: ('A' for Active; 'I' for Inactive)
REMARK    1  A    between atoms: C_2  and  C_10
REMARK    2  A    between atoms: N_3  and  C_4
REMARK    3  A    between atoms: C_4  and  C_5
REMARK    4  A    between atoms: C_14  and  C_15
REMARK    5  A    between atoms: C_25  and  C_26
REMARK                            x       y       z     vdW  Elec       q    Type
REMARK                         _______ _______ _______ _____ _____    ______ ____
ROOT
ATOM      1  C   UNL     1       1.068   7.797  20.920  0.00  0.00    +0.000 A 
ATOM      2  C   UNL     1       1.868   8.200  19.830  0.00  0.00    +0.000 A 
ATOM      3  C   UNL     1       2.547   7.078  19.429  0.00  0.00    +0.000 A 
ATOM      4  N   UNL     1       3.480   6.909  18.448  0.00  0.00    +0.000 NA
ATOM      5  C   UNL     1       3.923   5.701  18.252  0.00  0.00    +0.000 A 
ATOM      6  C   UNL     1       3.463   4.512  19.037  0.00  0.00    +0.000 A 
ATOM      7  C   UNL     1       2.561   4.737  20.017  0.00  0.00    +0.000 A 
ATOM      8  N   UNL     1       2.098   6.030  20.241  0.00  0.00    +0.000 N 
ATOM      9  N   UNL     1       1.224   6.487  21.182  0.00  0.00    +0.000 NA
ENDROOT
BRANCH   5  10
ATOM     10  C   UNL     1       4.981   5.477  17.220  0.00  0.00    +0.000 A 
ATOM     11  C   UNL     1       6.305   5.941  17.388  0.00  0.00    +0.000 A 
ATOM     12  C   UNL     1       7.264   5.738  16.388  0.00  0.00    +0.000 A 
ATOM     13  C   UNL     1       6.874   5.070  15.244  0.00  0.00    +0.000 A 
ATOM     14  C   UNL     1       5.594   4.599  15.086  0.00  0.00    +0.000 A 
ATOM     15  C   UNL     1       4.628   4.778  16.054  0.00  0.00    +0.000 A 
ATOM     16  O   UNL     1       5.419   3.971  13.893  0.00  0.00    +0.000 OA
ATOM     17  C   UNL     1       6.731   4.121  13.309  0.00  0.00    +0.000 C 
ATOM     18  O   UNL     1       7.667   4.797  14.176  0.00  0.00    +0.000 OA
ENDBRANCH   5  10
BRANCH   1  20
ATOM     19  O   UNL     1      -0.795   8.245  22.299  0.00  0.00    +0.000 OA
ATOM     20  C   UNL     1       0.177   8.681  21.687  0.00  0.00    +0.000 C 
ATOM     21  N   UNL     1       0.494  10.020  21.650  0.00  0.00    +0.000 N 
ATOM     22  H   UNL     1       1.212  10.308  20.992  0.00  0.00    +0.000 HD
BRANCH  21  23
ATOM     23  C   UNL     1      -0.404  10.989  22.222  0.00  0.00    +0.000 C 
BRANCH  23  24
ATOM     24  C   UNL     1      -1.195  11.647  21.157  0.00  0.00    +0.000 A 
ATOM     25  C   UNL     1      -2.029  12.747  21.146  0.00  0.00    +0.000 A 
ATOM     26  C   UNL     1      -2.567  12.829  19.840  0.00  0.00    +0.000 A 
ATOM     27  C   UNL     1      -2.020  11.783  19.135  0.00  0.00    +0.000 A 
ATOM     28  O   UNL     1      -1.181  11.063  19.924  0.00  0.00    +0.000 OA
ENDBRANCH  23  24
ENDBRANCH  21  23
ENDBRANCH   1  20
BRANCH   7  29
ATOM     29  C   UNL     1       2.051   3.625  20.855  0.00  0.00    +0.000 C 
ATOM     30  F   UNL     1       2.493   2.384  20.553  0.00  0.00    +0.000 F 
ATOM     31  F   UNL     1       2.362   3.834  22.164  0.00  0.00    +0.000 F 
ATOM     32  F   UNL     1       0.691   3.572  20.805  0.00  0.00    +0.000 F 
ENDBRANCH   7  29
TORSDOF 5
ENDMDL
MODEL 7
REMARK VINA RESULT:      -8.2      1.908      9.325
REMARK  Name = 
REMARK  5 active torsions:
REMARK  status: ('A' for Active; 'I' for Inactive)
REMARK    1  A    between atoms: C_2  and  C_10
REMARK    2  A    between atoms: N_3  and  C_4
REMARK    3  A    between atoms: C_4  and  C_5
REMARK    4  A    between atoms: C_14  and  C_15
REMARK    5  A    between atoms: C_25  and  C_26
REMARK                            x       y       z     vdW  Elec       q    Type
REMARK                         _______ _______ _______ _____ _____    ______ ____
ROOT
ATOM      1  C   UNL     1       1.063   7.750  20.850  0.00  0.00    +0.000 A 
ATOM      2  C   UNL     1       1.873   8.156  19.769  0.00  0.00    +0.000 A 
ATOM      3  C   UNL     1       2.553   7.035  19.368  0.00  0.00    +0.000 A 
ATOM      4  N   UNL     1       3.493   6.869  18.393  0.00  0.00    +0.000 NA
ATOM      5  C   UNL     1       3.935   5.661  18.194  0.00  0.00    +0.000 A 
ATOM      6  C   UNL     1       3.466   4.469  18.969  0.00  0.00    +0.000 A 
ATOM      7  C   UNL     1       2.557   4.691  19.944  0.00  0.00    +0.000 A 
ATOM      8  N   UNL     1       2.095   5.984  20.171  0.00  0.00    +0.000 N 
ATOM      9  N   UNL     1       1.214   6.438  21.107  0.00  0.00    +0.000 NA
ENDROOT
BRANCH   5  10
ATOM     10  C   UNL     1       5.000   5.440  17.170  0.00  0.00    +0.000 A 
ATOM     11  C   UNL     1       6.326   5.893  17.354  0.00  0.00    +0.000 A 
ATOM     12  C   UNL     1       7.293   5.694  16.361  0.00  0.00    +0.000 A 
ATOM     13  C   UNL     1       6.908   5.039  15.207  0.00  0.00    +0.000 A 
ATOM     14  C   UNL     1       5.626   4.580  15.032  0.00  0.00    +0.000 A 
ATOM     15  C   UNL     1       4.653   4.755  15.993  0.00  0.00    +0.000 A 
ATOM     16  O   UNL     1       5.458   3.964  13.831  0.00  0.00    +0.000 OA
ATOM     17  C   UNL     1       6.776   4.112  13.261  0.00  0.00    +0.000 C 
ATOM     18  O   UNL     1       7.709   4.772  14.143  0.00  0.00    +0.000 OA
ENDBRANCH   5  10
BRANCH   1  20
ATOM     19  O   UNL     1      -0.917   8.241  22.036  0.00  0.00    +0.000 OA
ATOM     20  C   UNL     1       0.168   8.631  21.615  0.00  0.00    +0.000 C 
ATOM     21  N   UNL     1       0.620   9.918  21.801  0.00  0.00    +0.000 N 
ATOM     22  H   UNL     1       1.447  10.198  21.282  0.00  0.00    +0.000 HD
BRANCH  21  23
ATOM     23  C   UNL     1      -0.247  10.909  22.385  0.00  0.00    +0.000 C 
BRANCH  23  24
ATOM     24  C   UNL     1      -0.650  11.903  21.364  0.00  0.00    +0.000 A 
ATOM     25  C   UNL     1      -1.167  11.788  20.090  0.00  0.00    +0.000 A 
ATOM     26  C   UNL     1      -1.265  13.103  19.576  0.00  0.00    +0.000 A 
ATOM     27  C   UNL     1      -0.813  13.936  20.572  0.00  0.00    +0.000 A 
ATOM     28  O   UNL     1      -0.442  13.218  21.663  0.00  0.00    +0.000 OA
ENDBRANCH  23  24
ENDBRANCH  21  23
ENDBRANCH   1  20
BRANCH   7  29
ATOM     29  C   UNL     1       2.038   3.576  20.771  0.00  0.00    +0.000 C 
ATOM     30  F   UNL     1       0.706   3.346  20.716  0.00  0.00    +0.000 F 
ATOM     31  F   UNL     1       2.642   2.406  20.425  0.00  0.00    +0.000 F 
ATOM     32  F   UNL     1       2.341   3.771  22.084  0.00  0.00    +0.000 F 
ENDBRANCH   7  29
TORSDOF 5
ENDMDL
MODEL 8
REMARK VINA RESULT:      -8.1      5.189      7.330
REMARK  Name = 
REMARK  5 active torsions:
REMARK  status: ('A' for Active; 'I' for Inactive)
REMARK    1  A    between atoms: C_2  and  C_10
REMARK    2  A    between atoms: N_3  and  C_4
REMARK    3  A    between atoms: C_4  and  C_5
REMARK    4  A    between atoms: C_14  and  C_15
REMARK    5  A    between atoms: C_25  and  C_26
REMARK                            x       y       z     vdW  Elec       q    Type
REMARK                         _______ _______ _______ _____ _____    ______ ____
ROOT
ATOM      1  C   UNL     1       1.049   9.429  18.852  0.00  0.00    +0.000 A 
ATOM      2  C   UNL     1       1.101   9.881  20.188  0.00  0.00    +0.000 A 
ATOM      3  C   UNL     1      -0.003  10.676  20.357  0.00  0.00    +0.000 A 
ATOM      4  N   UNL     1      -0.420  11.395  21.438  0.00  0.00    +0.000 NA
ATOM      5  C   UNL     1      -1.553  12.027  21.331  0.00  0.00    +0.000 A 
ATOM      6  C   UNL     1      -2.403  11.998  20.098  0.00  0.00    +0.000 A 
ATOM      7  C   UNL     1      -1.930  11.297  19.044  0.00  0.00    +0.000 A 
ATOM      8  N   UNL     1      -0.712  10.635  19.151  0.00  0.00    +0.000 N 
ATOM      9  N   UNL     1      -0.038   9.904  18.218  0.00  0.00    +0.000 NA
ENDROOT
BRANCH   5  10
ATOM     10  C   UNL     1      -2.025  12.866  22.473  0.00  0.00    +0.000 A 
ATOM     11  C   UNL     1      -3.376  12.881  22.887  0.00  0.00    +0.000 A 
ATOM     12  C   UNL     1      -3.789  13.701  23.945  0.00  0.00    +0.000 A 
ATOM     13  C   UNL     1      -2.837  14.485  24.565  0.00  0.00    +0.000 A 
ATOM     14  C   UNL     1      -1.519  14.459  24.179  0.00  0.00    +0.000 A 
ATOM     15  C   UNL     1      -1.080  13.658  23.145  0.00  0.00    +0.000 A 
ATOM     16  O   UNL     1      -0.749  15.301  24.917  0.00  0.00    +0.000 OA
ATOM     17  C   UNL     1      -1.737  15.877  25.797  0.00  0.00    +0.000 C 
ATOM     18  O   UNL     1      -3.062  15.342  25.594  0.00  0.00    +0.000 OA
ENDBRANCH   5  10
BRANCH   1  20
ATOM     19  O   UNL     1       2.509   8.806  17.105  0.00  0.00    +0.000 OA
ATOM     20  C   UNL     1       2.048   8.557  18.215  0.00  0.00    +0.000 C 
ATOM     21  N   UNL     1       2.406   7.440  18.937  0.00  0.00    +0.000 N 
ATOM     22  H   UNL     1       1.859   7.229  19.765  0.00  0.00    +0.000 HD
BRANCH  21  23
ATOM     23  C   UNL     1       3.244   6.433  18.337  0.00  0.00    +0.000 C 
BRANCH  23  24
ATOM     24  C   UNL     1       2.597   5.105  18.433  0.00  0.00    +0.000 A 
ATOM     25  C   UNL     1       1.530   4.527  17.775  0.00  0.00    +0.000 A 
ATOM     26  C   UNL     1       1.333   3.258  18.369  0.00  0.00    +0.000 A 
ATOM     27  C   UNL     1       2.296   3.138  19.342  0.00  0.00    +0.000 A 
ATOM     28  O   UNL     1       3.072   4.252  19.385  0.00  0.00    +0.000 OA
ENDBRANCH  23  24
ENDBRANCH  21  23
ENDBRANCH   1  20
BRANCH   7  29
ATOM     29  C   UNL     1      -2.696  11.216  17.777  0.00  0.00    +0.000 C 
ATOM     30  F   UNL     1      -3.025   9.978  17.343  0.00  0.00    +0.000 F 
ATOM     31  F   UNL     1      -3.865  11.907  17.883  0.00  0.00    +0.000 F 
ATOM     32  F   UNL     1      -2.009  11.811  16.763  0.00  0.00    +0.000 F 
ENDBRANCH   7  29
TORSDOF 5
ENDMDL
MODEL 9
REMARK VINA RESULT:      -8.0      1.710      2.426
REMARK  Name = 
REMARK  5 active torsions:
REMARK  status: ('A' for Active; 'I' for Inactive)
REMARK    1  A    between atoms: C_2  and  C_10
REMARK    2  A    between atoms: N_3  and  C_4
REMARK    3  A    between atoms: C_4  and  C_5
REMARK    4  A    between atoms: C_14  and  C_15
REMARK    5  A    between atoms: C_25  and  C_26
REMARK                            x       y       z     vdW  Elec       q    Type
REMARK                         _______ _______ _______ _____ _____    ______ ____
ROOT
ATOM      1  C   UNL     1       4.338   4.867  17.870  0.00  0.00    +0.000 A 
ATOM      2  C   UNL     1       4.155   6.253  18.054  0.00  0.00    +0.000 A 
ATOM      3  C   UNL     1       3.125   6.380  18.951  0.00  0.00    +0.000 A 
ATOM      4  N   UNL     1       2.516   7.493  19.450  0.00  0.00    +0.000 NA
ATOM      5  C   UNL     1       1.585   7.312  20.342  0.00  0.00    +0.000 A 
ATOM      6  C   UNL     1       1.164   5.962  20.836  0.00  0.00    +0.000 A 
ATOM      7  C   UNL     1       1.777   4.891  20.288  0.00  0.00    +0.000 A 
ATOM      8  N   UNL     1       2.760   5.080  19.322  0.00  0.00    +0.000 N 
ATOM      9  N   UNL     1       3.477   4.157  18.622  0.00  0.00    +0.000 NA
ENDROOT
BRANCH   5  10
ATOM     10  C   UNL     1       0.858   8.500  20.881  0.00  0.00    +0.000 A 
ATOM     11  C   UNL     1       0.386   8.554  22.212  0.00  0.00    +0.000 A 
ATOM     12  C   UNL     1      -0.316   9.673  22.676  0.00  0.00    +0.000 A 
ATOM     13  C   UNL     1      -0.527  10.715  21.794  0.00  0.00    +0.000 A 
ATOM     14  C   UNL     1      -0.054  10.675  20.506  0.00  0.00    +0.000 A 
ATOM     15  C   UNL     1       0.647   9.591  20.021  0.00  0.00    +0.000 A 
ATOM     16  O   UNL     1      -0.366  11.799  19.807  0.00  0.00    +0.000 OA
ATOM     17  C   UNL     1      -1.111  12.539  20.797  0.00  0.00    +0.000 C 
ATOM     18  O   UNL     1      -1.194  11.865  22.071  0.00  0.00    +0.000 OA
ENDBRANCH   5  10
BRANCH   1  20
ATOM     19  O   UNL     1       5.249   3.081  16.623  0.00  0.00    +0.000 OA
ATOM     20  C   UNL     1       5.330   4.256  16.972  0.00  0.00    +0.000 C 
ATOM     21  N   UNL     1       6.356   5.082  16.573  0.00  0.00    +0.000 N 
ATOM     22  H   UNL     1       6.432   5.983  17.036  0.00  0.00    +0.000 HD
BRANCH  21  23
ATOM     23  C   UNL     1       7.470   4.543  15.835  0.00  0.00    +0.000 C 
BRANCH  23  24
ATOM     24  C   UNL     1       7.195   4.595  14.381  0.00  0.00    +0.000 A 
ATOM     25  C   UNL     1       6.367   3.865  13.552  0.00  0.00    +0.000 A 
ATOM     26  C   UNL     1       6.608   4.328  12.237  0.00  0.00    +0.000 A 
ATOM     27  C   UNL     1       7.558   5.317  12.348  0.00  0.00    +0.000 A 
ATOM     28  O   UNL     1       7.916   5.490  13.646  0.00  0.00    +0.000 OA
ENDBRANCH  23  24
ENDBRANCH  21  23
ENDBRANCH   1  20
BRANCH   7  29
ATOM     29  C   UNL     1       1.422   3.513  20.706  0.00  0.00    +0.000 C 
ATOM     30  F   UNL     1       1.080   3.340  22.003  0.00  0.00    +0.000 F 
ATOM     31  F   UNL     1       0.377   3.046  19.969  0.00  0.00    +0.000 F 
ATOM     32  F   UNL     1       2.453   2.657  20.462  0.00  0.00    +0.000 F 
ENDBRANCH   7  29
TORSDOF 5
ENDMDL
