MODEL 1
REMARK VINA RESULT:      -7.6      0.000      0.000
REMARK  Name = 
REMARK  8 active torsions:
REMARK  status: ('A' for Active; 'I' for Inactive)
REMARK    1  A    between atoms: C_1  and  C_2
REMARK    2  A    between atoms: C_2  and  N_3
REMARK    3  A    between atoms: C_2  and  C_17
REMARK    4  A    between atoms: C_4  and  C_6
REMARK    5  A    between atoms: C_6  and  C_7
REMARK    6  A    between atoms: C_7  and  C_8
REMARK    7  A    between atoms: C_8  and  O_9
REMARK    8  A    between atoms: O_9  and  C_10
REMARK                            x       y       z     vdW  Elec       q    Type
REMARK                         _______ _______ _______ _____ _____    ______ ____
ROOT
ATOM      1  N   UNL     1       4.883   6.279  17.680  0.00  0.00    +0.000 N 
ATOM      2  C   UNL     1       5.687   6.448  16.571  0.00  0.00    +0.000 C 
ATOM      3  O   UNL     1       5.241   6.729  15.463  0.00  0.00    +0.000 OA
ATOM      4  H   UNL     1       5.290   6.055  18.577  0.00  0.00    +0.000 HD
ENDROOT
BRANCH   1   6
ATOM      5  C   UNL     1       3.061   7.931  17.928  0.00  0.00    +0.000 C 
ATOM      6  C   UNL     1       3.445   6.485  17.591  0.00  0.00    +0.000 C 
BRANCH   6   7
ATOM      7  C   UNL     1       2.676   5.501  18.456  0.00  0.00    +0.000 A 
ATOM      8  C   UNL     1       2.037   4.405  17.853  0.00  0.00    +0.000 A 
ATOM      9  C   UNL     1       1.230   3.547  18.600  0.00  0.00    +0.000 A 
ATOM     10  C   UNL     1       1.058   3.763  19.965  0.00  0.00    +0.000 A 
ATOM     11  C   UNL     1       1.712   4.825  20.587  0.00  0.00    +0.000 A 
ATOM     12  C   UNL     1       2.523   5.685  19.841  0.00  0.00    +0.000 A 
ENDBRANCH   6   7
ENDBRANCH   1   6
BRANCH   2  13
ATOM     13  C   UNL     1       7.172   6.284  16.847  0.00  0.00    +0.000 C 
BRANCH  13  14
ATOM     14  C   UNL     1       7.596   7.071  18.089  0.00  0.00    +0.000 C 
BRANCH  14  15
ATOM     15  C   UNL     1       7.990   8.511  17.773  0.00  0.00    +0.000 C 
BRANCH  15  16
ATOM     16  O   UNL     1       8.751   9.006  18.880  0.00  0.00    +0.000 OA
BRANCH  16  17
ATOM     17  C   UNL     1       9.174  10.305  18.828  0.00  0.00    +0.000 A 
ATOM     18  C   UNL     1      10.145  10.885  19.645  0.00  0.00    +0.000 A 
ATOM     19  C   UNL     1      10.486  12.233  19.481  0.00  0.00    +0.000 A 
ATOM     20  C   UNL     1       9.856  12.999  18.502  0.00  0.00    +0.000 A 
ATOM     21 CL   UNL     1      10.286  14.653  18.302  0.00  0.00    +0.000 Cl
ATOM     22  C   UNL     1       8.880  12.430  17.686  0.00  0.00    +0.000 A 
ATOM     23  C   UNL     1       8.544  11.084  17.852  0.00  0.00    +0.000 A 
ENDBRANCH  16  17
ENDBRANCH  15  16
ENDBRANCH  14  15
ENDBRANCH  13  14
ENDBRANCH   2  13
TORSDOF 7
ENDMDL
MODEL 2
REMARK VINA RESULT:      -7.5      1.782      2.174
REMARK  Name = 
REMARK  8 active torsions:
REMARK  status: ('A' for Active; 'I' for Inactive)
REMARK    1  A    between atoms: C_1  and  C_2
REMARK    2  A    between atoms: C_2  and  N_3
REMARK    3  A    between atoms: C_2  and  C_17
REMARK    4  A    between atoms: C_4  and  C_6
REMARK    5  A    between atoms: C_6  and  C_7
REMARK    6  A    between atoms: C_7  and  C_8
REMARK    7  A    between atoms: C_8  and  O_9
REMARK    8  A    between atoms: O_9  and  C_10
REMARK                            x       y       z     vdW  Elec       q    Type
REMARK                         _______ _______ _______ _____ _____    ______ ____
ROOT
ATOM      1  N   UNL     1       5.848   5.375  18.476  0.00  0.00    +0.000 N 
ATOM      2  C   UNL     1       7.224   5.337  18.394  0.00  0.00    +0.000 C 
ATOM      3  O   UNL     1       7.850   4.302  18.186  0.00  0.00    +0.000 OA
ATOM      4  H   UNL     1       5.369   6.249  18.640  0.00  0.00    +0.000 HD
ENDROOT
BRANCH   1   6
ATOM      5  C   UNL     1       4.744   3.962  16.774  0.00  0.00    +0.000 C 
ATOM      6  C   UNL     1       5.059   4.170  18.261  0.00  0.00    +0.000 C 
BRANCH   6   7
ATOM      7  C   UNL     1       3.788   4.167  19.093  0.00  0.00    +0.000 A 
ATOM      8  C   UNL     1       2.991   3.011  19.128  0.00  0.00    +0.000 A 
ATOM      9  C   UNL     1       1.762   3.010  19.789  0.00  0.00    +0.000 A 
ATOM     10  C   UNL     1       1.317   4.160  20.436  0.00  0.00    +0.000 A 
ATOM     11  C   UNL     1       2.111   5.305  20.441  0.00  0.00    +0.000 A 
ATOM     12  C   UNL     1       3.343   5.308  19.781  0.00  0.00    +0.000 A 
ENDBRANCH   6   7
ENDBRANCH   1   6
BRANCH   2  13
ATOM     13  C   UNL     1       7.896   6.690  18.555  0.00  0.00    +0.000 C 
BRANCH  13  14
ATOM     14  C   UNL     1       7.237   7.746  17.666  0.00  0.00    +0.000 C 
BRANCH  14  15
ATOM     15  C   UNL     1       8.045   9.038  17.579  0.00  0.00    +0.000 C 
BRANCH  15  16
ATOM     16  O   UNL     1       8.718   9.215  18.830  0.00  0.00    +0.000 OA
BRANCH  16  17
ATOM     17  C   UNL     1       9.366  10.400  19.039  0.00  0.00    +0.000 A 
ATOM     18  C   UNL     1       9.877  11.242  18.050  0.00  0.00    +0.000 A 
ATOM     19  C   UNL     1      10.519  12.434  18.405  0.00  0.00    +0.000 A 
ATOM     20  C   UNL     1      10.651  12.782  19.749  0.00  0.00    +0.000 A 
ATOM     21 CL   UNL     1      11.436  14.252  20.178  0.00  0.00    +0.000 Cl
ATOM     22  C   UNL     1      10.151  11.944  20.743  0.00  0.00    +0.000 A 
ATOM     23  C   UNL     1       9.510  10.756  20.383  0.00  0.00    +0.000 A 
ENDBRANCH  16  17
ENDBRANCH  15  16
ENDBRANCH  14  15
ENDBRANCH  13  14
ENDBRANCH   2  13
TORSDOF 7
ENDMDL
MODEL 3
REMARK VINA RESULT:      -7.5      5.030      6.539
REMARK  Name = 
REMARK  8 active torsions:
REMARK  status: ('A' for Active; 'I' for Inactive)
REMARK    1  A    between atoms: C_1  and  C_2
REMARK    2  A    between atoms: C_2  and  N_3
REMARK    3  A    between atoms: C_2  and  C_17
REMARK    4  A    between atoms: C_4  and  C_6
REMARK    5  A    between atoms: C_6  and  C_7
REMARK    6  A    between atoms: C_7  and  C_8
REMARK    7  A    between atoms: C_8  and  O_9
REMARK    8  A    between atoms: O_9  and  C_10
REMARK                            x       y       z     vdW  Elec       q    Type
REMARK                         _______ _______ _______ _____ _____    ______ ____
ROOT
ATOM      1  N   UNL     1       2.474   5.516  18.890  0.00  0.00    +0.000 N 
ATOM      2  C   UNL     1       1.789   4.406  18.440  0.00  0.00    +0.000 C 
ATOM      3  O   UNL     1       1.170   4.390  17.381  0.00  0.00    +0.000 OA
ATOM      4  H   UNL     1       2.978   5.486  19.764  0.00  0.00    +0.000 HD
ENDROOT
BRANCH   1   6
ATOM      5  C   UNL     1       3.969   7.010  17.608  0.00  0.00    +0.000 C 
ATOM      6  C   UNL     1       2.539   6.725  18.082  0.00  0.00    +0.000 C 
BRANCH   6   7
ATOM      7  C   UNL     1       1.955   7.925  18.807  0.00  0.00    +0.000 A 
ATOM      8  C   UNL     1       1.720   7.847  20.190  0.00  0.00    +0.000 A 
ATOM      9  C   UNL     1       1.082   8.887  20.867  0.00  0.00    +0.000 A 
ATOM     10  C   UNL     1       0.680  10.026  20.175  0.00  0.00    +0.000 A 
ATOM     11  C   UNL     1       0.936  10.135  18.809  0.00  0.00    +0.000 A 
ATOM     12  C   UNL     1       1.577   9.096  18.130  0.00  0.00    +0.000 A 
ENDBRANCH   6   7
ENDBRANCH   1   6
BRANCH   2  13
ATOM     13  C   UNL     1       1.890   3.198  19.356  0.00  0.00    +0.000 C 
BRANCH  13  14
ATOM     14  C   UNL     1       3.119   3.289  20.262  0.00  0.00    +0.000 C 
BRANCH  14  15
ATOM     15  C   UNL     1       4.376   2.711  19.618  0.00  0.00    +0.000 C 
BRANCH  15  16
ATOM     16  O   UNL     1       5.269   3.798  19.355  0.00  0.00    +0.000 OA
BRANCH  16  17
ATOM     17  C   UNL     1       5.634   4.019  18.057  0.00  0.00    +0.000 A 
ATOM     18  C   UNL     1       4.911   3.640  16.925  0.00  0.00    +0.000 A 
ATOM     19  C   UNL     1       5.402   3.933  15.647  0.00  0.00    +0.000 A 
ATOM     20  C   UNL     1       6.616   4.603  15.503  0.00  0.00    +0.000 A 
ATOM     21 CL   UNL     1       7.210   4.966  13.929  0.00  0.00    +0.000 Cl
ATOM     22  C   UNL     1       7.348   4.979  16.627  0.00  0.00    +0.000 A 
ATOM     23  C   UNL     1       6.853   4.685  17.899  0.00  0.00    +0.000 A 
ENDBRANCH  16  17
ENDBRANCH  15  16
ENDBRANCH  14  15
ENDBRANCH  13  14
ENDBRANCH   2  13
TORSDOF 7
ENDMDL
MODEL 4
REMARK VINA RESULT:      -7.3      4.464      7.636
REMARK  Name = 
REMARK  8 active torsions:
REMARK  status: ('A' for Active; 'I' for Inactive)
REMARK    1  A    between atoms: C_1  and  C_2
REMARK    2  A    between atoms: C_2  and  N_3
REMARK    3  A    between atoms: C_2  and  C_17
REMARK    4  A    between atoms: C_4  and  C_6
REMARK    5  A    between atoms: C_6  and  C_7
REMARK    6  A    between atoms: C_7  and  C_8
REMARK    7  A    between atoms: C_8  and  O_9
REMARK    8  A    between atoms: O_9  and  C_10
REMARK                            x       y       z     vdW  Elec       q    Type
REMARK                         _______ _______ _______ _____ _____    ______ ____
ROOT
ATOM      1  N   UNL     1       6.534   5.485  16.249  0.00  0.00    +0.000 N 
ATOM      2  C   UNL     1       6.320   6.684  16.895  0.00  0.00    +0.000 C 
ATOM      3  O   UNL     1       5.271   7.313  16.800  0.00  0.00    +0.000 OA
ATOM      4  H   UNL     1       7.410   4.993  16.360  0.00  0.00    +0.000 HD
ENDROOT
BRANCH   1   6
ATOM      5  C   UNL     1       4.872   3.657  16.163  0.00  0.00    +0.000 C 
ATOM      6  C   UNL     1       5.481   4.873  15.453  0.00  0.00    +0.000 C 
BRANCH   6   7
ATOM      7  C   UNL     1       5.962   4.506  14.060  0.00  0.00    +0.000 A 
ATOM      8  C   UNL     1       5.220   3.592  13.293  0.00  0.00    +0.000 A 
ATOM      9  C   UNL     1       5.692   3.147  12.057  0.00  0.00    +0.000 A 
ATOM     10  C   UNL     1       6.905   3.618  11.562  0.00  0.00    +0.000 A 
ATOM     11  C   UNL     1       7.636   4.552  12.294  0.00  0.00    +0.000 A 
ATOM     12  C   UNL     1       7.165   5.001  13.531  0.00  0.00    +0.000 A 
ENDBRANCH   6   7
ENDBRANCH   1   6
BRANCH   2  13
ATOM     13  C   UNL     1       7.484   7.145  17.756  0.00  0.00    +0.000 C 
BRANCH  13  14
ATOM     14  C   UNL     1       7.992   6.016  18.654  0.00  0.00    +0.000 C 
BRANCH  14  15
ATOM     15  C   UNL     1       6.956   5.558  19.676  0.00  0.00    +0.000 C 
BRANCH  15  16
ATOM     16  O   UNL     1       6.377   4.342  19.194  0.00  0.00    +0.000 OA
BRANCH  16  17
ATOM     17  C   UNL     1       5.054   4.120  19.459  0.00  0.00    +0.000 A 
ATOM     18  C   UNL     1       4.457   2.878  19.673  0.00  0.00    +0.000 A 
ATOM     19  C   UNL     1       3.085   2.794  19.939  0.00  0.00    +0.000 A 
ATOM     20  C   UNL     1       2.312   3.954  19.991  0.00  0.00    +0.000 A 
ATOM     21 CL   UNL     1       0.628   3.844  20.326  0.00  0.00    +0.000 Cl
ATOM     22  C   UNL     1       2.899   5.198  19.773  0.00  0.00    +0.000 A 
ATOM     23  C   UNL     1       4.269   5.276  19.509  0.00  0.00    +0.000 A 
ENDBRANCH  16  17
ENDBRANCH  15  16
ENDBRANCH  14  15
ENDBRANCH  13  14
ENDBRANCH   2  13
TORSDOF 7
ENDMDL
MODEL 5
REMARK VINA RESULT:      -7.2      4.869      6.331
REMARK  Name = 
REMARK  8 active torsions:
REMARK  status: ('A' for Active; 'I' for Inactive)
REMARK    1  A    between atoms: C_1  and  C_2
REMARK    2  A    between atoms: C_2  and  N_3
REMARK    3  A    between atoms: C_2  and  C_17
REMARK    4  A    between atoms: C_4  and  C_6
REMARK    5  A    between atoms: C_6  and  C_7
REMARK    6  A    between atoms: C_7  and  C_8
REMARK    7  A    between atoms: C_8  and  O_9
REMARK    8  A    between atoms: O_9  and  C_10
REMARK                            x       y       z     vdW  Elec       q    Type
REMARK                         _______ _______ _______ _____ _____    ______ ____
ROOT
ATOM      1  N   UNL     1       4.470   5.867  19.223  0.00  0.00    +0.000 N 
ATOM      2  C   UNL     1       5.296   4.860  18.770  0.00  0.00    +0.000 C 
ATOM      3  O   UNL     1       4.888   3.912  18.106  0.00  0.00    +0.000 OA
ATOM      4  H   UNL     1       4.847   6.635  19.760  0.00  0.00    +0.000 HD
ENDROOT
BRANCH   1   6
ATOM      5  C   UNL     1       2.427   7.254  19.125  0.00  0.00    +0.000 C 
ATOM      6  C   UNL     1       3.056   5.877  18.879  0.00  0.00    +0.000 C 
BRANCH   6   7
ATOM      7  C   UNL     1       2.286   4.788  19.605  0.00  0.00    +0.000 A 
ATOM      8  C   UNL     1       2.457   4.631  20.991  0.00  0.00    +0.000 A 
ATOM      9  C   UNL     1       1.854   3.571  21.670  0.00  0.00    +0.000 A 
ATOM     10  C   UNL     1       1.061   2.660  20.978  0.00  0.00    +0.000 A 
ATOM     11  C   UNL     1       0.853   2.821  19.609  0.00  0.00    +0.000 A 
ATOM     12  C   UNL     1       1.454   3.882  18.927  0.00  0.00    +0.000 A 
ENDBRANCH   6   7
ENDBRANCH   1   6
BRANCH   2  13
ATOM     13  C   UNL     1       6.759   5.039  19.140  0.00  0.00    +0.000 C 
BRANCH  13  14
ATOM     14  C   UNL     1       7.614   5.321  17.904  0.00  0.00    +0.000 C 
BRANCH  14  15
ATOM     15  C   UNL     1       6.904   6.198  16.877  0.00  0.00    +0.000 C 
BRANCH  15  16
ATOM     16  O   UNL     1       7.543   5.993  15.613  0.00  0.00    +0.000 OA
BRANCH  16  17
ATOM     17  C   UNL     1       6.926   5.167  14.716  0.00  0.00    +0.000 A 
ATOM     18  C   UNL     1       5.666   4.587  14.867  0.00  0.00    +0.000 A 
ATOM     19  C   UNL     1       5.149   3.758  13.864  0.00  0.00    +0.000 A 
ATOM     20  C   UNL     1       5.895   3.509  12.712  0.00  0.00    +0.000 A 
ATOM     21 CL   UNL     1       5.250   2.494  11.480  0.00  0.00    +0.000 Cl
ATOM     22  C   UNL     1       7.157   4.077  12.556  0.00  0.00    +0.000 A 
ATOM     23  C   UNL     1       7.667   4.905  13.559  0.00  0.00    +0.000 A 
ENDBRANCH  16  17
ENDBRANCH  15  16
ENDBRANCH  14  15
ENDBRANCH  13  14
ENDBRANCH   2  13
TORSDOF 7
ENDMDL
MODEL 6
REMARK VINA RESULT:      -7.2      1.665      2.671
REMARK  Name = 
REMARK  8 active torsions:
REMARK  status: ('A' for Active; 'I' for Inactive)
REMARK    1  A    between atoms: C_1  and  C_2
REMARK    2  A    between atoms: C_2  and  N_3
REMARK    3  A    between atoms: C_2  and  C_17
REMARK    4  A    between atoms: C_4  and  C_6
REMARK    5  A    between atoms: C_6  and  C_7
REMARK    6  A    between atoms: C_7  and  C_8
REMARK    7  A    between atoms: C_8  and  O_9
REMARK    8  A    between atoms: O_9  and  C_10
REMARK                            x       y       z     vdW  Elec       q    Type
REMARK                         _______ _______ _______ _____ _____    ______ ____
ROOT
ATOM      1  N   UNL     1       6.437   6.130  17.248  0.00  0.00    +0.000 N 
ATOM      2  C   UNL     1       7.502   5.853  18.080  0.00  0.00    +0.000 C 
ATOM      3  O   UNL     1       7.895   4.712  18.302  0.00  0.00    +0.000 OA
ATOM      4  H   UNL     1       6.150   7.084  17.085  0.00  0.00    +0.000 HD
ENDROOT
BRANCH   1   6
ATOM      5  C   UNL     1       5.783   5.279  15.021  0.00  0.00    +0.000 C 
ATOM      6  C   UNL     1       5.753   5.058  16.539  0.00  0.00    +0.000 C 
BRANCH   6   7
ATOM      7  C   UNL     1       4.330   4.868  17.034  0.00  0.00    +0.000 A 
ATOM      8  C   UNL     1       3.659   5.946  17.634  0.00  0.00    +0.000 A 
ATOM      9  C   UNL     1       2.395   5.776  18.201  0.00  0.00    +0.000 A 
ATOM     10  C   UNL     1       1.777   4.529  18.165  0.00  0.00    +0.000 A 
ATOM     11  C   UNL     1       2.413   3.457  17.543  0.00  0.00    +0.000 A 
ATOM     12  C   UNL     1       3.678   3.625  16.973  0.00  0.00    +0.000 A 
ENDBRANCH   6   7
ENDBRANCH   1   6
BRANCH   2  13
ATOM     13  C   UNL     1       8.164   7.085  18.675  0.00  0.00    +0.000 C 
BRANCH  13  14
ATOM     14  C   UNL     1       8.053   8.285  17.733  0.00  0.00    +0.000 C 
BRANCH  14  15
ATOM     15  C   UNL     1       8.361   9.611  18.423  0.00  0.00    +0.000 C 
BRANCH  15  16
ATOM     16  O   UNL     1       9.377  10.272  17.661  0.00  0.00    +0.000 OA
BRANCH  16  17
ATOM     17  C   UNL     1       9.866  11.452  18.146  0.00  0.00    +0.000 A 
ATOM     18  C   UNL     1       9.536  12.728  17.687  0.00  0.00    +0.000 A 
ATOM     19  C   UNL     1      10.111  13.859  18.279  0.00  0.00    +0.000 A 
ATOM     20  C   UNL     1      11.017  13.712  19.328  0.00  0.00    +0.000 A 
ATOM     21 CL   UNL     1      11.716  15.107  20.056  0.00  0.00    +0.000 Cl
ATOM     22  C   UNL     1      11.358  12.442  19.789  0.00  0.00    +0.000 A 
ATOM     23  C   UNL     1      10.780  11.318  19.196  0.00  0.00    +0.000 A 
ENDBRANCH  16  17
ENDBRANCH  15  16
ENDBRANCH  14  15
ENDBRANCH  13  14
ENDBRANCH   2  13
TORSDOF 7
ENDMDL
MODEL 7
REMARK VINA RESULT:      -7.2      1.721      2.439
REMARK  Name = 
REMARK  8 active torsions:
REMARK  status: ('A' for Active; 'I' for Inactive)
REMARK    1  A    between atoms: C_1  and  C_2
REMARK    2  A    between atoms: C_2  and  N_3
REMARK    3  A    between atoms: C_2  and  C_17
REMARK    4  A    between atoms: C_4  and  C_6
REMARK    5  A    between atoms: C_6  and  C_7
REMARK    6  A    between atoms: C_7  and  C_8
REMARK    7  A    between atoms: C_8  and  O_9
REMARK    8  A    between atoms: O_9  and  C_10
REMARK                            x       y       z     vdW  Elec       q    Type
REMARK                         _______ _______ _______ _____ _____    ______ ____
ROOT
ATOM      1  N   UNL     1       6.403   6.137  17.306  0.00  0.00    +0.000 N 
ATOM      2  C   UNL     1       7.473   5.760  18.090  0.00  0.00    +0.000 C 
ATOM      3  O   UNL     1       7.828   4.592  18.214  0.00  0.00    +0.000 OA
ATOM      4  H   UNL     1       6.147   7.111  17.223  0.00  0.00    +0.000 HD
ENDROOT
BRANCH   1   6
ATOM      5  C   UNL     1       5.545   5.562  15.060  0.00  0.00    +0.000 C 
ATOM      6  C   UNL     1       5.665   5.149  16.532  0.00  0.00    +0.000 C 
BRANCH   6   7
ATOM      7  C   UNL     1       4.300   4.862  17.131  0.00  0.00    +0.000 A 
ATOM      8  C   UNL     1       3.755   3.572  17.018  0.00  0.00    +0.000 A 
ATOM      9  C   UNL     1       2.458   3.302  17.456  0.00  0.00    +0.000 A 
ATOM     10  C   UNL     1       1.689   4.314  18.025  0.00  0.00    +0.000 A 
ATOM     11  C   UNL     1       2.226   5.592  18.177  0.00  0.00    +0.000 A 
ATOM     12  C   UNL     1       3.526   5.863  17.741  0.00  0.00    +0.000 A 
ENDBRANCH   6   7
ENDBRANCH   1   6
BRANCH   2  13
ATOM     13  C   UNL     1       8.191   6.918  18.763  0.00  0.00    +0.000 C 
BRANCH  13  14
ATOM     14  C   UNL     1       8.079   8.198  17.934  0.00  0.00    +0.000 C 
BRANCH  14  15
ATOM     15  C   UNL     1       8.662   9.418  18.643  0.00  0.00    +0.000 C 
BRANCH  15  16
ATOM     16  O   UNL     1       8.913  10.419  17.651  0.00  0.00    +0.000 OA
BRANCH  16  17
ATOM     17  C   UNL     1       9.617  11.526  18.032  0.00  0.00    +0.000 A 
ATOM     18  C   UNL     1       9.074  12.757  18.405  0.00  0.00    +0.000 A 
ATOM     19  C   UNL     1       9.914  13.812  18.778  0.00  0.00    +0.000 A 
ATOM     20  C   UNL     1      11.297  13.636  18.777  0.00  0.00    +0.000 A 
ATOM     21 CL   UNL     1      12.324  14.936  19.244  0.00  0.00    +0.000 Cl
ATOM     22  C   UNL     1      11.849  12.414  18.401  0.00  0.00    +0.000 A 
ATOM     23  C   UNL     1      11.006  11.364  18.031  0.00  0.00    +0.000 A 
ENDBRANCH  16  17
ENDBRANCH  15  16
ENDBRANCH  14  15
ENDBRANCH  13  14
ENDBRANCH   2  13
TORSDOF 7
ENDMDL
MODEL 8
REMARK VINA RESULT:      -7.1      5.023      6.963
REMARK  Name = 
REMARK  8 active torsions:
REMARK  status: ('A' for Active; 'I' for Inactive)
REMARK    1  A    between atoms: C_1  and  C_2
REMARK    2  A    between atoms: C_2  and  N_3
REMARK    3  A    between atoms: C_2  and  C_17
REMARK    4  A    between atoms: C_4  and  C_6
REMARK    5  A    between atoms: C_6  and  C_7
REMARK    6  A    between atoms: C_7  and  C_8
REMARK    7  A    between atoms: C_8  and  O_9
REMARK    8  A    between atoms: O_9  and  C_10
REMARK                            x       y       z     vdW  Elec       q    Type
REMARK                         _______ _______ _______ _____ _____    ______ ____
ROOT
ATOM      1  N   UNL     1       4.067   3.984  18.590  0.00  0.00    +0.000 N 
ATOM      2  C   UNL     1       3.618   2.877  19.280  0.00  0.00    +0.000 C 
ATOM      3  O   UNL     1       4.375   2.032  19.747  0.00  0.00    +0.000 OA
ATOM      4  H   UNL     1       3.411   4.661  18.228  0.00  0.00    +0.000 HD
ENDROOT
BRANCH   1   6
ATOM      5  C   UNL     1       5.968   5.387  19.318  0.00  0.00    +0.000 C 
ATOM      6  C   UNL     1       5.493   4.230  18.429  0.00  0.00    +0.000 C 
BRANCH   6   7
ATOM      7  C   UNL     1       5.868   4.468  16.977  0.00  0.00    +0.000 A 
ATOM      8  C   UNL     1       4.981   4.072  15.962  0.00  0.00    +0.000 A 
ATOM      9  C   UNL     1       5.342   4.171  14.618  0.00  0.00    +0.000 A 
ATOM     10  C   UNL     1       6.589   4.680  14.266  0.00  0.00    +0.000 A 
ATOM     11  C   UNL     1       7.468   5.109  15.259  0.00  0.00    +0.000 A 
ATOM     12  C   UNL     1       7.108   5.013  16.606  0.00  0.00    +0.000 A 
ENDBRANCH   6   7
ENDBRANCH   1   6
BRANCH   2  13
ATOM     13  C   UNL     1       2.108   2.810  19.437  0.00  0.00    +0.000 C 
BRANCH  13  14
ATOM     14  C   UNL     1       1.473   4.195  19.298  0.00  0.00    +0.000 C 
BRANCH  14  15
ATOM     15  C   UNL     1       1.703   5.078  20.521  0.00  0.00    +0.000 C 
BRANCH  15  16
ATOM     16  O   UNL     1       2.602   6.124  20.139  0.00  0.00    +0.000 OA
BRANCH  16  17
ATOM     17  C   UNL     1       2.071   7.359  19.893  0.00  0.00    +0.000 A 
ATOM     18  C   UNL     1       1.339   8.133  20.795  0.00  0.00    +0.000 A 
ATOM     19  C   UNL     1       0.852   9.388  20.411  0.00  0.00    +0.000 A 
ATOM     20  C   UNL     1       1.097   9.868  19.125  0.00  0.00    +0.000 A 
ATOM     21 CL   UNL     1       0.502  11.415  18.663  0.00  0.00    +0.000 Cl
ATOM     22  C   UNL     1       1.821   9.100  18.216  0.00  0.00    +0.000 A 
ATOM     23  C   UNL     1       2.305   7.849  18.604  0.00  0.00    +0.000 A 
ENDBRANCH  16  17
ENDBRANCH  15  16
ENDBRANCH  14  15
ENDBRANCH  13  14
ENDBRANCH   2  13
TORSDOF 7
ENDMDL
MODEL 9
REMARK VINA RESULT:      -7.1      1.758      2.959
REMARK  Name = 
REMARK  8 active torsions:
REMARK  status: ('A' for Active; 'I' for Inactive)
REMARK    1  A    between atoms: C_1  and  C_2
REMARK    2  A    between atoms: C_2  and  N_3
REMARK    3  A    between atoms: C_2  and  C_17
REMARK    4  A    between atoms: C_4  and  C_6
REMARK    5  A    between atoms: C_6  and  C_7
REMARK    6  A    between atoms: C_7  and  C_8
REMARK    7  A    between atoms: C_8  and  O_9
REMARK    8  A    between atoms: O_9  and  C_10
REMARK                            x       y       z     vdW  Elec       q    Type
REMARK                         _______ _______ _______ _____ _____    ______ ____
ROOT
ATOM      1  N   UNL     1       6.725   7.105  16.832  0.00  0.00    +0.000 N 
ATOM      2  C   UNL     1       7.605   7.482  17.825  0.00  0.00    +0.000 C 
ATOM      3  O   UNL     1       7.978   6.717  18.709  0.00  0.00    +0.000 OA
ATOM      4  H   UNL     1       6.448   7.762  16.117  0.00  0.00    +0.000 HD
ENDROOT
BRANCH   1   6
ATOM      5  C   UNL     1       6.254   5.208  15.318  0.00  0.00    +0.000 C 
ATOM      6  C   UNL     1       6.233   5.736  16.758  0.00  0.00    +0.000 C 
BRANCH   6   7
ATOM      7  C   UNL     1       4.850   5.595  17.370  0.00  0.00    +0.000 A 
ATOM      8  C   UNL     1       4.390   4.323  17.746  0.00  0.00    +0.000 A 
ATOM      9  C   UNL     1       3.085   4.141  18.205  0.00  0.00    +0.000 A 
ATOM     10  C   UNL     1       2.224   5.231  18.309  0.00  0.00    +0.000 A 
ATOM     11  C   UNL     1       2.675   6.506  17.973  0.00  0.00    +0.000 A 
ATOM     12  C   UNL     1       3.982   6.690  17.515  0.00  0.00    +0.000 A 
ENDBRANCH   6   7
ENDBRANCH   1   6
BRANCH   2  13
ATOM     13  C   UNL     1       8.092   8.916  17.714  0.00  0.00    +0.000 C 
BRANCH  13  14
ATOM     14  C   UNL     1       8.982   9.295  18.899  0.00  0.00    +0.000 C 
BRANCH  14  15
ATOM     15  C   UNL     1       9.239  10.796  18.994  0.00  0.00    +0.000 C 
BRANCH  15  16
ATOM     16  O   UNL     1      10.342  11.104  18.135  0.00  0.00    +0.000 OA
BRANCH  16  17
ATOM     17  C   UNL     1      10.567  12.419  17.838  0.00  0.00    +0.000 A 
ATOM     18  C   UNL     1      11.711  12.940  17.233  0.00  0.00    +0.000 A 
ATOM     19  C   UNL     1      11.810  14.313  16.983  0.00  0.00    +0.000 A 
ATOM     20  C   UNL     1      10.764  15.165  17.337  0.00  0.00    +0.000 A 
ATOM     21 CL   UNL     1      10.890  16.851  17.019  0.00  0.00    +0.000 Cl
ATOM     22  C   UNL     1       9.621  14.654  17.947  0.00  0.00    +0.000 A 
ATOM     23  C   UNL     1       9.527  13.283  18.194  0.00  0.00    +0.000 A 
ENDBRANCH  16  17
ENDBRANCH  15  16
ENDBRANCH  14  15
ENDBRANCH  13  14
ENDBRANCH   2  13
TORSDOF 7
ENDMDL
