MODEL 1
REMARK VINA RESULT:      -6.0      0.000      0.000
REMARK  Name = 
REMARK  6 active torsions:
REMARK  status: ('A' for Active; 'I' for Inactive)
REMARK    1  A    between atoms: C_2  and  C_3
REMARK    2  A    between atoms: C_4  and  N_5
REMARK    3  A    between atoms: N_9  and  C_10
REMARK    4  A    between atoms: C_10  and  C_11
REMARK    5  A    between atoms: C_19  and  N_20
REMARK    6  A    between atoms: C_23  and  C_24
REMARK                            x       y       z     vdW  Elec       q    Type
REMARK                         _______ _______ _______ _____ _____    ______ ____
ROOT
ATOM      1  C   UNL     1      -1.967  12.582  20.667  0.00  0.00    +0.000 C 
ATOM      2  C   UNL     1      -2.093  12.221  19.366  0.00  0.00    +0.000 C 
ATOM      3  N   UNL     1      -3.375  11.990  18.863  0.00  0.00    +0.000 N 
ATOM      4  C   UNL     1      -3.660  11.497  17.509  0.00  0.00    +0.000 C 
ATOM      5  C   UNL     1      -5.198  11.413  17.460  0.00  0.00    +0.000 C 
ATOM      6  N   UNL     1      -5.643  12.124  18.674  0.00  0.00    +0.000 N 
ATOM      7  C   UNL     1      -4.570  12.322  19.537  0.00  0.00    +0.000 C 
ATOM      8  C   UNL     1      -4.476  12.681  20.832  0.00  0.00    +0.000 C 
ATOM      9  C   UNL     1      -3.177  12.661  21.596  0.00  0.00    +0.000 C 
ENDROOT
BRANCH   9  10
ATOM     10  C   UNL     1      -3.071  13.776  22.635  0.00  0.00    +0.000 A 
ATOM     11  C   UNL     1      -3.188  13.450  23.997  0.00  0.00    +0.000 A 
ATOM     12  C   UNL     1      -3.247  14.452  24.963  0.00  0.00    +0.000 A 
ATOM     13  C   UNL     1      -3.178  15.788  24.578  0.00  0.00    +0.000 A 
ATOM     14  C   UNL     1      -3.018  16.124  23.234  0.00  0.00    +0.000 A 
ATOM     15  C   UNL     1      -2.955  15.124  22.262  0.00  0.00    +0.000 A 
ENDBRANCH   9  10
BRANCH   2  16
ATOM     16  N   UNL     1      -1.002  12.090  18.528  0.00  0.00    +0.000 N 
ATOM     17  H   UNL     1      -0.212  11.567  18.904  0.00  0.00    +0.000 HD
ATOM     18  H   UNL     1      -0.701  12.967  18.121  0.00  0.00    +0.000 HD
ENDBRANCH   2  16
BRANCH   8  19
ATOM     19  N   UNL     1      -5.645  12.939  21.627  0.00  0.00    +0.000 N 
ATOM     20  O   UNL     1      -6.058  12.001  22.326  0.00  0.00    +0.000 OA
ATOM     21  O   UNL     1      -6.100  14.087  21.634  0.00  0.00    +0.000 OA
ENDBRANCH   8  19
BRANCH   1  23
ATOM     22  N   UNL     1       0.528  13.247  21.700  0.00  0.00    +0.000 NA
ATOM     23  C   UNL     1      -0.604  12.945  21.231  0.00  0.00    +0.000 C 
ENDBRANCH   1  23
BRANCH   6  24
ATOM     24  C   UNL     1      -6.942  12.789  18.640  0.00  0.00    +0.000 C 
BRANCH  24  25
ATOM     25  C   UNL     1      -6.921  14.128  17.945  0.00  0.00    +0.000 A 
ATOM     26  C   UNL     1      -6.696  15.297  18.686  0.00  0.00    +0.000 A 
ATOM     27  C   UNL     1      -6.679  16.536  18.048  0.00  0.00    +0.000 A 
ATOM     28  C   UNL     1      -6.879  16.561  16.680  0.00  0.00    +0.000 A 
ATOM     29 CL   UNL     1      -6.871  18.040  15.813  0.00  0.00    +0.000 Cl
ATOM     30  N   UNL     1      -7.084  15.468  15.923  0.00  0.00    +0.000 NA
ATOM     31  C   UNL     1      -7.111  14.283  16.574  0.00  0.00    +0.000 A 
ENDBRANCH  24  25
ENDBRANCH   6  24
TORSDOF 6
ENDMDL
MODEL 2
REMARK VINA RESULT:      -5.9      4.892      7.464
REMARK  Name = 
REMARK  6 active torsions:
REMARK  status: ('A' for Active; 'I' for Inactive)
REMARK    1  A    between atoms: C_2  and  C_3
REMARK    2  A    between atoms: C_4  and  N_5
REMARK    3  A    between atoms: N_9  and  C_10
REMARK    4  A    between atoms: C_10  and  C_11
REMARK    5  A    between atoms: C_19  and  N_20
REMARK    6  A    between atoms: C_23  and  C_24
REMARK                            x       y       z     vdW  Elec       q    Type
REMARK                         _______ _______ _______ _____ _____    ______ ____
ROOT
ATOM      1  C   UNL     1      -3.366  12.658  19.936  0.00  0.00    +0.000 C 
ATOM      2  C   UNL     1      -3.214  11.767  18.926  0.00  0.00    +0.000 C 
ATOM      3  N   UNL     1      -1.989  11.108  18.802  0.00  0.00    +0.000 N 
ATOM      4  C   UNL     1      -1.643  10.196  17.704  0.00  0.00    +0.000 C 
ATOM      5  C   UNL     1      -0.205   9.749  18.030  0.00  0.00    +0.000 C 
ATOM      6  N   UNL     1       0.021  10.220  19.410  0.00  0.00    +0.000 N 
ATOM      7  C   UNL     1      -0.970  11.124  19.779  0.00  0.00    +0.000 C 
ATOM      8  C   UNL     1      -1.093  12.002  20.793  0.00  0.00    +0.000 C 
ATOM      9  C   UNL     1      -2.214  13.006  20.877  0.00  0.00    +0.000 C 
ENDROOT
BRANCH   9  10
ATOM     10  C   UNL     1      -2.665  13.288  22.308  0.00  0.00    +0.000 A 
ATOM     11  C   UNL     1      -3.351  12.286  23.016  0.00  0.00    +0.000 A 
ATOM     12  C   UNL     1      -3.909  12.554  24.263  0.00  0.00    +0.000 A 
ATOM     13  C   UNL     1      -3.776  13.822  24.821  0.00  0.00    +0.000 A 
ATOM     14  C   UNL     1      -3.061  14.813  24.150  0.00  0.00    +0.000 A 
ATOM     15  C   UNL     1      -2.498  14.549  22.901  0.00  0.00    +0.000 A 
ENDBRANCH   9  10
BRANCH   2  16
ATOM     16  N   UNL     1      -4.229  11.484  18.032  0.00  0.00    +0.000 N 
ATOM     17  H   UNL     1      -4.173  11.957  17.131  0.00  0.00    +0.000 HD
ATOM     18  H   UNL     1      -5.155  11.572  18.435  0.00  0.00    +0.000 HD
ENDBRANCH   2  16
BRANCH   8  19
ATOM     19  N   UNL     1      -0.060  12.161  21.779  0.00  0.00    +0.000 N 
ATOM     20  O   UNL     1      -0.068  11.359  22.725  0.00  0.00    +0.000 OA
ATOM     21  O   UNL     1       0.810  13.014  21.576  0.00  0.00    +0.000 OA
ENDBRANCH   8  19
BRANCH   1  23
ATOM     22  N   UNL     1      -5.829  13.874  20.372  0.00  0.00    +0.000 NA
ATOM     23  C   UNL     1      -4.712  13.322  20.174  0.00  0.00    +0.000 C 
ENDBRANCH   1  23
BRANCH   6  24
ATOM     24  C   UNL     1       0.947   9.464  20.247  0.00  0.00    +0.000 C 
BRANCH  24  25
ATOM     25  C   UNL     1       1.737   8.424  19.493  0.00  0.00    +0.000 A 
ATOM     26  C   UNL     1       2.355   8.758  18.279  0.00  0.00    +0.000 A 
ATOM     27  C   UNL     1       3.083   7.798  17.579  0.00  0.00    +0.000 A 
ATOM     28  C   UNL     1       3.178   6.532  18.126  0.00  0.00    +0.000 A 
ATOM     29 CL   UNL     1       4.056   5.290  17.335  0.00  0.00    +0.000 Cl
ATOM     30  N   UNL     1       2.617   6.166  19.293  0.00  0.00    +0.000 NA
ATOM     31  C   UNL     1       1.903   7.115  19.940  0.00  0.00    +0.000 A 
ENDBRANCH  24  25
ENDBRANCH   6  24
TORSDOF 6
ENDMDL
MODEL 3
REMARK VINA RESULT:      -5.9      4.847      7.439
REMARK  Name = 
REMARK  6 active torsions:
REMARK  status: ('A' for Active; 'I' for Inactive)
REMARK    1  A    between atoms: C_2  and  C_3
REMARK    2  A    between atoms: C_4  and  N_5
REMARK    3  A    between atoms: N_9  and  C_10
REMARK    4  A    between atoms: C_10  and  C_11
REMARK    5  A    between atoms: C_19  and  N_20
REMARK    6  A    between atoms: C_23  and  C_24
REMARK                            x       y       z     vdW  Elec       q    Type
REMARK                         _______ _______ _______ _____ _____    ______ ____
ROOT
ATOM      1  C   UNL     1      -3.383  12.679  19.982  0.00  0.00    +0.000 C 
ATOM      2  C   UNL     1      -3.236  11.799  18.962  0.00  0.00    +0.000 C 
ATOM      3  N   UNL     1      -2.018  11.131  18.831  0.00  0.00    +0.000 N 
ATOM      4  C   UNL     1      -1.678  10.229  17.722  0.00  0.00    +0.000 C 
ATOM      5  C   UNL     1      -0.245   9.765  18.045  0.00  0.00    +0.000 C 
ATOM      6  N   UNL     1      -0.017  10.216  19.431  0.00  0.00    +0.000 N 
ATOM      7  C   UNL     1      -1.000  11.125  19.810  0.00  0.00    +0.000 C 
ATOM      8  C   UNL     1      -1.117  11.990  20.836  0.00  0.00    +0.000 C 
ATOM      9  C   UNL     1      -2.229  13.004  20.930  0.00  0.00    +0.000 C 
ENDROOT
BRANCH   9  10
ATOM     10  C   UNL     1      -2.681  13.272  22.364  0.00  0.00    +0.000 A 
ATOM     11  C   UNL     1      -3.375  12.266  23.058  0.00  0.00    +0.000 A 
ATOM     12  C   UNL     1      -3.933  12.523  24.308  0.00  0.00    +0.000 A 
ATOM     13  C   UNL     1      -3.792  13.783  24.882  0.00  0.00    +0.000 A 
ATOM     14  C   UNL     1      -3.069  14.777  24.223  0.00  0.00    +0.000 A 
ATOM     15  C   UNL     1      -2.506  14.524  22.972  0.00  0.00    +0.000 A 
ENDBRANCH   9  10
BRANCH   2  16
ATOM     16  N   UNL     1      -4.253  11.537  18.062  0.00  0.00    +0.000 N 
ATOM     17  H   UNL     1      -4.152  10.685  17.513  0.00  0.00    +0.000 HD
ATOM     18  H   UNL     1      -4.481  12.329  17.472  0.00  0.00    +0.000 HD
ENDBRANCH   2  16
BRANCH   8  19
ATOM     19  N   UNL     1      -0.085  12.127  21.825  0.00  0.00    +0.000 N 
ATOM     20  O   UNL     1       0.704  13.074  21.677  0.00  0.00    +0.000 OA
ATOM     21  O   UNL     1      -0.103  11.362  22.794  0.00  0.00    +0.000 OA
ENDBRANCH   8  19
BRANCH   1  23
ATOM     22  N   UNL     1      -5.836  13.910  20.430  0.00  0.00    +0.000 NA
ATOM     23  C   UNL     1      -4.723  13.352  20.227  0.00  0.00    +0.000 C 
ENDBRANCH   1  23
BRANCH   6  24
ATOM     24  C   UNL     1       0.900   9.442  20.260  0.00  0.00    +0.000 C 
BRANCH  24  25
ATOM     25  C   UNL     1       1.735   8.454  19.484  0.00  0.00    +0.000 A 
ATOM     26  C   UNL     1       1.925   7.156  19.978  0.00  0.00    +0.000 A 
ATOM     27  C   UNL     1       2.699   6.243  19.264  0.00  0.00    +0.000 A 
ATOM     28  C   UNL     1       3.250   6.659  18.067  0.00  0.00    +0.000 A 
ATOM     29 CL   UNL     1       4.213   5.602  17.121  0.00  0.00    +0.000 Cl
ATOM     30  N   UNL     1       3.086   7.887  17.542  0.00  0.00    +0.000 NA
ATOM     31  C   UNL     1       2.344   8.756  18.267  0.00  0.00    +0.000 A 
ENDBRANCH  24  25
ENDBRANCH   6  24
TORSDOF 6
ENDMDL
MODEL 4
REMARK VINA RESULT:      -5.8      0.981      1.147
REMARK  Name = 
REMARK  6 active torsions:
REMARK  status: ('A' for Active; 'I' for Inactive)
REMARK    1  A    between atoms: C_2  and  C_3
REMARK    2  A    between atoms: C_4  and  N_5
REMARK    3  A    between atoms: N_9  and  C_10
REMARK    4  A    between atoms: C_10  and  C_11
REMARK    5  A    between atoms: C_19  and  N_20
REMARK    6  A    between atoms: C_23  and  C_24
REMARK                            x       y       z     vdW  Elec       q    Type
REMARK                         _______ _______ _______ _____ _____    ______ ____
ROOT
ATOM      1  C   UNL     1      -1.364  12.441  19.926  0.00  0.00    +0.000 C 
ATOM      2  C   UNL     1      -1.802  12.002  18.721  0.00  0.00    +0.000 C 
ATOM      3  N   UNL     1      -3.174  11.820  18.540  0.00  0.00    +0.000 N 
ATOM      4  C   UNL     1      -3.785  11.255  17.329  0.00  0.00    +0.000 C 
ATOM      5  C   UNL     1      -5.296  11.267  17.635  0.00  0.00    +0.000 C 
ATOM      6  N   UNL     1      -5.416  12.086  18.856  0.00  0.00    +0.000 N 
ATOM      7  C   UNL     1      -4.166  12.272  19.437  0.00  0.00    +0.000 C 
ATOM      8  C   UNL     1      -3.761  12.713  20.644  0.00  0.00    +0.000 C 
ATOM      9  C   UNL     1      -2.323  12.661  21.095  0.00  0.00    +0.000 C 
ENDROOT
BRANCH   9  10
ATOM     10  C   UNL     1      -1.930  13.835  21.989  0.00  0.00    +0.000 A 
ATOM     11  C   UNL     1      -1.637  13.592  23.342  0.00  0.00    +0.000 A 
ATOM     12  C   UNL     1      -1.421  14.650  24.222  0.00  0.00    +0.000 A 
ATOM     13  C   UNL     1      -1.484  15.959  23.757  0.00  0.00    +0.000 A 
ATOM     14  C   UNL     1      -1.732  16.214  22.408  0.00  0.00    +0.000 A 
ATOM     15  C   UNL     1      -1.946  15.158  21.521  0.00  0.00    +0.000 A 
ENDBRANCH   9  10
BRANCH   2  16
ATOM     16  N   UNL     1      -0.939  11.744  17.672  0.00  0.00    +0.000 N 
ATOM     17  H   UNL     1      -0.916  12.445  16.933  0.00  0.00    +0.000 HD
ATOM     18  H   UNL     1      -1.040  10.812  17.290  0.00  0.00    +0.000 HD
ENDBRANCH   2  16
BRANCH   8  19
ATOM     19  N   UNL     1      -4.703  13.099  21.658  0.00  0.00    +0.000 N 
ATOM     20  O   UNL     1      -5.109  14.270  21.620  0.00  0.00    +0.000 OA
ATOM     21  O   UNL     1      -5.110  12.229  22.434  0.00  0.00    +0.000 OA
ENDBRANCH   8  19
BRANCH   1  23
ATOM     22  N   UNL     1       1.330  13.013  20.314  0.00  0.00    +0.000 NA
ATOM     23  C   UNL     1       0.108  12.754  20.138  0.00  0.00    +0.000 C 
ENDBRANCH   1  23
BRANCH   6  24
ATOM     24  C   UNL     1      -6.655  12.828  19.061  0.00  0.00    +0.000 C 
BRANCH  24  25
ATOM     25  C   UNL     1      -6.750  14.091  18.241  0.00  0.00    +0.000 A 
ATOM     26  C   UNL     1      -6.663  15.342  18.869  0.00  0.00    +0.000 A 
ATOM     27  C   UNL     1      -6.754  16.510  18.115  0.00  0.00    +0.000 A 
ATOM     28  C   UNL     1      -6.918  16.386  16.748  0.00  0.00    +0.000 A 
ATOM     29 CL   UNL     1      -7.035  17.770  15.742  0.00  0.00    +0.000 Cl
ATOM     30  N   UNL     1      -6.991  15.212  16.096  0.00  0.00    +0.000 NA
ATOM     31  C   UNL     1      -6.918  14.096  16.858  0.00  0.00    +0.000 A 
ENDBRANCH  24  25
ENDBRANCH   6  24
TORSDOF 6
ENDMDL
MODEL 5
REMARK VINA RESULT:      -5.8      4.896      7.542
REMARK  Name = 
REMARK  6 active torsions:
REMARK  status: ('A' for Active; 'I' for Inactive)
REMARK    1  A    between atoms: C_2  and  C_3
REMARK    2  A    between atoms: C_4  and  N_5
REMARK    3  A    between atoms: N_9  and  C_10
REMARK    4  A    between atoms: C_10  and  C_11
REMARK    5  A    between atoms: C_19  and  N_20
REMARK    6  A    between atoms: C_23  and  C_24
REMARK                            x       y       z     vdW  Elec       q    Type
REMARK                         _______ _______ _______ _____ _____    ______ ____
ROOT
ATOM      1  C   UNL     1      -3.375  12.553  19.747  0.00  0.00    +0.000 C 
ATOM      2  C   UNL     1      -3.101  11.636  18.788  0.00  0.00    +0.000 C 
ATOM      3  N   UNL     1      -1.837  11.043  18.779  0.00  0.00    +0.000 N 
ATOM      4  C   UNL     1      -1.362  10.112  17.747  0.00  0.00    +0.000 C 
ATOM      5  C   UNL     1       0.070   9.759  18.194  0.00  0.00    +0.000 C 
ATOM      6  N   UNL     1       0.167  10.291  19.567  0.00  0.00    +0.000 N 
ATOM      7  C   UNL     1      -0.896  11.151  19.826  0.00  0.00    +0.000 C 
ATOM      8  C   UNL     1      -1.141  12.056  20.793  0.00  0.00    +0.000 C 
ATOM      9  C   UNL     1      -2.317  12.999  20.755  0.00  0.00    +0.000 C 
ENDROOT
BRANCH   9  10
ATOM     10  C   UNL     1      -2.888  13.307  22.137  0.00  0.00    +0.000 A 
ATOM     11  C   UNL     1      -2.717  14.595  22.673  0.00  0.00    +0.000 A 
ATOM     12  C   UNL     1      -3.090  14.872  23.986  0.00  0.00    +0.000 A 
ATOM     13  C   UNL     1      -3.647  13.868  24.772  0.00  0.00    +0.000 A 
ATOM     14  C   UNL     1      -3.862  12.597  24.240  0.00  0.00    +0.000 A 
ATOM     15  C   UNL     1      -3.493  12.315  22.924  0.00  0.00    +0.000 A 
ENDBRANCH   9  10
BRANCH   2  16
ATOM     16  N   UNL     1      -4.030  11.265  17.834  0.00  0.00    +0.000 N 
ATOM     17  H   UNL     1      -4.788  11.926  17.671  0.00  0.00    +0.000 HD
ATOM     18  H   UNL     1      -4.385  10.325  17.964  0.00  0.00    +0.000 HD
ENDBRANCH   2  16
BRANCH   8  19
ATOM     19  N   UNL     1      -0.194  12.309  21.844  0.00  0.00    +0.000 N 
ATOM     20  O   UNL     1      -0.251  11.561  22.832  0.00  0.00    +0.000 OA
ATOM     21  O   UNL     1       0.660  13.181  21.659  0.00  0.00    +0.000 OA
ENDBRANCH   8  19
BRANCH   1  23
ATOM     22  N   UNL     1      -5.926  13.642  19.954  0.00  0.00    +0.000 NA
ATOM     23  C   UNL     1      -4.769  13.149  19.860  0.00  0.00    +0.000 C 
ENDBRANCH   1  23
BRANCH   6  24
ATOM     24  C   UNL     1       1.066   9.620  20.499  0.00  0.00    +0.000 C 
BRANCH  24  25
ATOM     25  C   UNL     1       1.582   8.294  19.997  0.00  0.00    +0.000 A 
ATOM     26  C   UNL     1       1.383   7.132  20.756  0.00  0.00    +0.000 A 
ATOM     27  C   UNL     1       1.861   5.907  20.297  0.00  0.00    +0.000 A 
ATOM     28  C   UNL     1       2.517   5.883  19.080  0.00  0.00    +0.000 A 
ATOM     29 CL   UNL     1       3.135   4.420  18.436  0.00  0.00    +0.000 Cl
ATOM     30  N   UNL     1       2.720   6.966  18.307  0.00  0.00    +0.000 NA
ATOM     31  C   UNL     1       2.259   8.143  18.788  0.00  0.00    +0.000 A 
ENDBRANCH  24  25
ENDBRANCH   6  24
TORSDOF 6
ENDMDL
MODEL 6
REMARK VINA RESULT:      -5.8      5.295      7.393
REMARK  Name = 
REMARK  6 active torsions:
REMARK  status: ('A' for Active; 'I' for Inactive)
REMARK    1  A    between atoms: C_2  and  C_3
REMARK    2  A    between atoms: C_4  and  N_5
REMARK    3  A    between atoms: N_9  and  C_10
REMARK    4  A    between atoms: C_10  and  C_11
REMARK    5  A    between atoms: C_19  and  N_20
REMARK    6  A    between atoms: C_23  and  C_24
REMARK                            x       y       z     vdW  Elec       q    Type
REMARK                         _______ _______ _______ _____ _____    ______ ____
ROOT
ATOM      1  C   UNL     1       0.579  15.656  21.539  0.00  0.00    +0.000 C 
ATOM      2  C   UNL     1       1.307  15.614  20.397  0.00  0.00    +0.000 C 
ATOM      3  N   UNL     1       1.511  14.377  19.784  0.00  0.00    +0.000 N 
ATOM      4  C   UNL     1       2.360  14.163  18.604  0.00  0.00    +0.000 C 
ATOM      5  C   UNL     1       2.249  12.649  18.336  0.00  0.00    +0.000 C 
ATOM      6  N   UNL     1       1.141  12.204  19.201  0.00  0.00    +0.000 N 
ATOM      7  C   UNL     1       0.828  13.191  20.131  0.00  0.00    +0.000 C 
ATOM      8  C   UNL     1       0.097  13.201  21.262  0.00  0.00    +0.000 C 
ATOM      9  C   UNL     1       0.051  14.382  22.198  0.00  0.00    +0.000 C 
ENDROOT
BRANCH   9  10
ATOM     10  C   UNL     1      -1.308  14.566  22.870  0.00  0.00    +0.000 A 
ATOM     11  C   UNL     1      -2.418  14.908  22.077  0.00  0.00    +0.000 A 
ATOM     12  C   UNL     1      -3.638  15.231  22.668  0.00  0.00    +0.000 A 
ATOM     13  C   UNL     1      -3.763  15.203  24.053  0.00  0.00    +0.000 A 
ATOM     14  C   UNL     1      -2.683  14.824  24.849  0.00  0.00    +0.000 A 
ATOM     15  C   UNL     1      -1.459  14.497  24.262  0.00  0.00    +0.000 A 
ENDBRANCH   9  10
BRANCH   2  16
ATOM     16  N   UNL     1       1.840  16.752  19.820  0.00  0.00    +0.000 N 
ATOM     17  H   UNL     1       1.175  17.495  19.606  0.00  0.00    +0.000 HD
ATOM     18  H   UNL     1       2.440  16.558  19.027  0.00  0.00    +0.000 HD
ENDBRANCH   2  16
BRANCH   8  19
ATOM     19  N   UNL     1      -0.551  12.015  21.749  0.00  0.00    +0.000 N 
ATOM     20  O   UNL     1       0.012  11.417  22.680  0.00  0.00    +0.000 OA
ATOM     21  O   UNL     1      -1.655  11.722  21.280  0.00  0.00    +0.000 OA
ENDBRANCH   8  19
BRANCH   1  23
ATOM     22  N   UNL     1      -0.035  18.097  22.721  0.00  0.00    +0.000 NA
ATOM     23  C   UNL     1       0.243  16.989  22.185  0.00  0.00    +0.000 C 
ENDBRANCH   1  23
BRANCH   6  24
ATOM     24  C   UNL     1       0.353  11.055  18.767  0.00  0.00    +0.000 C 
BRANCH  24  25
ATOM     25  C   UNL     1       1.042   9.730  18.979  0.00  0.00    +0.000 A 
ATOM     26  C   UNL     1       1.654   9.079  17.899  0.00  0.00    +0.000 A 
ATOM     27  C   UNL     1       2.289   7.853  18.091  0.00  0.00    +0.000 A 
ATOM     28  C   UNL     1       2.298   7.323  19.368  0.00  0.00    +0.000 A 
ATOM     29 CL   UNL     1       3.059   5.822  19.697  0.00  0.00    +0.000 Cl
ATOM     30  N   UNL     1       1.740   7.915  20.439  0.00  0.00    +0.000 NA
ATOM     31  C   UNL     1       1.117   9.095  20.217  0.00  0.00    +0.000 A 
ENDBRANCH  24  25
ENDBRANCH   6  24
TORSDOF 6
ENDMDL
MODEL 7
REMARK VINA RESULT:      -5.8      1.164      1.639
REMARK  Name = 
REMARK  6 active torsions:
REMARK  status: ('A' for Active; 'I' for Inactive)
REMARK    1  A    between atoms: C_2  and  C_3
REMARK    2  A    between atoms: C_4  and  N_5
REMARK    3  A    between atoms: N_9  and  C_10
REMARK    4  A    between atoms: C_10  and  C_11
REMARK    5  A    between atoms: C_19  and  N_20
REMARK    6  A    between atoms: C_23  and  C_24
REMARK                            x       y       z     vdW  Elec       q    Type
REMARK                         _______ _______ _______ _____ _____    ______ ____
ROOT
ATOM      1  C   UNL     1      -1.672  12.272  19.854  0.00  0.00    +0.000 C 
ATOM      2  C   UNL     1      -2.146  11.870  18.650  0.00  0.00    +0.000 C 
ATOM      3  N   UNL     1      -3.528  11.776  18.477  0.00  0.00    +0.000 N 
ATOM      4  C   UNL     1      -4.182  11.260  17.267  0.00  0.00    +0.000 C 
ATOM      5  C   UNL     1      -5.686  11.364  17.585  0.00  0.00    +0.000 C 
ATOM      6  N   UNL     1      -5.747  12.181  18.811  0.00  0.00    +0.000 N 
ATOM      7  C   UNL     1      -4.483  12.284  19.384  0.00  0.00    +0.000 C 
ATOM      8  C   UNL     1      -4.043  12.689  20.591  0.00  0.00    +0.000 C 
ATOM      9  C   UNL     1      -2.608  12.544  21.031  0.00  0.00    +0.000 C 
ENDROOT
BRANCH   9  10
ATOM     10  C   UNL     1      -2.135  13.685  21.930  0.00  0.00    +0.000 A 
ATOM     11  C   UNL     1      -1.923  14.954  21.364  0.00  0.00    +0.000 A 
ATOM     12  C   UNL     1      -1.351  15.978  22.115  0.00  0.00    +0.000 A 
ATOM     13  C   UNL     1      -0.995  15.748  23.441  0.00  0.00    +0.000 A 
ATOM     14  C   UNL     1      -1.239  14.506  24.027  0.00  0.00    +0.000 A 
ATOM     15  C   UNL     1      -1.815  13.477  23.280  0.00  0.00    +0.000 A 
ENDBRANCH   9  10
BRANCH   2  16
ATOM     16  N   UNL     1      -1.309  11.565  17.593  0.00  0.00    +0.000 N 
ATOM     17  H   UNL     1      -0.691  10.766  17.731  0.00  0.00    +0.000 HD
ATOM     18  H   UNL     1      -0.799  12.366  17.240  0.00  0.00    +0.000 HD
ENDBRANCH   2  16
BRANCH   8  19
ATOM     19  N   UNL     1      -4.951  13.128  21.615  0.00  0.00    +0.000 N 
ATOM     20  O   UNL     1      -5.285  12.281  22.458  0.00  0.00    +0.000 OA
ATOM     21  O   UNL     1      -5.262  14.322  21.642  0.00  0.00    +0.000 OA
ENDBRANCH   8  19
BRANCH   1  23
ATOM     22  N   UNL     1       1.055  12.670  20.227  0.00  0.00    +0.000 NA
ATOM     23  C   UNL     1      -0.182  12.489  20.057  0.00  0.00    +0.000 C 
ENDBRANCH   1  23
BRANCH   6  24
ATOM     24  C   UNL     1      -6.935  12.999  19.031  0.00  0.00    +0.000 C 
BRANCH  24  25
ATOM     25  C   UNL     1      -6.949  14.277  18.229  0.00  0.00    +0.000 A 
ATOM     26  C   UNL     1      -7.425  14.271  16.910  0.00  0.00    +0.000 A 
ATOM     27  C   UNL     1      -7.437  15.449  16.166  0.00  0.00    +0.000 A 
ATOM     28  C   UNL     1      -6.978  16.603  16.775  0.00  0.00    +0.000 A 
ATOM     29 CL   UNL     1      -6.960  18.098  15.936  0.00  0.00    +0.000 Cl
ATOM     30  N   UNL     1      -6.527  16.665  18.041  0.00  0.00    +0.000 NA
ATOM     31  C   UNL     1      -6.512  15.501  18.731  0.00  0.00    +0.000 A 
ENDBRANCH  24  25
ENDBRANCH   6  24
TORSDOF 6
ENDMDL
MODEL 8
REMARK VINA RESULT:      -5.8      8.777     11.340
REMARK  Name = 
REMARK  6 active torsions:
REMARK  status: ('A' for Active; 'I' for Inactive)
REMARK    1  A    between atoms: C_2  and  C_3
REMARK    2  A    between atoms: C_4  and  N_5
REMARK    3  A    between atoms: N_9  and  C_10
REMARK    4  A    between atoms: C_10  and  C_11
REMARK    5  A    between atoms: C_19  and  N_20
REMARK    6  A    between atoms: C_23  and  C_24
REMARK                            x       y       z     vdW  Elec       q    Type
REMARK                         _______ _______ _______ _____ _____    ______ ____
ROOT
ATOM      1  C   UNL     1       3.959   4.369  19.587  0.00  0.00    +0.000 C 
ATOM      2  C   UNL     1       2.883   4.766  20.309  0.00  0.00    +0.000 C 
ATOM      3  N   UNL     1       2.419   6.073  20.145  0.00  0.00    +0.000 N 
ATOM      4  C   UNL     1       1.333   6.675  20.929  0.00  0.00    +0.000 C 
ATOM      5  C   UNL     1       1.217   8.105  20.367  0.00  0.00    +0.000 C 
ATOM      6  N   UNL     1       2.042   8.087  19.145  0.00  0.00    +0.000 N 
ATOM      7  C   UNL     1       2.838   6.946  19.117  0.00  0.00    +0.000 C 
ATOM      8  C   UNL     1       3.906   6.579  18.384  0.00  0.00    +0.000 C 
ATOM      9  C   UNL     1       4.708   5.334  18.669  0.00  0.00    +0.000 C 
ENDROOT
BRANCH   9  10
ATOM     10  C   UNL     1       5.256   4.668  17.409  0.00  0.00    +0.000 A 
ATOM     11  C   UNL     1       6.643   4.685  17.179  0.00  0.00    +0.000 A 
ATOM     12  C   UNL     1       7.167   4.224  15.974  0.00  0.00    +0.000 A 
ATOM     13  C   UNL     1       6.314   3.730  14.993  0.00  0.00    +0.000 A 
ATOM     14  C   UNL     1       4.940   3.668  15.224  0.00  0.00    +0.000 A 
ATOM     15  C   UNL     1       4.409   4.126  16.431  0.00  0.00    +0.000 A 
ENDBRANCH   9  10
BRANCH   2  16
ATOM     16  N   UNL     1       2.230   3.921  21.187  0.00  0.00    +0.000 N 
ATOM     17  H   UNL     1       1.329   4.248  21.533  0.00  0.00    +0.000 HD
ATOM     18  H   UNL     1       2.819   3.598  21.946  0.00  0.00    +0.000 HD
ENDBRANCH   2  16
BRANCH   8  19
ATOM     19  N   UNL     1       4.466   7.446  17.384  0.00  0.00    +0.000 N 
ATOM     20  O   UNL     1       5.561   7.965  17.651  0.00  0.00    +0.000 OA
ATOM     21  O   UNL     1       3.877   7.544  16.304  0.00  0.00    +0.000 OA
ENDBRANCH   8  19
BRANCH   1  23
ATOM     22  N   UNL     1       4.832   1.731  19.712  0.00  0.00    +0.000 NA
ATOM     23  C   UNL     1       4.436   2.928  19.655  0.00  0.00    +0.000 C 
ENDBRANCH   1  23
BRANCH   6  24
ATOM     24  C   UNL     1       1.674   8.988  18.058  0.00  0.00    +0.000 C 
BRANCH  24  25
ATOM     25  C   UNL     1       0.819  10.151  18.496  0.00  0.00    +0.000 A 
ATOM     26  C   UNL     1      -0.554  10.158  18.209  0.00  0.00    +0.000 A 
ATOM     27  C   UNL     1      -1.346  11.232  18.610  0.00  0.00    +0.000 A 
ATOM     28  C   UNL     1      -0.736  12.264  19.298  0.00  0.00    +0.000 A 
ATOM     29 CL   UNL     1      -1.633  13.624  19.832  0.00  0.00    +0.000 Cl
ATOM     30  N   UNL     1       0.572  12.298  19.611  0.00  0.00    +0.000 NA
ATOM     31  C   UNL     1       1.317  11.249  19.194  0.00  0.00    +0.000 A 
ENDBRANCH  24  25
ENDBRANCH   6  24
TORSDOF 6
ENDMDL
MODEL 9
REMARK VINA RESULT:      -5.8      5.222      7.342
REMARK  Name = 
REMARK  6 active torsions:
REMARK  status: ('A' for Active; 'I' for Inactive)
REMARK    1  A    between atoms: C_2  and  C_3
REMARK    2  A    between atoms: C_4  and  N_5
REMARK    3  A    between atoms: N_9  and  C_10
REMARK    4  A    between atoms: C_10  and  C_11
REMARK    5  A    between atoms: C_19  and  N_20
REMARK    6  A    between atoms: C_23  and  C_24
REMARK                            x       y       z     vdW  Elec       q    Type
REMARK                         _______ _______ _______ _____ _____    ______ ____
ROOT
ATOM      1  C   UNL     1       0.523  15.750  21.504  0.00  0.00    +0.000 C 
ATOM      2  C   UNL     1       1.288  15.677  20.388  0.00  0.00    +0.000 C 
ATOM      3  N   UNL     1       1.495  14.425  19.805  0.00  0.00    +0.000 N 
ATOM      4  C   UNL     1       2.378  14.177  18.658  0.00  0.00    +0.000 C 
ATOM      5  C   UNL     1       2.255  12.660  18.415  0.00  0.00    +0.000 C 
ATOM      6  N   UNL     1       1.113  12.246  19.253  0.00  0.00    +0.000 N 
ATOM      7  C   UNL     1       0.784  13.255  20.152  0.00  0.00    +0.000 C 
ATOM      8  C   UNL     1       0.017  13.297  21.259  0.00  0.00    +0.000 C 
ATOM      9  C   UNL     1      -0.043  14.497  22.170  0.00  0.00    +0.000 C 
ENDROOT
BRANCH   9  10
ATOM     10  C   UNL     1      -1.420  14.712  22.793  0.00  0.00    +0.000 A 
ATOM     11  C   UNL     1      -1.576  14.532  24.179  0.00  0.00    +0.000 A 
ATOM     12  C   UNL     1      -2.841  14.571  24.761  0.00  0.00    +0.000 A 
ATOM     13  C   UNL     1      -3.960  14.803  23.967  0.00  0.00    +0.000 A 
ATOM     14  C   UNL     1      -3.816  15.026  22.598  0.00  0.00    +0.000 A 
ATOM     15  C   UNL     1      -2.551  14.990  22.010  0.00  0.00    +0.000 A 
ENDBRANCH   9  10
BRANCH   2  16
ATOM     16  N   UNL     1       1.855  16.797  19.807  0.00  0.00    +0.000 N 
ATOM     17  H   UNL     1       2.133  16.699  18.831  0.00  0.00    +0.000 HD
ATOM     18  H   UNL     1       2.598  17.204  20.361  0.00  0.00    +0.000 HD
ENDBRANCH   2  16
BRANCH   8  19
ATOM     19  N   UNL     1      -0.663  12.129  21.747  0.00  0.00    +0.000 N 
ATOM     20  O   UNL     1      -1.727  11.832  21.184  0.00  0.00    +0.000 OA
ATOM     21  O   UNL     1      -0.107  11.456  22.620  0.00  0.00    +0.000 OA
ENDBRANCH   8  19
BRANCH   1  23
ATOM     22  N   UNL     1      -0.096  18.222  22.619  0.00  0.00    +0.000 NA
ATOM     23  C   UNL     1       0.185  17.101  22.113  0.00  0.00    +0.000 C 
ENDBRANCH   1  23
BRANCH   6  24
ATOM     24  C   UNL     1       0.324  11.100  18.815  0.00  0.00    +0.000 C 
BRANCH  24  25
ATOM     25  C   UNL     1       1.014   9.774  19.016  0.00  0.00    +0.000 A 
ATOM     26  C   UNL     1       1.641   9.139  17.934  0.00  0.00    +0.000 A 
ATOM     27  C   UNL     1       2.277   7.913  18.117  0.00  0.00    +0.000 A 
ATOM     28  C   UNL     1       2.274   7.365  19.386  0.00  0.00    +0.000 A 
ATOM     29 CL   UNL     1       3.034   5.862  19.703  0.00  0.00    +0.000 Cl
ATOM     30  N   UNL     1       1.701   7.941  20.459  0.00  0.00    +0.000 NA
ATOM     31  C   UNL     1       1.077   9.122  20.246  0.00  0.00    +0.000 A 
ENDBRANCH  24  25
ENDBRANCH   6  24
TORSDOF 6
ENDMDL
