MODEL 1
REMARK VINA RESULT:      -7.8      0.000      0.000
REMARK  Name = 
REMARK  8 active torsions:
REMARK  status: ('A' for Active; 'I' for Inactive)
REMARK    1  A    between atoms: C_1  and  C_2
REMARK    2  A    between atoms: C_2  and  C_3
REMARK    3  A    between atoms: C_8  and  C_9
REMARK    4  A    between atoms: C_17  and  C_18
REMARK    5  A    between atoms: C_18  and  N_19
REMARK    6  A    between atoms: N_19  and  C_20
REMARK    7  A    between atoms: N_19  and  C_21
REMARK    8  A    between atoms: C_22  and  O_23
REMARK                            x       y       z     vdW  Elec       q    Type
REMARK                         _______ _______ _______ _____ _____    ______ ____
ROOT
ATOM      1  C   UNL     1       2.775   7.355  18.791  0.00  0.00    +0.000 A 
ATOM      2  C   UNL     1       3.454   7.288  17.575  0.00  0.00    +0.000 A 
ATOM      3  C   UNL     1       4.081   6.100  17.185  0.00  0.00    +0.000 A 
ATOM      4  C   UNL     1       4.851   6.058  15.933  0.00  0.00    +0.000 A 
ATOM      5  O   UNL     1       4.954   7.071  15.247  0.00  0.00    +0.000 OA
ATOM      6  C   UNL     1       5.494   4.761  15.574  0.00  0.00    +0.000 A 
ATOM      7  C   UNL     1       5.271   3.742  16.421  0.00  0.00    +0.000 A 
ATOM      8  O   UNL     1       4.525   3.759  17.573  0.00  0.00    +0.000 OA
ATOM      9  C   UNL     1       3.963   4.951  17.968  0.00  0.00    +0.000 A 
ATOM     10  C   UNL     1       3.258   4.983  19.183  0.00  0.00    +0.000 A 
ATOM     11  C   UNL     1       2.760   6.229  19.620  0.00  0.00    +0.000 A 
ENDROOT
BRANCH   6  12
ATOM     12  C   UNL     1       6.319   4.644  14.409  0.00  0.00    +0.000 A 
ATOM     13  C   UNL     1       6.097   3.813  13.329  0.00  0.00    +0.000 A 
ATOM     14  S   UNL     1       7.326   4.031  12.152  0.00  0.00    +0.000 S 
ATOM     15  C   UNL     1       8.060   5.198  13.170  0.00  0.00    +0.000 A 
ATOM     16  N   UNL     1       7.468   5.420  14.324  0.00  0.00    +0.000 NA
ENDBRANCH   6  12
BRANCH   1  18
ATOM     17  C   UNL     1       1.610   9.340  17.837  0.00  0.00    +0.000 C 
ATOM     18  C   UNL     1       1.940   8.573  19.116  0.00  0.00    +0.000 C 
ENDBRANCH   1  18
BRANCH  11  19
ATOM     19  O   UNL     1       2.195   6.370  20.861  0.00  0.00    +0.000 OA
ATOM     20  H   UNL     1       2.225   5.492  21.301  0.00  0.00    +0.000 HD
ENDBRANCH  11  19
BRANCH  10  21
ATOM     21  C   UNL     1       3.038   3.697  19.968  0.00  0.00    +0.000 C 
BRANCH  21  22
ATOM     22  N   UNL     1       1.620   3.430  20.330  0.00  0.00    +0.000 NA
ATOM     23  C   UNL     1       0.906   2.697  19.266  0.00  0.00    +0.000 C 
ATOM     24  C   UNL     1       1.571   2.615  21.552  0.00  0.00    +0.000 C 
ENDBRANCH  21  22
ENDBRANCH  10  21
TORSDOF 5
ENDMDL
MODEL 2
REMARK VINA RESULT:      -7.0      3.613      6.999
REMARK  Name = 
REMARK  8 active torsions:
REMARK  status: ('A' for Active; 'I' for Inactive)
REMARK    1  A    between atoms: C_1  and  C_2
REMARK    2  A    between atoms: C_2  and  C_3
REMARK    3  A    between atoms: C_8  and  C_9
REMARK    4  A    between atoms: C_17  and  C_18
REMARK    5  A    between atoms: C_18  and  N_19
REMARK    6  A    between atoms: N_19  and  C_20
REMARK    7  A    between atoms: N_19  and  C_21
REMARK    8  A    between atoms: C_22  and  O_23
REMARK                            x       y       z     vdW  Elec       q    Type
REMARK                         _______ _______ _______ _____ _____    ______ ____
ROOT
ATOM      1  C   UNL     1       3.297   4.125  20.132  0.00  0.00    +0.000 A 
ATOM      2  C   UNL     1       2.449   5.197  20.413  0.00  0.00    +0.000 A 
ATOM      3  C   UNL     1       2.474   6.341  19.609  0.00  0.00    +0.000 A 
ATOM      4  C   UNL     1       1.625   7.492  19.952  0.00  0.00    +0.000 A 
ATOM      5  O   UNL     1       0.915   7.448  20.952  0.00  0.00    +0.000 OA
ATOM      6  C   UNL     1       1.697   8.680  19.053  0.00  0.00    +0.000 A 
ATOM      7  C   UNL     1       2.509   8.563  17.990  0.00  0.00    +0.000 A 
ATOM      8  O   UNL     1       3.278   7.481  17.639  0.00  0.00    +0.000 OA
ATOM      9  C   UNL     1       3.283   6.387  18.473  0.00  0.00    +0.000 A 
ATOM     10  C   UNL     1       4.124   5.309  18.149  0.00  0.00    +0.000 A 
ATOM     11  C   UNL     1       4.186   4.230  19.057  0.00  0.00    +0.000 A 
ENDROOT
BRANCH   6  12
ATOM     12  C   UNL     1       0.958   9.873  19.346  0.00  0.00    +0.000 A 
ATOM     13  C   UNL     1       1.126  10.690  20.446  0.00  0.00    +0.000 A 
ATOM     14  S   UNL     1       0.048  12.021  20.364  0.00  0.00    +0.000 S 
ATOM     15  C   UNL     1      -0.564  11.404  18.888  0.00  0.00    +0.000 A 
ATOM     16  N   UNL     1      -0.038  10.274  18.465  0.00  0.00    +0.000 NA
ENDBRANCH   6  12
BRANCH   1  18
ATOM     17  C   UNL     1       1.780   2.797  21.596  0.00  0.00    +0.000 C 
ATOM     18  C   UNL     1       3.130   2.822  20.882  0.00  0.00    +0.000 C 
ENDBRANCH   1  18
BRANCH  11  19
ATOM     19  O   UNL     1       5.090   3.214  18.889  0.00  0.00    +0.000 OA
ATOM     20  H   UNL     1       4.677   2.390  19.230  0.00  0.00    +0.000 HD
ENDBRANCH  11  19
BRANCH  10  21
ATOM     21  C   UNL     1       4.912   5.324  16.848  0.00  0.00    +0.000 C 
BRANCH  21  22
ATOM     22  N   UNL     1       6.370   5.077  17.006  0.00  0.00    +0.000 NA
ATOM     23  C   UNL     1       6.983   4.568  15.764  0.00  0.00    +0.000 C 
ATOM     24  C   UNL     1       7.045   6.333  17.362  0.00  0.00    +0.000 C 
ENDBRANCH  21  22
ENDBRANCH  10  21
TORSDOF 5
ENDMDL
MODEL 3
REMARK VINA RESULT:      -7.0      3.904      6.753
REMARK  Name = 
REMARK  8 active torsions:
REMARK  status: ('A' for Active; 'I' for Inactive)
REMARK    1  A    between atoms: C_1  and  C_2
REMARK    2  A    between atoms: C_2  and  C_3
REMARK    3  A    between atoms: C_8  and  C_9
REMARK    4  A    between atoms: C_17  and  C_18
REMARK    5  A    between atoms: C_18  and  N_19
REMARK    6  A    between atoms: N_19  and  C_20
REMARK    7  A    between atoms: N_19  and  C_21
REMARK    8  A    between atoms: C_22  and  O_23
REMARK                            x       y       z     vdW  Elec       q    Type
REMARK                         _______ _______ _______ _____ _____    ______ ____
ROOT
ATOM      1  C   UNL     1       4.011   6.210  17.429  0.00  0.00    +0.000 A 
ATOM      2  C   UNL     1       3.431   7.478  17.450  0.00  0.00    +0.000 A 
ATOM      3  C   UNL     1       2.563   7.836  18.487  0.00  0.00    +0.000 A 
ATOM      4  C   UNL     1       1.904   9.150  18.465  0.00  0.00    +0.000 A 
ATOM      5  O   UNL     1       2.104   9.916  17.528  0.00  0.00    +0.000 OA
ATOM      6  C   UNL     1       0.992   9.471  19.602  0.00  0.00    +0.000 A 
ATOM      7  C   UNL     1       0.895   8.533  20.559  0.00  0.00    +0.000 A 
ATOM      8  O   UNL     1       1.533   7.318  20.608  0.00  0.00    +0.000 OA
ATOM      9  C   UNL     1       2.338   6.961  19.550  0.00  0.00    +0.000 A 
ATOM     10  C   UNL     1       2.935   5.690  19.570  0.00  0.00    +0.000 A 
ATOM     11  C   UNL     1       3.688   5.301  18.441  0.00  0.00    +0.000 A 
ENDROOT
BRANCH   6  12
ATOM     12  C   UNL     1       0.254  10.698  19.631  0.00  0.00    +0.000 A 
ATOM     13  C   UNL     1       0.668  11.890  20.193  0.00  0.00    +0.000 A 
ATOM     14  S   UNL     1      -0.526  13.100  19.963  0.00  0.00    +0.000 S 
ATOM     15  C   UNL     1      -1.500  11.949  19.149  0.00  0.00    +0.000 A 
ATOM     16  N   UNL     1      -1.010  10.731  19.055  0.00  0.00    +0.000 NA
ENDBRANCH   6  12
BRANCH   1  18
ATOM     17  C   UNL     1       6.436   6.437  16.903  0.00  0.00    +0.000 C 
ATOM     18  C   UNL     1       5.092   5.898  16.418  0.00  0.00    +0.000 C 
ENDBRANCH   1  18
BRANCH  11  19
ATOM     19  O   UNL     1       4.174   4.026  18.320  0.00  0.00    +0.000 OA
ATOM     20  H   UNL     1       5.057   4.003  18.752  0.00  0.00    +0.000 HD
ENDBRANCH  11  19
BRANCH  10  21
ATOM     21  C   UNL     1       2.774   4.793  20.790  0.00  0.00    +0.000 C 
BRANCH  21  22
ATOM     22  N   UNL     1       2.232   3.440  20.494  0.00  0.00    +0.000 NA
ATOM     23  C   UNL     1       2.235   2.571  21.687  0.00  0.00    +0.000 C 
ATOM     24  C   UNL     1       0.844   3.560  20.025  0.00  0.00    +0.000 C 
ENDBRANCH  21  22
ENDBRANCH  10  21
TORSDOF 5
ENDMDL
MODEL 4
REMARK VINA RESULT:      -6.9      3.838      7.092
REMARK  Name = 
REMARK  8 active torsions:
REMARK  status: ('A' for Active; 'I' for Inactive)
REMARK    1  A    between atoms: C_1  and  C_2
REMARK    2  A    between atoms: C_2  and  C_3
REMARK    3  A    between atoms: C_8  and  C_9
REMARK    4  A    between atoms: C_17  and  C_18
REMARK    5  A    between atoms: C_18  and  N_19
REMARK    6  A    between atoms: N_19  and  C_20
REMARK    7  A    between atoms: N_19  and  C_21
REMARK    8  A    between atoms: C_22  and  O_23
REMARK                            x       y       z     vdW  Elec       q    Type
REMARK                         _______ _______ _______ _____ _____    ______ ____
ROOT
ATOM      1  C   UNL     1       2.644   4.912  20.548  0.00  0.00    +0.000 A 
ATOM      2  C   UNL     1       1.880   6.068  20.711  0.00  0.00    +0.000 A 
ATOM      3  C   UNL     1       1.981   7.112  19.785  0.00  0.00    +0.000 A 
ATOM      4  C   UNL     1       1.222   8.353  20.002  0.00  0.00    +0.000 A 
ATOM      5  O   UNL     1       0.521   8.472  21.002  0.00  0.00    +0.000 OA
ATOM      6  C   UNL     1       1.372   9.427  18.977  0.00  0.00    +0.000 A 
ATOM      7  C   UNL     1       2.162   9.134  17.931  0.00  0.00    +0.000 A 
ATOM      8  O   UNL     1       2.846   7.966  17.701  0.00  0.00    +0.000 OA
ATOM      9  C   UNL     1       2.780   6.973  18.650  0.00  0.00    +0.000 A 
ATOM     10  C   UNL     1       3.535   5.806  18.445  0.00  0.00    +0.000 A 
ATOM     11  C   UNL     1       3.527   4.832  19.467  0.00  0.00    +0.000 A 
ENDROOT
BRANCH   6  12
ATOM     12  C   UNL     1       0.726  10.696  19.138  0.00  0.00    +0.000 A 
ATOM     13  C   UNL     1      -0.450  11.098  18.536  0.00  0.00    +0.000 A 
ATOM     14  S   UNL     1      -0.864  12.682  19.046  0.00  0.00    +0.000 S 
ATOM     15  C   UNL     1       0.550  12.715  20.013  0.00  0.00    +0.000 A 
ATOM     16  N   UNL     1       1.313  11.643  19.968  0.00  0.00    +0.000 NA
ENDBRANCH   6  12
BRANCH   1  18
ATOM     17  C   UNL     1       1.229   2.890  20.886  0.00  0.00    +0.000 C 
ATOM     18  C   UNL     1       2.390   3.715  21.437  0.00  0.00    +0.000 C 
ENDBRANCH   1  18
BRANCH  11  19
ATOM     19  O   UNL     1       4.352   3.739  19.409  0.00  0.00    +0.000 OA
ATOM     20  H   UNL     1       5.257   4.038  19.651  0.00  0.00    +0.000 HD
ENDBRANCH  11  19
BRANCH  10  21
ATOM     21  C   UNL     1       4.309   5.620  17.148  0.00  0.00    +0.000 C 
BRANCH  21  22
ATOM     22  N   UNL     1       5.777   5.453  17.324  0.00  0.00    +0.000 NA
ATOM     23  C   UNL     1       6.365   4.596  16.276  0.00  0.00    +0.000 C 
ATOM     24  C   UNL     1       6.431   6.768  17.254  0.00  0.00    +0.000 C 
ENDBRANCH  21  22
ENDBRANCH  10  21
TORSDOF 5
ENDMDL
MODEL 5
REMARK VINA RESULT:      -6.8      4.150      7.097
REMARK  Name = 
REMARK  8 active torsions:
REMARK  status: ('A' for Active; 'I' for Inactive)
REMARK    1  A    between atoms: C_1  and  C_2
REMARK    2  A    between atoms: C_2  and  C_3
REMARK    3  A    between atoms: C_8  and  C_9
REMARK    4  A    between atoms: C_17  and  C_18
REMARK    5  A    between atoms: C_18  and  N_19
REMARK    6  A    between atoms: N_19  and  C_20
REMARK    7  A    between atoms: N_19  and  C_21
REMARK    8  A    between atoms: C_22  and  O_23
REMARK                            x       y       z     vdW  Elec       q    Type
REMARK                         _______ _______ _______ _____ _____    ______ ____
ROOT
ATOM      1  C   UNL     1       3.663   6.639  17.600  0.00  0.00    +0.000 A 
ATOM      2  C   UNL     1       3.068   7.886  17.788  0.00  0.00    +0.000 A 
ATOM      3  C   UNL     1       2.252   8.114  18.901  0.00  0.00    +0.000 A 
ATOM      4  C   UNL     1       1.575   9.411  19.056  0.00  0.00    +0.000 A 
ATOM      5  O   UNL     1       1.716  10.277  18.199  0.00  0.00    +0.000 OA
ATOM      6  C   UNL     1       0.720   9.590  20.265  0.00  0.00    +0.000 A 
ATOM      7  C   UNL     1       0.685   8.552  21.117  0.00  0.00    +0.000 A 
ATOM      8  O   UNL     1       1.341   7.351  21.002  0.00  0.00    +0.000 OA
ATOM      9  C   UNL     1       2.093   7.125  19.873  0.00  0.00    +0.000 A 
ATOM     10  C   UNL     1       2.707   5.870  19.724  0.00  0.00    +0.000 A 
ATOM     11  C   UNL     1       3.405   5.620  18.522  0.00  0.00    +0.000 A 
ENDROOT
BRANCH   6  12
ATOM     12  C   UNL     1      -0.032  10.793  20.465  0.00  0.00    +0.000 A 
ATOM     13  C   UNL     1      -1.130  11.203  19.736  0.00  0.00    +0.000 A 
ATOM     14  S   UNL     1      -1.728  12.688  20.351  0.00  0.00    +0.000 S 
ATOM     15  C   UNL     1      -0.479  12.677  21.525  0.00  0.00    +0.000 A 
ATOM     16  N   UNL     1       0.356  11.661  21.478  0.00  0.00    +0.000 NA
ENDBRANCH   6  12
BRANCH   1  18
ATOM     17  C   UNL     1       6.079   6.836  17.026  0.00  0.00    +0.000 C 
ATOM     18  C   UNL     1       4.694   6.458  16.507  0.00  0.00    +0.000 C 
ENDBRANCH   1  18
BRANCH  11  19
ATOM     19  O   UNL     1       3.901   4.375  18.238  0.00  0.00    +0.000 OA
ATOM     20  H   UNL     1       4.186   3.969  19.087  0.00  0.00    +0.000 HD
ENDBRANCH  11  19
BRANCH  10  21
ATOM     21  C   UNL     1       2.622   4.845  20.845  0.00  0.00    +0.000 C 
BRANCH  21  22
ATOM     22  N   UNL     1       2.134   3.506  20.420  0.00  0.00    +0.000 NA
ATOM     23  C   UNL     1       2.161   2.530  21.528  0.00  0.00    +0.000 C 
ATOM     24  C   UNL     1       0.746   3.616  19.948  0.00  0.00    +0.000 C 
ENDBRANCH  21  22
ENDBRANCH  10  21
TORSDOF 5
ENDMDL
MODEL 6
REMARK VINA RESULT:      -6.8      3.674      6.391
REMARK  Name = 
REMARK  8 active torsions:
REMARK  status: ('A' for Active; 'I' for Inactive)
REMARK    1  A    between atoms: C_1  and  C_2
REMARK    2  A    between atoms: C_2  and  C_3
REMARK    3  A    between atoms: C_8  and  C_9
REMARK    4  A    between atoms: C_17  and  C_18
REMARK    5  A    between atoms: C_18  and  N_19
REMARK    6  A    between atoms: N_19  and  C_20
REMARK    7  A    between atoms: N_19  and  C_21
REMARK    8  A    between atoms: C_22  and  O_23
REMARK                            x       y       z     vdW  Elec       q    Type
REMARK                         _______ _______ _______ _____ _____    ______ ____
ROOT
ATOM      1  C   UNL     1       4.419   5.684  17.004  0.00  0.00    +0.000 A 
ATOM      2  C   UNL     1       3.831   6.935  17.191  0.00  0.00    +0.000 A 
ATOM      3  C   UNL     1       2.978   7.155  18.278  0.00  0.00    +0.000 A 
ATOM      4  C   UNL     1       2.311   8.456  18.429  0.00  0.00    +0.000 A 
ATOM      5  O   UNL     1       2.491   9.334  17.592  0.00  0.00    +0.000 OA
ATOM      6  C   UNL     1       1.415   8.626  19.610  0.00  0.00    +0.000 A 
ATOM      7  C   UNL     1       1.339   7.576  20.445  0.00  0.00    +0.000 A 
ATOM      8  O   UNL     1       1.985   6.370  20.333  0.00  0.00    +0.000 OA
ATOM      9  C   UNL     1       2.775   6.153  19.228  0.00  0.00    +0.000 A 
ATOM     10  C   UNL     1       3.380   4.894  19.081  0.00  0.00    +0.000 A 
ATOM     11  C   UNL     1       4.117   4.654  17.901  0.00  0.00    +0.000 A 
ENDROOT
BRANCH   6  12
ATOM     12  C   UNL     1       0.669   9.835  19.803  0.00  0.00    +0.000 A 
ATOM     13  C   UNL     1      -0.420  10.251  19.065  0.00  0.00    +0.000 A 
ATOM     14  S   UNL     1      -1.014  11.740  19.673  0.00  0.00    +0.000 S 
ATOM     15  C   UNL     1       0.225  11.722  20.857  0.00  0.00    +0.000 A 
ATOM     16  N   UNL     1       1.054  10.701  20.819  0.00  0.00    +0.000 NA
ENDBRANCH   6  12
BRANCH   1  18
ATOM     17  C   UNL     1       6.861   5.829  16.529  0.00  0.00    +0.000 C 
ATOM     18  C   UNL     1       5.486   5.509  15.946  0.00  0.00    +0.000 C 
ENDBRANCH   1  18
BRANCH  11  19
ATOM     19  O   UNL     1       4.610   3.408  17.615  0.00  0.00    +0.000 OA
ATOM     20  H   UNL     1       4.055   3.027  16.899  0.00  0.00    +0.000 HD
ENDBRANCH  11  19
BRANCH  10  21
ATOM     21  C   UNL     1       3.245   3.852  20.182  0.00  0.00    +0.000 C 
BRANCH  21  22
ATOM     22  N   UNL     1       1.913   3.192  20.246  0.00  0.00    +0.000 NA
ATOM     23  C   UNL     1       1.818   2.048  19.319  0.00  0.00    +0.000 C 
ATOM     24  C   UNL     1       1.679   2.691  21.609  0.00  0.00    +0.000 C 
ENDBRANCH  21  22
ENDBRANCH  10  21
TORSDOF 5
ENDMDL
MODEL 7
REMARK VINA RESULT:      -6.8      3.405      6.525
REMARK  Name = 
REMARK  8 active torsions:
REMARK  status: ('A' for Active; 'I' for Inactive)
REMARK    1  A    between atoms: C_1  and  C_2
REMARK    2  A    between atoms: C_2  and  C_3
REMARK    3  A    between atoms: C_8  and  C_9
REMARK    4  A    between atoms: C_17  and  C_18
REMARK    5  A    between atoms: C_18  and  N_19
REMARK    6  A    between atoms: N_19  and  C_20
REMARK    7  A    between atoms: N_19  and  C_21
REMARK    8  A    between atoms: C_22  and  O_23
REMARK                            x       y       z     vdW  Elec       q    Type
REMARK                         _______ _______ _______ _____ _____    ______ ____
ROOT
ATOM      1  C   UNL     1       3.280   3.887  20.345  0.00  0.00    +0.000 A 
ATOM      2  C   UNL     1       2.557   5.077  20.433  0.00  0.00    +0.000 A 
ATOM      3  C   UNL     1       2.718   6.070  19.461  0.00  0.00    +0.000 A 
ATOM      4  C   UNL     1       2.003   7.347  19.599  0.00  0.00    +0.000 A 
ATOM      5  O   UNL     1       1.286   7.542  20.576  0.00  0.00    +0.000 OA
ATOM      6  C   UNL     1       2.216   8.363  18.528  0.00  0.00    +0.000 A 
ATOM      7  C   UNL     1       3.017   7.990  17.516  0.00  0.00    +0.000 A 
ATOM      8  O   UNL     1       3.660   6.787  17.358  0.00  0.00    +0.000 OA
ATOM      9  C   UNL     1       3.535   5.845  18.353  0.00  0.00    +0.000 A 
ATOM     10  C   UNL     1       4.250   4.642  18.223  0.00  0.00    +0.000 A 
ATOM     11  C   UNL     1       4.182   3.720  19.289  0.00  0.00    +0.000 A 
ENDROOT
BRANCH   6  12
ATOM     12  C   UNL     1       1.616   9.662  18.612  0.00  0.00    +0.000 A 
ATOM     13  C   UNL     1       0.318   9.941  18.992  0.00  0.00    +0.000 A 
ATOM     14  S   UNL     1       0.049  11.634  18.980  0.00  0.00    +0.000 S 
ATOM     15  C   UNL     1       1.666  11.863  18.462  0.00  0.00    +0.000 A 
ATOM     16  N   UNL     1       2.381  10.773  18.281  0.00  0.00    +0.000 NA
ENDBRANCH   6  12
BRANCH   1  18
ATOM     17  C   UNL     1       1.459   2.698  21.562  0.00  0.00    +0.000 C 
ATOM     18  C   UNL     1       2.960   2.745  21.285  0.00  0.00    +0.000 C 
ENDBRANCH   1  18
BRANCH  11  19
ATOM     19  O   UNL     1       4.966   2.596  19.304  0.00  0.00    +0.000 OA
ATOM     20  H   UNL     1       5.226   2.404  18.376  0.00  0.00    +0.000 HD
ENDBRANCH  11  19
BRANCH  10  21
ATOM     21  C   UNL     1       5.044   4.364  16.954  0.00  0.00    +0.000 C 
BRANCH  21  22
ATOM     22  N   UNL     1       6.300   5.150  16.828  0.00  0.00    +0.000 NA
ATOM     23  C   UNL     1       7.358   4.650  17.727  0.00  0.00    +0.000 C 
ATOM     24  C   UNL     1       6.798   5.059  15.448  0.00  0.00    +0.000 C 
ENDBRANCH  21  22
ENDBRANCH  10  21
TORSDOF 5
ENDMDL
MODEL 8
REMARK VINA RESULT:      -6.5      3.628      6.413
REMARK  Name = 
REMARK  8 active torsions:
REMARK  status: ('A' for Active; 'I' for Inactive)
REMARK    1  A    between atoms: C_1  and  C_2
REMARK    2  A    between atoms: C_2  and  C_3
REMARK    3  A    between atoms: C_8  and  C_9
REMARK    4  A    between atoms: C_17  and  C_18
REMARK    5  A    between atoms: C_18  and  N_19
REMARK    6  A    between atoms: N_19  and  C_20
REMARK    7  A    between atoms: N_19  and  C_21
REMARK    8  A    between atoms: C_22  and  O_23
REMARK                            x       y       z     vdW  Elec       q    Type
REMARK                         _______ _______ _______ _____ _____    ______ ____
ROOT
ATOM      1  C   UNL     1       4.652   5.877  17.121  0.00  0.00    +0.000 A 
ATOM      2  C   UNL     1       4.010   7.109  17.240  0.00  0.00    +0.000 A 
ATOM      3  C   UNL     1       3.080   7.321  18.264  0.00  0.00    +0.000 A 
ATOM      4  C   UNL     1       2.359   8.600  18.340  0.00  0.00    +0.000 A 
ATOM      5  O   UNL     1       2.562   9.466  17.495  0.00  0.00    +0.000 OA
ATOM      6  C   UNL     1       1.383   8.763  19.457  0.00  0.00    +0.000 A 
ATOM      7  C   UNL     1       1.289   7.729  20.310  0.00  0.00    +0.000 A 
ATOM      8  O   UNL     1       1.984   6.545  20.269  0.00  0.00    +0.000 OA
ATOM      9  C   UNL     1       2.851   6.334  19.222  0.00  0.00    +0.000 A 
ATOM     10  C   UNL     1       3.509   5.095  19.145  0.00  0.00    +0.000 A 
ATOM     11  C   UNL     1       4.329   4.857  18.021  0.00  0.00    +0.000 A 
ENDROOT
BRANCH   6  12
ATOM     12  C   UNL     1       0.584   9.947  19.572  0.00  0.00    +0.000 A 
ATOM     13  C   UNL     1       0.892  11.074  20.307  0.00  0.00    +0.000 A 
ATOM     14  S   UNL     1      -0.338  12.255  20.125  0.00  0.00    +0.000 S 
ATOM     15  C   UNL     1      -1.186  11.177  19.097  0.00  0.00    +0.000 A 
ATOM     16  N   UNL     1      -0.630  10.001  18.898  0.00  0.00    +0.000 NA
ENDBRANCH   6  12
BRANCH   1  18
ATOM     17  C   UNL     1       5.322   4.935  14.914  0.00  0.00    +0.000 C 
ATOM     18  C   UNL     1       5.791   5.718  16.139  0.00  0.00    +0.000 C 
ENDBRANCH   1  18
BRANCH  11  19
ATOM     19  O   UNL     1       4.883   3.623  17.798  0.00  0.00    +0.000 OA
ATOM     20  H   UNL     1       4.199   3.064  17.368  0.00  0.00    +0.000 HD
ENDBRANCH  11  19
BRANCH  10  21
ATOM     21  C   UNL     1       3.338   4.072  20.260  0.00  0.00    +0.000 C 
BRANCH  21  22
ATOM     22  N   UNL     1       2.073   3.294  20.195  0.00  0.00    +0.000 NA
ATOM     23  C   UNL     1       2.194   2.115  19.315  0.00  0.00    +0.000 C 
ATOM     24  C   UNL     1       1.719   2.819  21.541  0.00  0.00    +0.000 C 
ENDBRANCH  21  22
ENDBRANCH  10  21
TORSDOF 5
ENDMDL
MODEL 9
REMARK VINA RESULT:      -6.4      3.622      6.290
REMARK  Name = 
REMARK  8 active torsions:
REMARK  status: ('A' for Active; 'I' for Inactive)
REMARK    1  A    between atoms: C_1  and  C_2
REMARK    2  A    between atoms: C_2  and  C_3
REMARK    3  A    between atoms: C_8  and  C_9
REMARK    4  A    between atoms: C_17  and  C_18
REMARK    5  A    between atoms: C_18  and  N_19
REMARK    6  A    between atoms: N_19  and  C_20
REMARK    7  A    between atoms: N_19  and  C_21
REMARK    8  A    between atoms: C_22  and  O_23
REMARK                            x       y       z     vdW  Elec       q    Type
REMARK                         _______ _______ _______ _____ _____    ______ ____
ROOT
ATOM      1  C   UNL     1       4.461   5.229  16.898  0.00  0.00    +0.000 A 
ATOM      2  C   UNL     1       3.906   6.497  17.070  0.00  0.00    +0.000 A 
ATOM      3  C   UNL     1       3.104   6.768  18.184  0.00  0.00    +0.000 A 
ATOM      4  C   UNL     1       2.469   8.087  18.321  0.00  0.00    +0.000 A 
ATOM      5  O   UNL     1       2.630   8.935  17.449  0.00  0.00    +0.000 OA
ATOM      6  C   UNL     1       1.628   8.312  19.532  0.00  0.00    +0.000 A 
ATOM      7  C   UNL     1       1.566   7.290  20.402  0.00  0.00    +0.000 A 
ATOM      8  O   UNL     1       2.184   6.068  20.302  0.00  0.00    +0.000 OA
ATOM      9  C   UNL     1       2.922   5.801  19.173  0.00  0.00    +0.000 A 
ATOM     10  C   UNL     1       3.496   4.525  19.041  0.00  0.00    +0.000 A 
ATOM     11  C   UNL     1       4.178   4.234  17.839  0.00  0.00    +0.000 A 
ENDROOT
BRANCH   6  12
ATOM     12  C   UNL     1       0.914   9.541  19.718  0.00  0.00    +0.000 A 
ATOM     13  C   UNL     1       0.951  10.348  20.837  0.00  0.00    +0.000 A 
ATOM     14  S   UNL     1      -0.033  11.733  20.601  0.00  0.00    +0.000 S 
ATOM     15  C   UNL     1      -0.439  11.149  19.042  0.00  0.00    +0.000 A 
ATOM     16  N   UNL     1       0.088   9.994  18.696  0.00  0.00    +0.000 NA
ENDBRANCH   6  12
BRANCH   1  18
ATOM     17  C   UNL     1       6.842   5.536  16.232  0.00  0.00    +0.000 C 
ATOM     18  C   UNL     1       5.478   4.999  15.803  0.00  0.00    +0.000 C 
ENDBRANCH   1  18
BRANCH  11  19
ATOM     19  O   UNL     1       4.634   2.970  17.573  0.00  0.00    +0.000 OA
ATOM     20  H   UNL     1       3.966   2.528  17.003  0.00  0.00    +0.000 HD
ENDBRANCH  11  19
BRANCH  10  21
ATOM     21  C   UNL     1       3.387   3.521  20.179  0.00  0.00    +0.000 C 
BRANCH  21  22
ATOM     22  N   UNL     1       2.206   2.621  20.097  0.00  0.00    +0.000 NA
ATOM     23  C   UNL     1       1.292   2.803  21.241  0.00  0.00    +0.000 C 
ATOM     24  C   UNL     1       1.455   2.908  18.867  0.00  0.00    +0.000 C 
ENDBRANCH  21  22
ENDBRANCH  10  21
TORSDOF 5
ENDMDL
