MODEL 1
REMARK VINA RESULT:      -8.3      0.000      0.000
REMARK  Name = 
REMARK  8 active torsions:
REMARK  status: ('A' for Active; 'I' for Inactive)
REMARK    1  A    between atoms: C_1  and  C_2
REMARK    2  A    between atoms: C_8  and  C_9
REMARK    3  A    between atoms: C_9  and  N_10
REMARK    4  A    between atoms: C_14  and  N_15
REMARK    5  A    between atoms: N_15  and  S_16
REMARK    6  A    between atoms: S_16  and  C_17
REMARK    7  A    between atoms: C_21  and  C_22
REMARK    8  A    between atoms: N_24  and  C_25
REMARK                            x       y       z     vdW  Elec       q    Type
REMARK                         _______ _______ _______ _____ _____    ______ ____
ROOT
ATOM      1  N   UNL     1       4.757   5.136  16.607  0.00  0.00    +0.000 N 
ATOM      2  C   UNL     1       4.814   3.763  16.653  0.00  0.00    +0.000 A 
ATOM      3  C   UNL     1       3.794   3.319  17.462  0.00  0.00    +0.000 A 
ATOM      4  C   UNL     1       3.096   4.458  17.954  0.00  0.00    +0.000 A 
ATOM      5  C   UNL     1       2.046   4.653  18.877  0.00  0.00    +0.000 A 
ATOM      6  C   UNL     1       1.590   5.948  19.147  0.00  0.00    +0.000 A 
ATOM      7  C   UNL     1       2.204   7.070  18.574  0.00  0.00    +0.000 A 
ATOM      8  C   UNL     1       3.257   6.891  17.665  0.00  0.00    +0.000 A 
ATOM      9  C   UNL     1       3.697   5.584  17.379  0.00  0.00    +0.000 A 
ENDROOT
BRANCH   7  10
ATOM     10  C   UNL     1       1.865   8.412  19.040  0.00  0.00    +0.000 A 
ATOM     11  C   UNL     1       2.034   9.525  18.225  0.00  0.00    +0.000 A 
ATOM     12  N   UNL     1       1.530  10.633  18.858  0.00  0.00    +0.000 N 
ATOM     13  C   UNL     1       1.505  11.963  18.292  0.00  0.00    +0.000 C 
ATOM     14  C   UNL     1       1.016  10.264  20.069  0.00  0.00    +0.000 A 
ATOM     15  C   UNL     1       0.347  11.083  21.057  0.00  0.00    +0.000 A 
ATOM     16  O   UNL     1       0.146  12.289  20.955  0.00  0.00    +0.000 OA
ATOM     17  N   UNL     1      -0.077  10.369  22.172  0.00  0.00    +0.000 N 
ATOM     18  C   UNL     1       0.130   9.014  22.348  0.00  0.00    +0.000 A 
ATOM     19  C   UNL     1       0.765   8.280  21.414  0.00  0.00    +0.000 A 
ATOM     20  C   UNL     1       1.225   8.901  20.213  0.00  0.00    +0.000 A 
ATOM     21  H   UNL     1      -0.554  10.912  22.879  0.00  0.00    +0.000 HD
ENDBRANCH   7  10
BRANCH   5  22
ATOM     22  N   UNL     1       1.548   3.585  19.687  0.00  0.00    +0.000 N 
ATOM     23  H   UNL     1       0.528   3.531  19.712  0.00  0.00    +0.000 HD
BRANCH  22  24
ATOM     24  S   UNL     1       2.164   3.366  21.235  0.00  0.00    +0.000 S 
ATOM     25  C   UNL     1       3.597   2.363  20.898  0.00  0.00    +0.000 C 
ATOM     26  O   UNL     1       2.583   4.624  21.802  0.00  0.00    +0.000 OA
ATOM     27  O   UNL     1       1.198   2.517  21.906  0.00  0.00    +0.000 OA
ENDBRANCH  22  24
ENDBRANCH   5  22
BRANCH   1  28
ATOM     28  C   UNL     1       5.817   5.979  16.065  0.00  0.00    +0.000 C 
BRANCH  28  36
ATOM     29  C   UNL     1       7.676   4.601  18.316  0.00  0.00    +0.000 C 
ATOM     30  C   UNL     1       7.603   6.072  18.013  0.00  0.00    +0.000 A 
ATOM     31  C   UNL     1       8.391   6.915  18.830  0.00  0.00    +0.000 A 
ATOM     32  C   UNL     1       8.407   8.291  18.646  0.00  0.00    +0.000 A 
ATOM     33  F   UNL     1       9.166   9.057  19.440  0.00  0.00    +0.000 F 
ATOM     34  C   UNL     1       7.647   8.876  17.655  0.00  0.00    +0.000 A 
ATOM     35  C   UNL     1       6.848   8.066  16.851  0.00  0.00    +0.000 A 
ATOM     36  C   UNL     1       6.792   6.654  17.013  0.00  0.00    +0.000 A 
ENDBRANCH  28  36
ENDBRANCH   1  28
TORSDOF 5
ENDMDL
MODEL 2
REMARK VINA RESULT:      -7.8      5.286      8.353
REMARK  Name = 
REMARK  8 active torsions:
REMARK  status: ('A' for Active; 'I' for Inactive)
REMARK    1  A    between atoms: C_1  and  C_2
REMARK    2  A    between atoms: C_8  and  C_9
REMARK    3  A    between atoms: C_9  and  N_10
REMARK    4  A    between atoms: C_14  and  N_15
REMARK    5  A    between atoms: N_15  and  S_16
REMARK    6  A    between atoms: S_16  and  C_17
REMARK    7  A    between atoms: C_21  and  C_22
REMARK    8  A    between atoms: N_24  and  C_25
REMARK                            x       y       z     vdW  Elec       q    Type
REMARK                         _______ _______ _______ _____ _____    ______ ____
ROOT
ATOM      1  N   UNL     1      -0.809  10.739  18.118  0.00  0.00    +0.000 N 
ATOM      2  C   UNL     1      -1.381   9.843  17.247  0.00  0.00    +0.000 A 
ATOM      3  C   UNL     1      -2.743  10.031  17.272  0.00  0.00    +0.000 A 
ATOM      4  C   UNL     1      -3.026  11.064  18.210  0.00  0.00    +0.000 A 
ATOM      5  C   UNL     1      -4.210  11.628  18.736  0.00  0.00    +0.000 A 
ATOM      6  C   UNL     1      -4.128  12.657  19.679  0.00  0.00    +0.000 A 
ATOM      7  C   UNL     1      -2.893  13.095  20.175  0.00  0.00    +0.000 A 
ATOM      8  C   UNL     1      -1.710  12.535  19.671  0.00  0.00    +0.000 A 
ATOM      9  C   UNL     1      -1.796  11.515  18.703  0.00  0.00    +0.000 A 
ENDROOT
BRANCH   7  10
ATOM     10  C   UNL     1      -2.839  14.004  21.317  0.00  0.00    +0.000 A 
ATOM     11  C   UNL     1      -2.561  15.356  21.153  0.00  0.00    +0.000 A 
ATOM     12  N   UNL     1      -2.690  15.996  22.360  0.00  0.00    +0.000 N 
ATOM     13  C   UNL     1      -2.508  17.416  22.560  0.00  0.00    +0.000 C 
ATOM     14  C   UNL     1      -3.066  15.090  23.311  0.00  0.00    +0.000 A 
ATOM     15  C   UNL     1      -3.360  15.316  24.710  0.00  0.00    +0.000 A 
ATOM     16  O   UNL     1      -3.298  16.401  25.279  0.00  0.00    +0.000 OA
ATOM     17  N   UNL     1      -3.743  14.164  25.387  0.00  0.00    +0.000 N 
ATOM     18  C   UNL     1      -3.820  12.913  24.804  0.00  0.00    +0.000 A 
ATOM     19  C   UNL     1      -3.531  12.734  23.501  0.00  0.00    +0.000 A 
ATOM     20  C   UNL     1      -3.148  13.850  22.697  0.00  0.00    +0.000 A 
ATOM     21  H   UNL     1      -3.961  14.289  26.367  0.00  0.00    +0.000 HD
ENDBRANCH   7  10
BRANCH   5  22
ATOM     22  N   UNL     1      -5.494  11.060  18.471  0.00  0.00    +0.000 N 
ATOM     23  H   UNL     1      -5.890  11.341  17.572  0.00  0.00    +0.000 HD
BRANCH  22  24
ATOM     24  S   UNL     1      -6.685  11.123  19.656  0.00  0.00    +0.000 S 
ATOM     25  C   UNL     1      -7.279   9.444  19.639  0.00  0.00    +0.000 C 
ATOM     26  O   UNL     1      -6.109  11.414  20.946  0.00  0.00    +0.000 OA
ATOM     27  O   UNL     1      -7.733  11.952  19.091  0.00  0.00    +0.000 OA
ENDBRANCH  22  24
ENDBRANCH   5  22
BRANCH   1  28
ATOM     28  C   UNL     1       0.582  10.677  18.556  0.00  0.00    +0.000 C 
BRANCH  28  36
ATOM     29  C   UNL     1       0.186   9.324  21.461  0.00  0.00    +0.000 C 
ATOM     30  C   UNL     1       0.998   8.759  20.328  0.00  0.00    +0.000 A 
ATOM     31  C   UNL     1       1.679   7.549  20.595  0.00  0.00    +0.000 A 
ATOM     32  C   UNL     1       2.460   6.930  19.629  0.00  0.00    +0.000 A 
ATOM     33  F   UNL     1       3.091   5.785  19.919  0.00  0.00    +0.000 F 
ATOM     34  C   UNL     1       2.594   7.485  18.373  0.00  0.00    +0.000 A 
ATOM     35  C   UNL     1       1.947   8.687  18.094  0.00  0.00    +0.000 A 
ATOM     36  C   UNL     1       1.148   9.361  19.058  0.00  0.00    +0.000 A 
ENDBRANCH  28  36
ENDBRANCH   1  28
TORSDOF 5
ENDMDL
MODEL 3
REMARK VINA RESULT:      -7.8      0.666      1.811
REMARK  Name = 
REMARK  8 active torsions:
REMARK  status: ('A' for Active; 'I' for Inactive)
REMARK    1  A    between atoms: C_1  and  C_2
REMARK    2  A    between atoms: C_8  and  C_9
REMARK    3  A    between atoms: C_9  and  N_10
REMARK    4  A    between atoms: C_14  and  N_15
REMARK    5  A    between atoms: N_15  and  S_16
REMARK    6  A    between atoms: S_16  and  C_17
REMARK    7  A    between atoms: C_21  and  C_22
REMARK    8  A    between atoms: N_24  and  C_25
REMARK                            x       y       z     vdW  Elec       q    Type
REMARK                         _______ _______ _______ _____ _____    ______ ____
ROOT
ATOM      1  N   UNL     1       4.507   5.321  16.720  0.00  0.00    +0.000 N 
ATOM      2  C   UNL     1       4.705   3.967  16.595  0.00  0.00    +0.000 A 
ATOM      3  C   UNL     1       3.823   3.325  17.433  0.00  0.00    +0.000 A 
ATOM      4  C   UNL     1       3.068   4.319  18.118  0.00  0.00    +0.000 A 
ATOM      5  C   UNL     1       2.102   4.293  19.149  0.00  0.00    +0.000 A 
ATOM      6  C   UNL     1       1.548   5.492  19.610  0.00  0.00    +0.000 A 
ATOM      7  C   UNL     1       1.985   6.731  19.124  0.00  0.00    +0.000 A 
ATOM      8  C   UNL     1       2.953   6.772  18.109  0.00  0.00    +0.000 A 
ATOM      9  C   UNL     1       3.491   5.561  17.631  0.00  0.00    +0.000 A 
ENDROOT
BRANCH   7  10
ATOM     10  C   UNL     1       1.562   7.968  19.776  0.00  0.00    +0.000 A 
ATOM     11  C   UNL     1       1.150   7.982  21.102  0.00  0.00    +0.000 A 
ATOM     12  N   UNL     1       0.925   9.277  21.496  0.00  0.00    +0.000 N 
ATOM     13  C   UNL     1       0.517   9.674  22.824  0.00  0.00    +0.000 C 
ATOM     14  C   UNL     1       1.200  10.117  20.454  0.00  0.00    +0.000 A 
ATOM     15  C   UNL     1       1.148  11.563  20.418  0.00  0.00    +0.000 A 
ATOM     16  O   UNL     1       0.819  12.281  21.357  0.00  0.00    +0.000 OA
ATOM     17  N   UNL     1       1.523  12.099  19.192  0.00  0.00    +0.000 N 
ATOM     18  C   UNL     1       1.892  11.341  18.095  0.00  0.00    +0.000 A 
ATOM     19  C   UNL     1       1.921   9.997  18.157  0.00  0.00    +0.000 A 
ATOM     20  C   UNL     1       1.579   9.333  19.375  0.00  0.00    +0.000 A 
ATOM     21  H   UNL     1       1.503  13.109  19.135  0.00  0.00    +0.000 HD
ENDBRANCH   7  10
BRANCH   5  22
ATOM     22  N   UNL     1       1.799   3.094  19.865  0.00  0.00    +0.000 N 
ATOM     23  H   UNL     1       0.807   2.852  19.858  0.00  0.00    +0.000 HD
BRANCH  22  24
ATOM     24  S   UNL     1       2.422   2.876  21.411  0.00  0.00    +0.000 S 
ATOM     25  C   UNL     1       3.978   2.089  21.049  0.00  0.00    +0.000 C 
ATOM     26  O   UNL     1       2.665   4.147  22.049  0.00  0.00    +0.000 OA
ATOM     27  O   UNL     1       1.569   1.874  22.021  0.00  0.00    +0.000 OA
ENDBRANCH  22  24
ENDBRANCH   5  22
BRANCH   1  28
ATOM     28  C   UNL     1       5.417   6.331  16.189  0.00  0.00    +0.000 C 
BRANCH  28  36
ATOM     29  C   UNL     1       7.356   4.686  18.178  0.00  0.00    +0.000 C 
ATOM     30  C   UNL     1       7.375   6.173  17.959  0.00  0.00    +0.000 A 
ATOM     31  C   UNL     1       8.301   6.904  18.739  0.00  0.00    +0.000 A 
ATOM     32  C   UNL     1       8.412   8.283  18.626  0.00  0.00    +0.000 A 
ATOM     33  F   UNL     1       9.300   8.941  19.381  0.00  0.00    +0.000 F 
ATOM     34  C   UNL     1       7.613   8.982  17.744  0.00  0.00    +0.000 A 
ATOM     35  C   UNL     1       6.681   8.284  16.980  0.00  0.00    +0.000 A 
ATOM     36  C   UNL     1       6.525   6.874  17.073  0.00  0.00    +0.000 A 
ENDBRANCH  28  36
ENDBRANCH   1  28
TORSDOF 5
ENDMDL
MODEL 4
REMARK VINA RESULT:      -7.5      1.239      1.332
REMARK  Name = 
REMARK  8 active torsions:
REMARK  status: ('A' for Active; 'I' for Inactive)
REMARK    1  A    between atoms: C_1  and  C_2
REMARK    2  A    between atoms: C_8  and  C_9
REMARK    3  A    between atoms: C_9  and  N_10
REMARK    4  A    between atoms: C_14  and  N_15
REMARK    5  A    between atoms: N_15  and  S_16
REMARK    6  A    between atoms: S_16  and  C_17
REMARK    7  A    between atoms: C_21  and  C_22
REMARK    8  A    between atoms: N_24  and  C_25
REMARK                            x       y       z     vdW  Elec       q    Type
REMARK                         _______ _______ _______ _____ _____    ______ ____
ROOT
ATOM      1  N   UNL     1       4.828   5.519  17.805  0.00  0.00    +0.000 N 
ATOM      2  C   UNL     1       5.180   4.235  18.146  0.00  0.00    +0.000 A 
ATOM      3  C   UNL     1       4.362   3.824  19.173  0.00  0.00    +0.000 A 
ATOM      4  C   UNL     1       3.489   4.902  19.495  0.00  0.00    +0.000 A 
ATOM      5  C   UNL     1       2.516   5.122  20.495  0.00  0.00    +0.000 A 
ATOM      6  C   UNL     1       1.823   6.337  20.532  0.00  0.00    +0.000 A 
ATOM      7  C   UNL     1       2.125   7.376  19.641  0.00  0.00    +0.000 A 
ATOM      8  C   UNL     1       3.098   7.174  18.652  0.00  0.00    +0.000 A 
ATOM      9  C   UNL     1       3.777   5.941  18.603  0.00  0.00    +0.000 A 
ENDROOT
BRANCH   7  10
ATOM     10  C   UNL     1       1.555   8.706  19.841  0.00  0.00    +0.000 A 
ATOM     11  C   UNL     1       1.476   9.623  18.801  0.00  0.00    +0.000 A 
ATOM     12  N   UNL     1       0.795  10.736  19.226  0.00  0.00    +0.000 N 
ATOM     13  C   UNL     1       0.495  11.882  18.397  0.00  0.00    +0.000 C 
ATOM     14  C   UNL     1       0.409  10.558  20.524  0.00  0.00    +0.000 A 
ATOM     15  C   UNL     1      -0.364  11.443  21.368  0.00  0.00    +0.000 A 
ATOM     16  O   UNL     1      -0.795  12.541  21.032  0.00  0.00    +0.000 OA
ATOM     17  N   UNL     1      -0.600  10.929  22.638  0.00  0.00    +0.000 N 
ATOM     18  C   UNL     1      -0.131   9.705  23.077  0.00  0.00    +0.000 A 
ATOM     19  C   UNL     1       0.594   8.908  22.271  0.00  0.00    +0.000 A 
ATOM     20  C   UNL     1       0.880   9.320  20.933  0.00  0.00    +0.000 A 
ATOM     21  H   UNL     1      -1.144  11.521  23.252  0.00  0.00    +0.000 HD
ENDBRANCH   7  10
BRANCH   5  22
ATOM     22  N   UNL     1       2.338   4.215  21.585  0.00  0.00    +0.000 N 
ATOM     23  H   UNL     1       3.135   4.181  22.223  0.00  0.00    +0.000 HD
BRANCH  22  24
ATOM     24  S   UNL     1       1.790   2.656  21.281  0.00  0.00    +0.000 S 
ATOM     25  C   UNL     1       0.673   2.940  19.924  0.00  0.00    +0.000 C 
ATOM     26  O   UNL     1       2.872   1.809  20.841  0.00  0.00    +0.000 OA
ATOM     27  O   UNL     1       0.980   2.311  22.434  0.00  0.00    +0.000 OA
ENDBRANCH  22  24
ENDBRANCH   5  22
BRANCH   1  28
ATOM     28  C   UNL     1       5.626   6.382  16.940  0.00  0.00    +0.000 C 
BRANCH  28  36
ATOM     29  C   UNL     1       7.967   5.411  18.940  0.00  0.00    +0.000 C 
ATOM     30  C   UNL     1       7.768   6.811  18.430  0.00  0.00    +0.000 A 
ATOM     31  C   UNL     1       8.669   7.784  18.919  0.00  0.00    +0.000 A 
ATOM     32  C   UNL     1       8.587   9.111  18.521  0.00  0.00    +0.000 A 
ATOM     33  F   UNL     1       9.458  10.005  19.006  0.00  0.00    +0.000 F 
ATOM     34  C   UNL     1       7.613   9.519  17.632  0.00  0.00    +0.000 A 
ATOM     35  C   UNL     1       6.703   8.579  17.152  0.00  0.00    +0.000 A 
ATOM     36  C   UNL     1       6.744   7.213  17.543  0.00  0.00    +0.000 A 
ENDBRANCH  28  36
ENDBRANCH   1  28
TORSDOF 5
ENDMDL
MODEL 5
REMARK VINA RESULT:      -7.5      5.390      8.742
REMARK  Name = 
REMARK  8 active torsions:
REMARK  status: ('A' for Active; 'I' for Inactive)
REMARK    1  A    between atoms: C_1  and  C_2
REMARK    2  A    between atoms: C_8  and  C_9
REMARK    3  A    between atoms: C_9  and  N_10
REMARK    4  A    between atoms: C_14  and  N_15
REMARK    5  A    between atoms: N_15  and  S_16
REMARK    6  A    between atoms: S_16  and  C_17
REMARK    7  A    between atoms: C_21  and  C_22
REMARK    8  A    between atoms: N_24  and  C_25
REMARK                            x       y       z     vdW  Elec       q    Type
REMARK                         _______ _______ _______ _____ _____    ______ ____
ROOT
ATOM      1  N   UNL     1       1.376  11.643  18.677  0.00  0.00    +0.000 N 
ATOM      2  C   UNL     1       2.512  12.315  18.298  0.00  0.00    +0.000 A 
ATOM      3  C   UNL     1       2.457  13.584  18.827  0.00  0.00    +0.000 A 
ATOM      4  C   UNL     1       1.231  13.708  19.539  0.00  0.00    +0.000 A 
ATOM      5  C   UNL     1       0.574  14.769  20.201  0.00  0.00    +0.000 A 
ATOM      6  C   UNL     1      -0.665  14.545  20.811  0.00  0.00    +0.000 A 
ATOM      7  C   UNL     1      -1.309  13.304  20.717  0.00  0.00    +0.000 A 
ATOM      8  C   UNL     1      -0.673  12.245  20.052  0.00  0.00    +0.000 A 
ATOM      9  C   UNL     1       0.585  12.469  19.460  0.00  0.00    +0.000 A 
ENDROOT
BRANCH   7  10
ATOM     10  C   UNL     1      -2.693  13.158  21.161  0.00  0.00    +0.000 A 
ATOM     11  C   UNL     1      -3.689  12.727  20.293  0.00  0.00    +0.000 A 
ATOM     12  N   UNL     1      -4.860  12.563  20.991  0.00  0.00    +0.000 N 
ATOM     13  C   UNL     1      -6.100  12.092  20.415  0.00  0.00    +0.000 C 
ATOM     14  C   UNL     1      -4.645  12.863  22.306  0.00  0.00    +0.000 A 
ATOM     15  C   UNL     1      -5.574  12.793  23.414  0.00  0.00    +0.000 A 
ATOM     16  O   UNL     1      -6.749  12.452  23.330  0.00  0.00    +0.000 OA
ATOM     17  N   UNL     1      -5.007  13.145  24.633  0.00  0.00    +0.000 N 
ATOM     18  C   UNL     1      -3.693  13.548  24.789  0.00  0.00    +0.000 A 
ATOM     19  C   UNL     1      -2.856  13.612  23.736  0.00  0.00    +0.000 A 
ATOM     20  C   UNL     1      -3.320  13.249  22.434  0.00  0.00    +0.000 A 
ATOM     21  H   UNL     1      -5.629  13.101  25.430  0.00  0.00    +0.000 HD
ENDBRANCH   7  10
BRANCH   5  22
ATOM     22  N   UNL     1       1.045  16.115  20.116  0.00  0.00    +0.000 N 
ATOM     23  H   UNL     1       0.988  16.626  20.999  0.00  0.00    +0.000 HD
BRANCH  22  24
ATOM     24  S   UNL     1       0.516  17.099  18.860  0.00  0.00    +0.000 S 
ATOM     25  C   UNL     1       1.984  17.196  17.855  0.00  0.00    +0.000 C 
ATOM     26  O   UNL     1      -0.533  16.452  18.111  0.00  0.00    +0.000 OA
ATOM     27  O   UNL     1       0.324  18.404  19.461  0.00  0.00    +0.000 OA
ENDBRANCH  22  24
ENDBRANCH   5  22
BRANCH   1  28
ATOM     28  C   UNL     1       0.951  10.369  18.106  0.00  0.00    +0.000 C 
BRANCH  28  36
ATOM     29  C   UNL     1       0.466   9.068  21.021  0.00  0.00    +0.000 C 
ATOM     30  C   UNL     1       1.335   8.498  19.935  0.00  0.00    +0.000 A 
ATOM     31  C   UNL     1       2.030   7.309  20.256  0.00  0.00    +0.000 A 
ATOM     32  C   UNL     1       2.863   6.687  19.335  0.00  0.00    +0.000 A 
ATOM     33  F   UNL     1       3.505   5.563  19.675  0.00  0.00    +0.000 F 
ATOM     34  C   UNL     1       3.036   7.219  18.074  0.00  0.00    +0.000 A 
ATOM     35  C   UNL     1       2.375   8.400  17.743  0.00  0.00    +0.000 A 
ATOM     36  C   UNL     1       1.524   9.076  18.659  0.00  0.00    +0.000 A 
ENDBRANCH  28  36
ENDBRANCH   1  28
TORSDOF 5
ENDMDL
MODEL 6
REMARK VINA RESULT:      -7.4      5.241      8.259
REMARK  Name = 
REMARK  8 active torsions:
REMARK  status: ('A' for Active; 'I' for Inactive)
REMARK    1  A    between atoms: C_1  and  C_2
REMARK    2  A    between atoms: C_8  and  C_9
REMARK    3  A    between atoms: C_9  and  N_10
REMARK    4  A    between atoms: C_14  and  N_15
REMARK    5  A    between atoms: N_15  and  S_16
REMARK    6  A    between atoms: S_16  and  C_17
REMARK    7  A    between atoms: C_21  and  C_22
REMARK    8  A    between atoms: N_24  and  C_25
REMARK                            x       y       z     vdW  Elec       q    Type
REMARK                         _______ _______ _______ _____ _____    ______ ____
ROOT
ATOM      1  N   UNL     1      -0.222  10.627  18.360  0.00  0.00    +0.000 N 
ATOM      2  C   UNL     1      -0.973   9.937  17.439  0.00  0.00    +0.000 A 
ATOM      3  C   UNL     1      -2.281  10.345  17.561  0.00  0.00    +0.000 A 
ATOM      4  C   UNL     1      -2.345  11.304  18.611  0.00  0.00    +0.000 A 
ATOM      5  C   UNL     1      -3.394  11.997  19.256  0.00  0.00    +0.000 A 
ATOM      6  C   UNL     1      -3.100  12.891  20.291  0.00  0.00    +0.000 A 
ATOM      7  C   UNL     1      -1.789  13.062  20.756  0.00  0.00    +0.000 A 
ATOM      8  C   UNL     1      -0.740  12.371  20.132  0.00  0.00    +0.000 A 
ATOM      9  C   UNL     1      -1.038  11.489  19.075  0.00  0.00    +0.000 A 
ENDROOT
BRANCH   7  10
ATOM     10  C   UNL     1      -1.535  13.822  21.978  0.00  0.00    +0.000 A 
ATOM     11  C   UNL     1      -0.545  14.795  22.031  0.00  0.00    +0.000 A 
ATOM     12  N   UNL     1      -0.599  15.433  23.246  0.00  0.00    +0.000 N 
ATOM     13  C   UNL     1       0.262  16.525  23.639  0.00  0.00    +0.000 C 
ATOM     14  C   UNL     1      -1.621  14.906  23.984  0.00  0.00    +0.000 A 
ATOM     15  C   UNL     1      -2.078  15.291  25.302  0.00  0.00    +0.000 A 
ATOM     16  O   UNL     1      -1.583  16.179  25.989  0.00  0.00    +0.000 OA
ATOM     17  N   UNL     1      -3.171  14.556  25.745  0.00  0.00    +0.000 N 
ATOM     18  C   UNL     1      -3.763  13.537  25.022  0.00  0.00    +0.000 A 
ATOM     19  C   UNL     1      -3.309  13.196  23.802  0.00  0.00    +0.000 A 
ATOM     20  C   UNL     1      -2.204  13.899  23.231  0.00  0.00    +0.000 A 
ATOM     21  H   UNL     1      -3.519  14.805  26.662  0.00  0.00    +0.000 HD
ENDBRANCH   7  10
BRANCH   5  22
ATOM     22  N   UNL     1      -4.766  11.682  19.011  0.00  0.00    +0.000 N 
ATOM     23  H   UNL     1      -5.028  11.732  18.024  0.00  0.00    +0.000 HD
BRANCH  22  24
ATOM     24  S   UNL     1      -5.960  12.401  19.950  0.00  0.00    +0.000 S 
ATOM     25  C   UNL     1      -7.434  11.745  19.198  0.00  0.00    +0.000 C 
ATOM     26  O   UNL     1      -5.878  11.948  21.317  0.00  0.00    +0.000 OA
ATOM     27  O   UNL     1      -5.901  13.811  19.616  0.00  0.00    +0.000 OA
ENDBRANCH  22  24
ENDBRANCH   5  22
BRANCH   1  28
ATOM     28  C   UNL     1       1.154  10.288  18.710  0.00  0.00    +0.000 C 
BRANCH  28  36
ATOM     29  C   UNL     1       0.394   9.018  21.580  0.00  0.00    +0.000 C 
ATOM     30  C   UNL     1       1.160   8.328  20.485  0.00  0.00    +0.000 A 
ATOM     31  C   UNL     1       1.620   7.023  20.776  0.00  0.00    +0.000 A 
ATOM     32  C   UNL     1       2.337   6.285  19.845  0.00  0.00    +0.000 A 
ATOM     33  F   UNL     1       2.757   5.052  20.157  0.00  0.00    +0.000 F 
ATOM     34  C   UNL     1       2.624   6.810  18.602  0.00  0.00    +0.000 A 
ATOM     35  C   UNL     1       2.197   8.102  18.301  0.00  0.00    +0.000 A 
ATOM     36  C   UNL     1       1.471   8.897  19.229  0.00  0.00    +0.000 A 
ENDBRANCH  28  36
ENDBRANCH   1  28
TORSDOF 5
ENDMDL
MODEL 7
REMARK VINA RESULT:      -7.4      5.526      8.902
REMARK  Name = 
REMARK  8 active torsions:
REMARK  status: ('A' for Active; 'I' for Inactive)
REMARK    1  A    between atoms: C_1  and  C_2
REMARK    2  A    between atoms: C_8  and  C_9
REMARK    3  A    between atoms: C_9  and  N_10
REMARK    4  A    between atoms: C_14  and  N_15
REMARK    5  A    between atoms: N_15  and  S_16
REMARK    6  A    between atoms: S_16  and  C_17
REMARK    7  A    between atoms: C_21  and  C_22
REMARK    8  A    between atoms: N_24  and  C_25
REMARK                            x       y       z     vdW  Elec       q    Type
REMARK                         _______ _______ _______ _____ _____    ______ ____
ROOT
ATOM      1  N   UNL     1      -1.024  11.278  18.427  0.00  0.00    +0.000 N 
ATOM      2  C   UNL     1      -1.699  10.447  17.566  0.00  0.00    +0.000 A 
ATOM      3  C   UNL     1      -3.048  10.663  17.729  0.00  0.00    +0.000 A 
ATOM      4  C   UNL     1      -3.214  11.647  18.745  0.00  0.00    +0.000 A 
ATOM      5  C   UNL     1      -4.328  12.206  19.409  0.00  0.00    +0.000 A 
ATOM      6  C   UNL     1      -4.131  13.177  20.396  0.00  0.00    +0.000 A 
ATOM      7  C   UNL     1      -2.844  13.558  20.797  0.00  0.00    +0.000 A 
ATOM      8  C   UNL     1      -1.728  13.002  20.154  0.00  0.00    +0.000 A 
ATOM      9  C   UNL     1      -1.932  12.041  19.144  0.00  0.00    +0.000 A 
ENDROOT
BRANCH   7  10
ATOM     10  C   UNL     1      -2.659  14.399  21.977  0.00  0.00    +0.000 A 
ATOM     11  C   UNL     1      -1.410  14.905  22.317  0.00  0.00    +0.000 A 
ATOM     12  N   UNL     1      -1.539  15.752  23.389  0.00  0.00    +0.000 N 
ATOM     13  C   UNL     1      -0.449  16.485  23.992  0.00  0.00    +0.000 C 
ATOM     14  C   UNL     1      -2.855  15.825  23.748  0.00  0.00    +0.000 A 
ATOM     15  C   UNL     1      -3.466  16.622  24.790  0.00  0.00    +0.000 A 
ATOM     16  O   UNL     1      -2.863  17.374  25.550  0.00  0.00    +0.000 OA
ATOM     17  N   UNL     1      -4.847  16.474  24.862  0.00  0.00    +0.000 N 
ATOM     18  C   UNL     1      -5.578  15.634  24.042  0.00  0.00    +0.000 A 
ATOM     19  C   UNL     1      -4.979  14.898  23.088  0.00  0.00    +0.000 A 
ATOM     20  C   UNL     1      -3.565  14.986  22.903  0.00  0.00    +0.000 A 
ATOM     21  H   UNL     1      -5.306  17.023  25.577  0.00  0.00    +0.000 HD
ENDBRANCH   7  10
BRANCH   5  22
ATOM     22  N   UNL     1      -5.647  11.683  19.236  0.00  0.00    +0.000 N 
ATOM     23  H   UNL     1      -6.104  11.999  18.378  0.00  0.00    +0.000 HD
BRANCH  22  24
ATOM     24  S   UNL     1      -6.737  11.750  20.513  0.00  0.00    +0.000 S 
ATOM     25  C   UNL     1      -7.550  10.174  20.357  0.00  0.00    +0.000 C 
ATOM     26  O   UNL     1      -6.042  11.807  21.776  0.00  0.00    +0.000 OA
ATOM     27  O   UNL     1      -7.699  12.766  20.133  0.00  0.00    +0.000 OA
ENDBRANCH  22  24
ENDBRANCH   5  22
BRANCH   1  28
ATOM     28  C   UNL     1       0.398  11.159  18.729  0.00  0.00    +0.000 C 
BRANCH  28  36
ATOM     29  C   UNL     1       0.046   9.721  21.598  0.00  0.00    +0.000 C 
ATOM     30  C   UNL     1       0.826   9.182  20.431  0.00  0.00    +0.000 A 
ATOM     31  C   UNL     1       1.496   7.956  20.645  0.00  0.00    +0.000 A 
ATOM     32  C   UNL     1       2.248   7.357  19.644  0.00  0.00    +0.000 A 
ATOM     33  F   UNL     1       2.869   6.196  19.884  0.00  0.00    +0.000 F 
ATOM     34  C   UNL     1       2.363   7.949  18.403  0.00  0.00    +0.000 A 
ATOM     35  C   UNL     1       1.726   9.168  18.175  0.00  0.00    +0.000 A 
ATOM     36  C   UNL     1       0.957   9.821  19.177  0.00  0.00    +0.000 A 
ENDBRANCH  28  36
ENDBRANCH   1  28
TORSDOF 5
ENDMDL
MODEL 8
REMARK VINA RESULT:      -7.4      4.600      7.592
REMARK  Name = 
REMARK  8 active torsions:
REMARK  status: ('A' for Active; 'I' for Inactive)
REMARK    1  A    between atoms: C_1  and  C_2
REMARK    2  A    between atoms: C_8  and  C_9
REMARK    3  A    between atoms: C_9  and  N_10
REMARK    4  A    between atoms: C_14  and  N_15
REMARK    5  A    between atoms: N_15  and  S_16
REMARK    6  A    between atoms: S_16  and  C_17
REMARK    7  A    between atoms: C_21  and  C_22
REMARK    8  A    between atoms: N_24  and  C_25
REMARK                            x       y       z     vdW  Elec       q    Type
REMARK                         _______ _______ _______ _____ _____    ______ ____
ROOT
ATOM      1  N   UNL     1       0.983   8.815  20.706  0.00  0.00    +0.000 N 
ATOM      2  C   UNL     1       0.226   8.151  21.642  0.00  0.00    +0.000 A 
ATOM      3  C   UNL     1      -0.571   9.073  22.281  0.00  0.00    +0.000 A 
ATOM      4  C   UNL     1      -0.279  10.356  21.737  0.00  0.00    +0.000 A 
ATOM      5  C   UNL     1      -0.688  11.674  22.038  0.00  0.00    +0.000 A 
ATOM      6  C   UNL     1      -0.187  12.743  21.288  0.00  0.00    +0.000 A 
ATOM      7  C   UNL     1       0.774  12.544  20.288  0.00  0.00    +0.000 A 
ATOM      8  C   UNL     1       1.198  11.242  19.988  0.00  0.00    +0.000 A 
ATOM      9  C   UNL     1       0.673  10.166  20.730  0.00  0.00    +0.000 A 
ENDROOT
BRANCH   7  10
ATOM     10  C   UNL     1       1.448  13.688  19.677  0.00  0.00    +0.000 A 
ATOM     11  C   UNL     1       2.795  13.638  19.341  0.00  0.00    +0.000 A 
ATOM     12  N   UNL     1       3.141  14.790  18.679  0.00  0.00    +0.000 N 
ATOM     13  C   UNL     1       4.457  15.070  18.151  0.00  0.00    +0.000 C 
ATOM     14  C   UNL     1       2.039  15.588  18.560  0.00  0.00    +0.000 A 
ATOM     15  C   UNL     1       1.917  16.872  17.903  0.00  0.00    +0.000 A 
ATOM     16  O   UNL     1       2.832  17.468  17.343  0.00  0.00    +0.000 OA
ATOM     17  N   UNL     1       0.631  17.396  17.948  0.00  0.00    +0.000 N 
ATOM     18  C   UNL     1      -0.436  16.778  18.574  0.00  0.00    +0.000 A 
ATOM     19  C   UNL     1      -0.289  15.587  19.185  0.00  0.00    +0.000 A 
ATOM     20  C   UNL     1       0.984  14.938  19.183  0.00  0.00    +0.000 A 
ATOM     21  H   UNL     1       0.510  18.292  17.493  0.00  0.00    +0.000 HD
ENDBRANCH   7  10
BRANCH   5  22
ATOM     22  N   UNL     1      -1.461  11.975  23.202  0.00  0.00    +0.000 N 
ATOM     23  H   UNL     1      -1.438  11.239  23.911  0.00  0.00    +0.000 HD
BRANCH  22  24
ATOM     24  S   UNL     1      -3.034  12.540  23.026  0.00  0.00    +0.000 S 
ATOM     25  C   UNL     1      -2.842  14.249  23.487  0.00  0.00    +0.000 C 
ATOM     26  O   UNL     1      -3.456  12.460  21.649  0.00  0.00    +0.000 OA
ATOM     27  O   UNL     1      -3.786  11.894  24.085  0.00  0.00    +0.000 OA
ENDBRANCH  22  24
ENDBRANCH   5  22
BRANCH   1  28
ATOM     28  C   UNL     1       2.123   8.226  20.012  0.00  0.00    +0.000 C 
BRANCH  28  36
ATOM     29  C   UNL     1       3.436   6.733  17.468  0.00  0.00    +0.000 C 
ATOM     30  C   UNL     1       2.674   6.071  18.583  0.00  0.00    +0.000 A 
ATOM     31  C   UNL     1       2.487   4.675  18.463  0.00  0.00    +0.000 A 
ATOM     32  C   UNL     1       1.801   3.952  19.430  0.00  0.00    +0.000 A 
ATOM     33  F   UNL     1       1.643   2.631  19.282  0.00  0.00    +0.000 F 
ATOM     34  C   UNL     1       1.278   4.583  20.540  0.00  0.00    +0.000 A 
ATOM     35  C   UNL     1       1.434   5.962  20.668  0.00  0.00    +0.000 A 
ATOM     36  C   UNL     1       2.119   6.742  19.696  0.00  0.00    +0.000 A 
ENDBRANCH  28  36
ENDBRANCH   1  28
TORSDOF 5
ENDMDL
MODEL 9
REMARK VINA RESULT:      -7.3      5.005      8.400
REMARK  Name = 
REMARK  8 active torsions:
REMARK  status: ('A' for Active; 'I' for Inactive)
REMARK    1  A    between atoms: C_1  and  C_2
REMARK    2  A    between atoms: C_8  and  C_9
REMARK    3  A    between atoms: C_9  and  N_10
REMARK    4  A    between atoms: C_14  and  N_15
REMARK    5  A    between atoms: N_15  and  S_16
REMARK    6  A    between atoms: S_16  and  C_17
REMARK    7  A    between atoms: C_21  and  C_22
REMARK    8  A    between atoms: N_24  and  C_25
REMARK                            x       y       z     vdW  Elec       q    Type
REMARK                         _______ _______ _______ _____ _____    ______ ____
ROOT
ATOM      1  N   UNL     1       1.401  10.978  18.423  0.00  0.00    +0.000 N 
ATOM      2  C   UNL     1       2.561  11.683  18.210  0.00  0.00    +0.000 A 
ATOM      3  C   UNL     1       2.353  12.982  18.613  0.00  0.00    +0.000 A 
ATOM      4  C   UNL     1       1.009  13.090  19.070  0.00  0.00    +0.000 A 
ATOM      5  C   UNL     1       0.194  14.158  19.506  0.00  0.00    +0.000 A 
ATOM      6  C   UNL     1      -1.129  13.910  19.887  0.00  0.00    +0.000 A 
ATOM      7  C   UNL     1      -1.692  12.631  19.777  0.00  0.00    +0.000 A 
ATOM      8  C   UNL     1      -0.897  11.564  19.332  0.00  0.00    +0.000 A 
ATOM      9  C   UNL     1       0.441  11.814  18.972  0.00  0.00    +0.000 A 
ENDROOT
BRANCH   7  10
ATOM     10  C   UNL     1      -3.128  12.441  19.962  0.00  0.00    +0.000 A 
ATOM     11  C   UNL     1      -3.755  12.784  21.154  0.00  0.00    +0.000 A 
ATOM     12  N   UNL     1      -5.110  12.618  21.019  0.00  0.00    +0.000 N 
ATOM     13  C   UNL     1      -6.081  12.912  22.049  0.00  0.00    +0.000 C 
ATOM     14  C   UNL     1      -5.386  12.188  19.752  0.00  0.00    +0.000 A 
ATOM     15  C   UNL     1      -6.673  11.921  19.146  0.00  0.00    +0.000 A 
ATOM     16  O   UNL     1      -7.757  12.033  19.712  0.00  0.00    +0.000 OA
ATOM     17  N   UNL     1      -6.587  11.522  17.818  0.00  0.00    +0.000 N 
ATOM     18  C   UNL     1      -5.397  11.366  17.132  0.00  0.00    +0.000 A 
ATOM     19  C   UNL     1      -4.214  11.613  17.726  0.00  0.00    +0.000 A 
ATOM     20  C   UNL     1      -4.178  12.054  19.085  0.00  0.00    +0.000 A 
ATOM     21  H   UNL     1      -7.471  11.333  17.363  0.00  0.00    +0.000 HD
ENDBRANCH   7  10
BRANCH   5  22
ATOM     22  N   UNL     1       0.618  15.518  19.401  0.00  0.00    +0.000 N 
ATOM     23  H   UNL     1       1.221  15.699  18.596  0.00  0.00    +0.000 HD
BRANCH  22  24
ATOM     24  S   UNL     1       1.235  16.299  20.756  0.00  0.00    +0.000 S 
ATOM     25  C   UNL     1       2.736  16.996  20.100  0.00  0.00    +0.000 C 
ATOM     26  O   UNL     1       0.357  17.363  21.177  0.00  0.00    +0.000 OA
ATOM     27  O   UNL     1       1.619  15.232  21.660  0.00  0.00    +0.000 OA
ENDBRANCH  22  24
ENDBRANCH   5  22
BRANCH   1  28
ATOM     28  C   UNL     1       1.147   9.644  17.888  0.00  0.00    +0.000 C 
BRANCH  28  36
ATOM     29  C   UNL     1       0.769   8.669  20.943  0.00  0.00    +0.000 C 
ATOM     30  C   UNL     1       1.629   8.003  19.905  0.00  0.00    +0.000 A 
ATOM     31  C   UNL     1       2.366   6.877  20.338  0.00  0.00    +0.000 A 
ATOM     32  C   UNL     1       3.194   6.177  19.471  0.00  0.00    +0.000 A 
ATOM     33  F   UNL     1       3.876   5.116  19.918  0.00  0.00    +0.000 F 
ATOM     34  C   UNL     1       3.321   6.567  18.154  0.00  0.00    +0.000 A 
ATOM     35  C   UNL     1       2.618   7.685  17.710  0.00  0.00    +0.000 A 
ATOM     36  C   UNL     1       1.770   8.438  18.567  0.00  0.00    +0.000 A 
ENDBRANCH  28  36
ENDBRANCH   1  28
TORSDOF 5
ENDMDL
