MODEL 1
REMARK VINA RESULT:      -7.6      0.000      0.000
REMARK  Name = 
REMARK  0 active torsions:
REMARK  status: ('A' for Active; 'I' for Inactive)
REMARK                            x       y       z     vdW  Elec       q    Type
REMARK                         _______ _______ _______ _____ _____    ______ ____
ROOT
ATOM      1  O   UNL     1       8.224   6.978  16.455  0.00  0.00    +0.000 OA
ATOM      2  C   UNL     1       7.290   6.533  17.112  0.00  0.00    +0.000 C 
ATOM      3  N   UNL     1       7.081   6.924  18.430  0.00  0.00    +0.000 N 
ATOM      4  C   UNL     1       5.946   6.330  19.105  0.00  0.00    +0.000 C 
ATOM      5  C   UNL     1       5.427   5.480  18.025  0.00  0.00    +0.000 A 
ATOM      6  C   UNL     1       6.226   5.602  16.844  0.00  0.00    +0.000 A 
ATOM      7  C   UNL     1       5.864   4.843  15.700  0.00  0.00    +0.000 A 
ATOM      8  C   UNL     1       6.491   4.807  14.454  0.00  0.00    +0.000 A 
ATOM      9  C   UNL     1       7.597   5.389  13.805  0.00  0.00    +0.000 A 
ATOM     10  C   UNL     1       7.884   5.055  12.473  0.00  0.00    +0.000 A 
ATOM     11  C   UNL     1       7.089   4.151  11.775  0.00  0.00    +0.000 A 
ATOM     12  C   UNL     1       5.988   3.558  12.392  0.00  0.00    +0.000 A 
ATOM     13 CL   UNL     1       5.007   2.441  11.527  0.00  0.00    +0.000 Cl
ATOM     14  C   UNL     1       5.702   3.892  13.721  0.00  0.00    +0.000 A 
ATOM     15  N   UNL     1       4.672   3.441  14.542  0.00  0.00    +0.000 N 
ATOM     16  C   UNL     1       4.775   4.032  15.765  0.00  0.00    +0.000 A 
ATOM     17  C   UNL     1       4.013   3.921  16.902  0.00  0.00    +0.000 A 
ATOM     18  N   UNL     1       2.902   3.191  17.194  0.00  0.00    +0.000 N 
ATOM     19  C   UNL     1       2.514   3.441  18.509  0.00  0.00    +0.000 A 
ATOM     20  C   UNL     1       1.437   2.917  19.234  0.00  0.00    +0.000 A 
ATOM     21 CL   UNL     1       0.356   1.787  18.520  0.00  0.00    +0.000 Cl
ATOM     22  C   UNL     1       1.257   3.330  20.554  0.00  0.00    +0.000 A 
ATOM     23  C   UNL     1       2.132   4.245  21.134  0.00  0.00    +0.000 A 
ATOM     24  C   UNL     1       3.212   4.773  20.409  0.00  0.00    +0.000 A 
ATOM     25  C   UNL     1       3.416   4.371  19.073  0.00  0.00    +0.000 A 
ATOM     26  C   UNL     1       4.304   4.618  18.029  0.00  0.00    +0.000 A 
ATOM     27  H   UNL     1       7.714   7.588  18.851  0.00  0.00    +0.000 HD
ATOM     28  H   UNL     1       3.969   2.778  14.250  0.00  0.00    +0.000 HD
ATOM     29  H   UNL     1       2.417   2.559  16.574  0.00  0.00    +0.000 HD
ENDROOT
TORSDOF 0
ENDMDL
MODEL 2
REMARK VINA RESULT:      -7.1     12.018     13.821
REMARK  Name = 
REMARK  0 active torsions:
REMARK  status: ('A' for Active; 'I' for Inactive)
REMARK                            x       y       z     vdW  Elec       q    Type
REMARK                         _______ _______ _______ _____ _____    ______ ____
ROOT
ATOM      1  O   UNL     1      -7.000  11.819  17.788  0.00  0.00    +0.000 OA
ATOM      2  C   UNL     1      -6.739  12.501  18.772  0.00  0.00    +0.000 C 
ATOM      3  N   UNL     1      -7.721  13.245  19.417  0.00  0.00    +0.000 N 
ATOM      4  C   UNL     1      -7.294  14.013  20.568  0.00  0.00    +0.000 C 
ATOM      5  C   UNL     1      -5.867  13.662  20.590  0.00  0.00    +0.000 A 
ATOM      6  C   UNL     1      -5.541  12.765  19.523  0.00  0.00    +0.000 A 
ATOM      7  C   UNL     1      -4.198  12.324  19.397  0.00  0.00    +0.000 A 
ATOM      8  C   UNL     1      -3.659  11.458  18.444  0.00  0.00    +0.000 A 
ATOM      9  C   UNL     1      -4.083  10.714  17.326  0.00  0.00    +0.000 A 
ATOM     10  C   UNL     1      -3.162   9.932  16.614  0.00  0.00    +0.000 A 
ATOM     11  C   UNL     1      -1.824   9.878  16.995  0.00  0.00    +0.000 A 
ATOM     12  C   UNL     1      -1.375  10.604  18.097  0.00  0.00    +0.000 A 
ATOM     13 CL   UNL     1       0.278  10.535  18.566  0.00  0.00    +0.000 Cl
ATOM     14  C   UNL     1      -2.296  11.384  18.807  0.00  0.00    +0.000 A 
ATOM     15  N   UNL     1      -2.094  12.186  19.927  0.00  0.00    +0.000 N 
ATOM     16  C   UNL     1      -3.272  12.766  20.289  0.00  0.00    +0.000 A 
ATOM     17  C   UNL     1      -3.594  13.625  21.310  0.00  0.00    +0.000 A 
ATOM     18  N   UNL     1      -2.853  14.187  22.304  0.00  0.00    +0.000 N 
ATOM     19  C   UNL     1      -3.669  14.998  23.091  0.00  0.00    +0.000 A 
ATOM     20  C   UNL     1      -3.341  15.768  24.215  0.00  0.00    +0.000 A 
ATOM     21 CL   UNL     1      -1.732  15.812  24.818  0.00  0.00    +0.000 Cl
ATOM     22  C   UNL     1      -4.350  16.502  24.837  0.00  0.00    +0.000 A 
ATOM     23  C   UNL     1      -5.654  16.467  24.349  0.00  0.00    +0.000 A 
ATOM     24  C   UNL     1      -5.985  15.696  23.224  0.00  0.00    +0.000 A 
ATOM     25  C   UNL     1      -4.983  14.945  22.576  0.00  0.00    +0.000 A 
ATOM     26  C   UNL     1      -4.858  14.084  21.487  0.00  0.00    +0.000 A 
ATOM     27  H   UNL     1      -8.667  13.220  19.065  0.00  0.00    +0.000 HD
ATOM     28  H   UNL     1      -1.200  12.302  20.383  0.00  0.00    +0.000 HD
ATOM     29  H   UNL     1      -1.865  14.056  22.466  0.00  0.00    +0.000 HD
ENDROOT
TORSDOF 0
ENDMDL
MODEL 3
REMARK VINA RESULT:      -6.9     12.053     14.797
REMARK  Name = 
REMARK  0 active torsions:
REMARK  status: ('A' for Active; 'I' for Inactive)
REMARK                            x       y       z     vdW  Elec       q    Type
REMARK                         _______ _______ _______ _____ _____    ______ ____
ROOT
ATOM      1  O   UNL     1      -7.818  14.744  21.350  0.00  0.00    +0.000 OA
ATOM      2  C   UNL     1      -7.072  14.041  20.678  0.00  0.00    +0.000 C 
ATOM      3  N   UNL     1      -7.542  13.334  19.577  0.00  0.00    +0.000 N 
ATOM      4  C   UNL     1      -6.569  12.535  18.862  0.00  0.00    +0.000 C 
ATOM      5  C   UNL     1      -5.370  12.823  19.662  0.00  0.00    +0.000 A 
ATOM      6  C   UNL     1      -5.672  13.716  20.738  0.00  0.00    +0.000 A 
ATOM      7  C   UNL     1      -4.623  14.099  21.614  0.00  0.00    +0.000 A 
ATOM      8  C   UNL     1      -4.687  14.951  22.718  0.00  0.00    +0.000 A 
ATOM      9  C   UNL     1      -5.640  15.724  23.408  0.00  0.00    +0.000 A 
ATOM     10  C   UNL     1      -5.256  16.473  24.531  0.00  0.00    +0.000 A 
ATOM     11  C   UNL     1      -3.939  16.464  24.980  0.00  0.00    +0.000 A 
ATOM     12  C   UNL     1      -2.973  15.707  24.317  0.00  0.00    +0.000 A 
ATOM     13 CL   UNL     1      -1.347  15.698  24.875  0.00  0.00    +0.000 Cl
ATOM     14  C   UNL     1      -3.358  14.961  23.197  0.00  0.00    +0.000 A 
ATOM     15  N   UNL     1      -2.588  14.139  22.378  0.00  0.00    +0.000 N 
ATOM     16  C   UNL     1      -3.373  13.608  21.401  0.00  0.00    +0.000 A 
ATOM     17  C   UNL     1      -3.092  12.752  20.364  0.00  0.00    +0.000 A 
ATOM     18  N   UNL     1      -1.942  12.147  19.961  0.00  0.00    +0.000 N 
ATOM     19  C   UNL     1      -2.197  11.365  18.836  0.00  0.00    +0.000 A 
ATOM     20  C   UNL     1      -1.321  10.570  18.087  0.00  0.00    +0.000 A 
ATOM     21 CL   UNL     1       0.342  10.449  18.506  0.00  0.00    +0.000 Cl
ATOM     22  C   UNL     1      -1.826   9.874  16.989  0.00  0.00    +0.000 A 
ATOM     23  C   UNL     1      -3.173   9.971  16.648  0.00  0.00    +0.000 A 
ATOM     24  C   UNL     1      -4.053  10.767  17.397  0.00  0.00    +0.000 A 
ATOM     25  C   UNL     1      -3.568  11.481  18.512  0.00  0.00    +0.000 A 
ATOM     26  C   UNL     1      -4.048  12.347  19.492  0.00  0.00    +0.000 A 
ATOM     27  H   UNL     1      -8.518  13.403  19.328  0.00  0.00    +0.000 HD
ATOM     28  H   UNL     1      -1.600  13.979  22.511  0.00  0.00    +0.000 HD
ATOM     29  H   UNL     1      -1.033  12.233  20.392  0.00  0.00    +0.000 HD
ENDROOT
TORSDOF 0
ENDMDL
MODEL 4
REMARK VINA RESULT:      -6.8     11.923     14.581
REMARK  Name = 
REMARK  0 active torsions:
REMARK  status: ('A' for Active; 'I' for Inactive)
REMARK                            x       y       z     vdW  Elec       q    Type
REMARK                         _______ _______ _______ _____ _____    ______ ____
ROOT
ATOM      1  O   UNL     1      -7.916  13.566  18.140  0.00  0.00    +0.000 OA
ATOM      2  C   UNL     1      -6.822  13.016  18.093  0.00  0.00    +0.000 C 
ATOM      3  N   UNL     1      -6.467  12.202  17.023  0.00  0.00    +0.000 N 
ATOM      4  C   UNL     1      -5.149  11.606  17.078  0.00  0.00    +0.000 C 
ATOM      5  C   UNL     1      -4.677  12.154  18.357  0.00  0.00    +0.000 A 
ATOM      6  C   UNL     1      -5.671  12.990  18.956  0.00  0.00    +0.000 A 
ATOM      7  C   UNL     1      -5.378  13.603  20.203  0.00  0.00    +0.000 A 
ATOM      8  C   UNL     1      -6.189  14.449  20.961  0.00  0.00    +0.000 A 
ATOM      9  C   UNL     1      -7.473  15.024  20.900  0.00  0.00    +0.000 A 
ATOM     10  C   UNL     1      -7.916  15.862  21.934  0.00  0.00    +0.000 A 
ATOM     11  C   UNL     1      -7.103  16.137  23.030  0.00  0.00    +0.000 A 
ATOM     12  C   UNL     1      -5.827  15.581  23.118  0.00  0.00    +0.000 A 
ATOM     13 CL   UNL     1      -4.825  15.922  24.473  0.00  0.00    +0.000 Cl
ATOM     14  C   UNL     1      -5.386  14.745  22.085  0.00  0.00    +0.000 A 
ATOM     15  N   UNL     1      -4.170  14.081  21.946  0.00  0.00    +0.000 N 
ATOM     16  C   UNL     1      -4.169  13.376  20.781  0.00  0.00    +0.000 A 
ATOM     17  C   UNL     1      -3.220  12.573  20.198  0.00  0.00    +0.000 A 
ATOM     18  N   UNL     1      -1.965  12.210  20.581  0.00  0.00    +0.000 N 
ATOM     19  C   UNL     1      -1.412  11.366  19.619  0.00  0.00    +0.000 A 
ATOM     20  C   UNL     1      -0.153  10.752  19.592  0.00  0.00    +0.000 A 
ATOM     21 CL   UNL     1       0.974  10.988  20.869  0.00  0.00    +0.000 Cl
ATOM     22  C   UNL     1       0.169   9.941  18.505  0.00  0.00    +0.000 A 
ATOM     23  C   UNL     1      -0.743   9.749  17.470  0.00  0.00    +0.000 A 
ATOM     24  C   UNL     1      -2.005  10.363  17.495  0.00  0.00    +0.000 A 
ATOM     25  C   UNL     1      -2.355  11.188  18.583  0.00  0.00    +0.000 A 
ATOM     26  C   UNL     1      -3.436  11.958  19.009  0.00  0.00    +0.000 A 
ATOM     27  H   UNL     1      -7.127  12.062  16.272  0.00  0.00    +0.000 HD
ATOM     28  H   UNL     1      -3.421  14.132  22.621  0.00  0.00    +0.000 HD
ATOM     29  H   UNL     1      -1.487  12.493  21.424  0.00  0.00    +0.000 HD
ENDROOT
TORSDOF 0
ENDMDL
MODEL 5
REMARK VINA RESULT:      -6.8     11.594     13.337
REMARK  Name = 
REMARK  0 active torsions:
REMARK  status: ('A' for Active; 'I' for Inactive)
REMARK                            x       y       z     vdW  Elec       q    Type
REMARK                         _______ _______ _______ _____ _____    ______ ____
ROOT
ATOM      1  O   UNL     1      -4.637  10.651  16.414  0.00  0.00    +0.000 OA
ATOM      2  C   UNL     1      -5.070  11.408  17.275  0.00  0.00    +0.000 C 
ATOM      3  N   UNL     1      -6.366  11.909  17.212  0.00  0.00    +0.000 N 
ATOM      4  C   UNL     1      -6.766  12.795  18.284  0.00  0.00    +0.000 C 
ATOM      5  C   UNL     1      -5.528  12.807  19.077  0.00  0.00    +0.000 A 
ATOM      6  C   UNL     1      -4.525  11.984  18.475  0.00  0.00    +0.000 A 
ATOM      7  C   UNL     1      -3.260  11.882  19.113  0.00  0.00    +0.000 A 
ATOM      8  C   UNL     1      -2.146  11.144  18.711  0.00  0.00    +0.000 A 
ATOM      9  C   UNL     1      -1.765  10.283  17.663  0.00  0.00    +0.000 A 
ATOM     10  C   UNL     1      -0.477   9.728  17.645  0.00  0.00    +0.000 A 
ATOM     11  C   UNL     1       0.440  10.017  18.651  0.00  0.00    +0.000 A 
ATOM     12  C   UNL     1       0.092  10.867  19.700  0.00  0.00    +0.000 A 
ATOM     13 CL   UNL     1       1.228  11.222  20.941  0.00  0.00    +0.000 Cl
ATOM     14  C   UNL     1      -1.194  11.419  19.717  0.00  0.00    +0.000 A 
ATOM     15  N   UNL     1      -1.771  12.283  20.645  0.00  0.00    +0.000 N 
ATOM     16  C   UNL     1      -3.049  12.567  20.269  0.00  0.00    +0.000 A 
ATOM     17  C   UNL     1      -4.018  13.353  20.840  0.00  0.00    +0.000 A 
ATOM     18  N   UNL     1      -4.035  14.113  21.969  0.00  0.00    +0.000 N 
ATOM     19  C   UNL     1      -5.281  14.723  22.100  0.00  0.00    +0.000 A 
ATOM     20  C   UNL     1      -5.749  15.586  23.099  0.00  0.00    +0.000 A 
ATOM     21 CL   UNL     1      -4.742  16.044  24.416  0.00  0.00    +0.000 Cl
ATOM     22  C   UNL     1      -7.053  16.070  23.005  0.00  0.00    +0.000 A 
ATOM     23  C   UNL     1      -7.870  15.700  21.940  0.00  0.00    +0.000 A 
ATOM     24  C   UNL     1      -7.403  14.835  20.937  0.00  0.00    +0.000 A 
ATOM     25  C   UNL     1      -6.088  14.332  21.009  0.00  0.00    +0.000 A 
ATOM     26  C   UNL     1      -5.246  13.494  20.282  0.00  0.00    +0.000 A 
ATOM     27  H   UNL     1      -6.959  11.641  16.440  0.00  0.00    +0.000 HD
ATOM     28  H   UNL     1      -1.293  12.630  21.464  0.00  0.00    +0.000 HD
ATOM     29  H   UNL     1      -3.277  14.234  22.625  0.00  0.00    +0.000 HD
ENDROOT
TORSDOF 0
ENDMDL
MODEL 6
REMARK VINA RESULT:      -6.7      9.499     11.676
REMARK  Name = 
REMARK  0 active torsions:
REMARK  status: ('A' for Active; 'I' for Inactive)
REMARK                            x       y       z     vdW  Elec       q    Type
REMARK                         _______ _______ _______ _____ _____    ______ ____
ROOT
ATOM      1  O   UNL     1      11.262  16.276  20.526  0.00  0.00    +0.000 OA
ATOM      2  C   UNL     1      10.677  15.967  21.558  0.00  0.00    +0.000 C 
ATOM      3  N   UNL     1      10.588  16.849  22.630  0.00  0.00    +0.000 N 
ATOM      4  C   UNL     1       9.875  16.373  23.796  0.00  0.00    +0.000 C 
ATOM      5  C   UNL     1       9.498  15.031  23.331  0.00  0.00    +0.000 A 
ATOM      6  C   UNL     1       9.976  14.793  22.004  0.00  0.00    +0.000 A 
ATOM      7  C   UNL     1       9.699  13.539  21.399  0.00  0.00    +0.000 A 
ATOM      8  C   UNL     1      10.062  13.094  20.127  0.00  0.00    +0.000 A 
ATOM      9  C   UNL     1      10.759  13.565  18.997  0.00  0.00    +0.000 A 
ATOM     10  C   UNL     1      10.897  12.746  17.866  0.00  0.00    +0.000 A 
ATOM     11  C   UNL     1      10.355  11.464  17.842  0.00  0.00    +0.000 A 
ATOM     12  C   UNL     1       9.661  10.971  18.946  0.00  0.00    +0.000 A 
ATOM     13 CL   UNL     1       8.992   9.387  18.913  0.00  0.00    +0.000 Cl
ATOM     14  C   UNL     1       9.523  11.790  20.073  0.00  0.00    +0.000 A 
ATOM     15  N   UNL     1       8.883  11.528  21.281  0.00  0.00    +0.000 N 
ATOM     16  C   UNL     1       8.993  12.611  22.099  0.00  0.00    +0.000 A 
ATOM     17  C   UNL     1       8.538  12.848  23.372  0.00  0.00    +0.000 A 
ATOM     18  N   UNL     1       7.824  12.088  24.247  0.00  0.00    +0.000 N 
ATOM     19  C   UNL     1       7.618  12.804  25.425  0.00  0.00    +0.000 A 
ATOM     20  C   UNL     1       6.943  12.424  26.591  0.00  0.00    +0.000 A 
ATOM     21 CL   UNL     1       6.214  10.873  26.726  0.00  0.00    +0.000 Cl
ATOM     22  C   UNL     1       6.873  13.331  27.647  0.00  0.00    +0.000 A 
ATOM     23  C   UNL     1       7.464  14.588  27.540  0.00  0.00    +0.000 A 
ATOM     24  C   UNL     1       8.141  14.972  26.372  0.00  0.00    +0.000 A 
ATOM     25  C   UNL     1       8.226  14.072  25.290  0.00  0.00    +0.000 A 
ATOM     26  C   UNL     1       8.767  14.024  24.007  0.00  0.00    +0.000 A 
ATOM     27  H   UNL     1      11.016  17.760  22.554  0.00  0.00    +0.000 HD
ATOM     28  H   UNL     1       8.414  10.658  21.493  0.00  0.00    +0.000 HD
ATOM     29  H   UNL     1       7.486  11.149  24.092  0.00  0.00    +0.000 HD
ENDROOT
TORSDOF 0
ENDMDL
MODEL 7
REMARK VINA RESULT:      -6.7      9.601     13.240
REMARK  Name = 
REMARK  0 active torsions:
REMARK  status: ('A' for Active; 'I' for Inactive)
REMARK                            x       y       z     vdW  Elec       q    Type
REMARK                         _______ _______ _______ _____ _____    ______ ____
ROOT
ATOM      1  O   UNL     1       9.745  17.078  24.664  0.00  0.00    +0.000 OA
ATOM      2  C   UNL     1       9.884  16.380  23.666  0.00  0.00    +0.000 C 
ATOM      3  N   UNL     1      10.566  16.846  22.548  0.00  0.00    +0.000 N 
ATOM      4  C   UNL     1      10.665  15.934  21.428  0.00  0.00    +0.000 C 
ATOM      5  C   UNL     1       9.939  14.781  21.978  0.00  0.00    +0.000 A 
ATOM      6  C   UNL     1       9.477  15.049  23.305  0.00  0.00    +0.000 A 
ATOM      7  C   UNL     1       8.753  14.036  23.987  0.00  0.00    +0.000 A 
ATOM      8  C   UNL     1       8.213  14.077  25.273  0.00  0.00    +0.000 A 
ATOM      9  C   UNL     1       8.121  14.970  26.358  0.00  0.00    +0.000 A 
ATOM     10  C   UNL     1       7.453  14.585  27.530  0.00  0.00    +0.000 A 
ATOM     11  C   UNL     1       6.872  13.325  27.640  0.00  0.00    +0.000 A 
ATOM     12  C   UNL     1       6.946  12.419  26.582  0.00  0.00    +0.000 A 
ATOM     13 CL   UNL     1       6.228  10.864  26.722  0.00  0.00    +0.000 Cl
ATOM     14  C   UNL     1       7.614  12.805  25.414  0.00  0.00    +0.000 A 
ATOM     15  N   UNL     1       7.820  12.088  24.238  0.00  0.00    +0.000 N 
ATOM     16  C   UNL     1       8.525  12.852  23.358  0.00  0.00    +0.000 A 
ATOM     17  C   UNL     1       8.973  12.603  22.084  0.00  0.00    +0.000 A 
ATOM     18  N   UNL     1       8.869  11.516  21.272  0.00  0.00    +0.000 N 
ATOM     19  C   UNL     1       9.505  11.779  20.059  0.00  0.00    +0.000 A 
ATOM     20  C   UNL     1       9.649  10.960  18.933  0.00  0.00    +0.000 A 
ATOM     21 CL   UNL     1       8.991   9.372  18.905  0.00  0.00    +0.000 Cl
ATOM     22  C   UNL     1      10.338  11.459  17.829  0.00  0.00    +0.000 A 
ATOM     23  C   UNL     1      10.872  12.745  17.850  0.00  0.00    +0.000 A 
ATOM     24  C   UNL     1      10.729  13.569  18.978  0.00  0.00    +0.000 A 
ATOM     25  C   UNL     1      10.037  13.087  20.108  0.00  0.00    +0.000 A 
ATOM     26  C   UNL     1       9.670  13.527  21.378  0.00  0.00    +0.000 A 
ATOM     27  H   UNL     1      10.954  17.779  22.562  0.00  0.00    +0.000 HD
ATOM     28  H   UNL     1       7.488  11.146  24.088  0.00  0.00    +0.000 HD
ATOM     29  H   UNL     1       8.407  10.645  21.488  0.00  0.00    +0.000 HD
ENDROOT
TORSDOF 0
ENDMDL
MODEL 8
REMARK VINA RESULT:      -6.7     10.518     12.853
REMARK  Name = 
REMARK  0 active torsions:
REMARK  status: ('A' for Active; 'I' for Inactive)
REMARK                            x       y       z     vdW  Elec       q    Type
REMARK                         _______ _______ _______ _____ _____    ______ ____
ROOT
ATOM      1  O   UNL     1      -2.839   9.566  17.100  0.00  0.00    +0.000 OA
ATOM      2  C   UNL     1      -2.018  10.239  17.710  0.00  0.00    +0.000 C 
ATOM      3  N   UNL     1      -0.653   9.997  17.593  0.00  0.00    +0.000 N 
ATOM      4  C   UNL     1       0.221  10.856  18.363  0.00  0.00    +0.000 C 
ATOM      5  C   UNL     1      -0.778  11.715  19.014  0.00  0.00    +0.000 A 
ATOM      6  C   UNL     1      -2.105  11.346  18.625  0.00  0.00    +0.000 A 
ATOM      7  C   UNL     1      -3.196  12.077  19.165  0.00  0.00    +0.000 A 
ATOM      8  C   UNL     1      -4.559  11.895  18.928  0.00  0.00    +0.000 A 
ATOM      9  C   UNL     1      -5.403  11.054  18.176  0.00  0.00    +0.000 A 
ATOM     10  C   UNL     1      -6.794  11.227  18.230  0.00  0.00    +0.000 A 
ATOM     11  C   UNL     1      -7.360  12.222  19.021  0.00  0.00    +0.000 A 
ATOM     12  C   UNL     1      -6.551  13.068  19.778  0.00  0.00    +0.000 A 
ATOM     13 CL   UNL     1      -7.254  14.296  20.754  0.00  0.00    +0.000 Cl
ATOM     14  C   UNL     1      -5.162  12.895  19.722  0.00  0.00    +0.000 A 
ATOM     15  N   UNL     1      -4.158  13.605  20.375  0.00  0.00    +0.000 N 
ATOM     16  C   UNL     1      -2.943  13.096  20.029  0.00  0.00    +0.000 A 
ATOM     17  C   UNL     1      -1.667  13.443  20.396  0.00  0.00    +0.000 A 
ATOM     18  N   UNL     1      -1.181  14.408  21.224  0.00  0.00    +0.000 N 
ATOM     19  C   UNL     1       0.211  14.338  21.253  0.00  0.00    +0.000 A 
ATOM     20  C   UNL     1       1.127  15.125  21.963  0.00  0.00    +0.000 A 
ATOM     21 CL   UNL     1       0.592  16.399  22.987  0.00  0.00    +0.000 Cl
ATOM     22  C   UNL     1       2.487  14.854  21.823  0.00  0.00    +0.000 A 
ATOM     23  C   UNL     1       2.921  13.823  20.994  0.00  0.00    +0.000 A 
ATOM     24  C   UNL     1       2.005  13.033  20.282  0.00  0.00    +0.000 A 
ATOM     25  C   UNL     1       0.624  13.287  20.406  0.00  0.00    +0.000 A 
ATOM     26  C   UNL     1      -0.581  12.787  19.917  0.00  0.00    +0.000 A 
ATOM     27  H   UNL     1      -0.337   9.250  16.992  0.00  0.00    +0.000 HD
ATOM     28  H   UNL     1      -4.332  14.375  21.004  0.00  0.00    +0.000 HD
ATOM     29  H   UNL     1      -1.723  15.080  21.748  0.00  0.00    +0.000 HD
ENDROOT
TORSDOF 0
ENDMDL
MODEL 9
REMARK VINA RESULT:      -6.6     10.884     12.519
REMARK  Name = 
REMARK  0 active torsions:
REMARK  status: ('A' for Active; 'I' for Inactive)
REMARK                            x       y       z     vdW  Elec       q    Type
REMARK                         _______ _______ _______ _____ _____    ______ ____
ROOT
ATOM      1  O   UNL     1       0.537  10.879  18.813  0.00  0.00    +0.000 OA
ATOM      2  C   UNL     1       0.147  11.557  19.755  0.00  0.00    +0.000 C 
ATOM      3  N   UNL     1       1.001  11.913  20.793  0.00  0.00    +0.000 N 
ATOM      4  C   UNL     1       0.427  12.715  21.853  0.00  0.00    +0.000 C 
ATOM      5  C   UNL     1      -0.951  12.842  21.355  0.00  0.00    +0.000 A 
ATOM      6  C   UNL     1      -1.113  12.153  20.111  0.00  0.00    +0.000 A 
ATOM      7  C   UNL     1      -2.389  12.173  19.489  0.00  0.00    +0.000 A 
ATOM      8  C   UNL     1      -2.773  11.578  18.286  0.00  0.00    +0.000 A 
ATOM      9  C   UNL     1      -2.206  10.797  17.260  0.00  0.00    +0.000 A 
ATOM     10  C   UNL     1      -2.992  10.394  16.171  0.00  0.00    +0.000 A 
ATOM     11  C   UNL     1      -4.334  10.753  16.086  0.00  0.00    +0.000 A 
ATOM     12  C   UNL     1      -4.923  11.525  17.086  0.00  0.00    +0.000 A 
ATOM     13 CL   UNL     1      -6.581  11.967  16.978  0.00  0.00    +0.000 Cl
ATOM     14  C   UNL     1      -4.137  11.927  18.173  0.00  0.00    +0.000 A 
ATOM     15  N   UNL     1      -4.490  12.692  19.281  0.00  0.00    +0.000 N 
ATOM     16  C   UNL     1      -3.407  12.842  20.093  0.00  0.00    +0.000 A 
ATOM     17  C   UNL     1      -3.241  13.501  21.286  0.00  0.00    +0.000 A 
ATOM     18  N   UNL     1      -4.096  14.224  22.061  0.00  0.00    +0.000 N 
ATOM     19  C   UNL     1      -3.421  14.687  23.190  0.00  0.00    +0.000 A 
ATOM     20  C   UNL     1      -3.895  15.465  24.253  0.00  0.00    +0.000 A 
ATOM     21 CL   UNL     1      -5.530  15.994  24.302  0.00  0.00    +0.000 Cl
ATOM     22  C   UNL     1      -3.012  15.803  25.278  0.00  0.00    +0.000 A 
ATOM     23  C   UNL     1      -1.687  15.375  25.240  0.00  0.00    +0.000 A 
ATOM     24  C   UNL     1      -1.210  14.595  24.175  0.00  0.00    +0.000 A 
ATOM     25  C   UNL     1      -2.082  14.240  23.126  0.00  0.00    +0.000 A 
ATOM     26  C   UNL     1      -2.049  13.521  21.933  0.00  0.00    +0.000 A 
ATOM     27  H   UNL     1       1.961  11.603  20.767  0.00  0.00    +0.000 HD
ATOM     28  H   UNL     1      -5.415  13.066  19.435  0.00  0.00    +0.000 HD
ATOM     29  H   UNL     1      -5.070  14.410  21.871  0.00  0.00    +0.000 HD
ENDROOT
TORSDOF 0
ENDMDL
