MODEL 1
REMARK VINA RESULT:      -7.0      0.000      0.000
REMARK  Name = 
REMARK  4 active torsions:
REMARK  status: ('A' for Active; 'I' for Inactive)
REMARK    1  A    between atoms: C_2  and  C_13
REMARK    2  A    between atoms: N_3  and  C_4
REMARK    3  A    between atoms: C_4  and  C_5
REMARK    4  A    between atoms: C_5  and  C_6
REMARK                            x       y       z     vdW  Elec       q    Type
REMARK                         _______ _______ _______ _____ _____    ______ ____
ROOT
ATOM      1  O   UNL     1       7.359   6.244  16.337  0.00  0.00    +0.000 OA
ATOM      2  C   UNL     1       6.838   5.184  16.007  0.00  0.00    +0.000 C 
ATOM      3  N   UNL     1       6.273   4.303  16.903  0.00  0.00    +0.000 N 
ATOM      4  H   UNL     1       6.021   3.369  16.605  0.00  0.00    +0.000 HD
ENDROOT
BRANCH   2   5
ATOM      5  C   UNL     1       6.829   4.776  14.582  0.00  0.00    +0.000 A 
ATOM      6  C   UNL     1       5.917   3.799  14.181  0.00  0.00    +0.000 A 
ATOM      7  C   UNL     1       5.922   3.415  12.855  0.00  0.00    +0.000 A 
ATOM      8  N   UNL     1       6.766   3.927  11.932  0.00  0.00    +0.000 NA
ATOM      9  C   UNL     1       7.654   4.853  12.355  0.00  0.00    +0.000 A 
ATOM     10  C   UNL     1       7.725   5.312  13.659  0.00  0.00    +0.000 A 
ENDBRANCH   2   5
BRANCH   3  11
ATOM     11  C   UNL     1       6.262   4.614  18.320  0.00  0.00    +0.000 C 
BRANCH  11  12
ATOM     12  C   UNL     1       5.008   5.367  18.773  0.00  0.00    +0.000 C 
BRANCH  12  13
ATOM     13  C   UNL     1       3.742   4.539  18.754  0.00  0.00    +0.000 A 
ATOM     14  C   UNL     1       2.693   4.865  17.879  0.00  0.00    +0.000 A 
ATOM     15  C   UNL     1       1.531   4.090  17.849  0.00  0.00    +0.000 A 
ATOM     16  C   UNL     1       1.421   2.987  18.687  0.00  0.00    +0.000 A 
ATOM     17  F   UNL     1       0.307   2.244  18.655  0.00  0.00    +0.000 F 
ATOM     18  C   UNL     1       2.450   2.641  19.552  0.00  0.00    +0.000 A 
ATOM     19  C   UNL     1       3.612   3.413  19.582  0.00  0.00    +0.000 A 
ENDBRANCH  12  13
ENDBRANCH  11  12
ENDBRANCH   3  11
TORSDOF 4
ENDMDL
MODEL 2
REMARK VINA RESULT:      -6.8      4.204      6.873
REMARK  Name = 
REMARK  4 active torsions:
REMARK  status: ('A' for Active; 'I' for Inactive)
REMARK    1  A    between atoms: C_2  and  C_13
REMARK    2  A    between atoms: N_3  and  C_4
REMARK    3  A    between atoms: C_4  and  C_5
REMARK    4  A    between atoms: C_5  and  C_6
REMARK                            x       y       z     vdW  Elec       q    Type
REMARK                         _______ _______ _______ _____ _____    ______ ____
ROOT
ATOM      1  O   UNL     1       3.519   5.528  19.930  0.00  0.00    +0.000 OA
ATOM      2  C   UNL     1       2.953   6.021  18.960  0.00  0.00    +0.000 C 
ATOM      3  N   UNL     1       2.912   5.425  17.719  0.00  0.00    +0.000 N 
ATOM      4  H   UNL     1       2.592   5.950  16.915  0.00  0.00    +0.000 HD
ENDROOT
BRANCH   2   5
ATOM      5  C   UNL     1       2.299   7.346  19.081  0.00  0.00    +0.000 A 
ATOM      6  C   UNL     1       1.757   7.704  20.315  0.00  0.00    +0.000 A 
ATOM      7  C   UNL     1       1.139   8.934  20.418  0.00  0.00    +0.000 A 
ATOM      8  N   UNL     1       1.024   9.801  19.387  0.00  0.00    +0.000 NA
ATOM      9  C   UNL     1       1.536   9.416  18.198  0.00  0.00    +0.000 A 
ATOM     10  C   UNL     1       2.181   8.210  17.993  0.00  0.00    +0.000 A 
ENDBRANCH   2   5
BRANCH   3  11
ATOM     11  C   UNL     1       3.548   4.138  17.510  0.00  0.00    +0.000 C 
BRANCH  11  12
ATOM     12  C   UNL     1       4.829   4.216  16.675  0.00  0.00    +0.000 C 
BRANCH  12  13
ATOM     13  C   UNL     1       5.881   5.149  17.231  0.00  0.00    +0.000 A 
ATOM     14  C   UNL     1       6.018   6.450  16.721  0.00  0.00    +0.000 A 
ATOM     15  C   UNL     1       6.978   7.318  17.246  0.00  0.00    +0.000 A 
ATOM     16  C   UNL     1       7.795   6.889  18.285  0.00  0.00    +0.000 A 
ATOM     17  F   UNL     1       8.713   7.723  18.789  0.00  0.00    +0.000 F 
ATOM     18  C   UNL     1       7.670   5.611  18.812  0.00  0.00    +0.000 A 
ATOM     19  C   UNL     1       6.710   4.743  18.289  0.00  0.00    +0.000 A 
ENDBRANCH  12  13
ENDBRANCH  11  12
ENDBRANCH   3  11
TORSDOF 4
ENDMDL
MODEL 3
REMARK VINA RESULT:      -6.8      0.702      1.738
REMARK  Name = 
REMARK  4 active torsions:
REMARK  status: ('A' for Active; 'I' for Inactive)
REMARK    1  A    between atoms: C_2  and  C_13
REMARK    2  A    between atoms: N_3  and  C_4
REMARK    3  A    between atoms: C_4  and  C_5
REMARK    4  A    between atoms: C_5  and  C_6
REMARK                            x       y       z     vdW  Elec       q    Type
REMARK                         _______ _______ _______ _____ _____    ______ ____
ROOT
ATOM      1  O   UNL     1       7.389   6.444  16.127  0.00  0.00    +0.000 OA
ATOM      2  C   UNL     1       7.085   5.270  15.947  0.00  0.00    +0.000 C 
ATOM      3  N   UNL     1       6.925   4.359  16.968  0.00  0.00    +0.000 N 
ATOM      4  H   UNL     1       6.852   3.372  16.758  0.00  0.00    +0.000 HD
ENDROOT
BRANCH   2   5
ATOM      5  C   UNL     1       6.907   4.757  14.567  0.00  0.00    +0.000 A 
ATOM      6  C   UNL     1       7.737   5.258  13.565  0.00  0.00    +0.000 A 
ATOM      7  C   UNL     1       7.558   4.785  12.280  0.00  0.00    +0.000 A 
ATOM      8  N   UNL     1       6.620   3.874  11.943  0.00  0.00    +0.000 NA
ATOM      9  C   UNL     1       5.814   3.425  12.930  0.00  0.00    +0.000 A 
ATOM     10  C   UNL     1       5.916   3.828  14.250  0.00  0.00    +0.000 A 
ENDBRANCH   2   5
BRANCH   3  11
ATOM     11  C   UNL     1       7.105   4.774  18.346  0.00  0.00    +0.000 C 
BRANCH  11  12
ATOM     12  C   UNL     1       5.817   5.265  19.012  0.00  0.00    +0.000 C 
BRANCH  12  13
ATOM     13  C   UNL     1       4.611   4.386  18.761  0.00  0.00    +0.000 A 
ATOM     14  C   UNL     1       4.480   3.153  19.421  0.00  0.00    +0.000 A 
ATOM     15  C   UNL     1       3.358   2.351  19.203  0.00  0.00    +0.000 A 
ATOM     16  C   UNL     1       2.366   2.782  18.332  0.00  0.00    +0.000 A 
ATOM     17  F   UNL     1       1.290   2.011  18.126  0.00  0.00    +0.000 F 
ATOM     18  C   UNL     1       2.469   4.001  17.677  0.00  0.00    +0.000 A 
ATOM     19  C   UNL     1       3.588   4.806  17.895  0.00  0.00    +0.000 A 
ENDBRANCH  12  13
ENDBRANCH  11  12
ENDBRANCH   3  11
TORSDOF 4
ENDMDL
MODEL 4
REMARK VINA RESULT:      -6.8      4.060      6.932
REMARK  Name = 
REMARK  4 active torsions:
REMARK  status: ('A' for Active; 'I' for Inactive)
REMARK    1  A    between atoms: C_2  and  C_13
REMARK    2  A    between atoms: N_3  and  C_4
REMARK    3  A    between atoms: C_4  and  C_5
REMARK    4  A    between atoms: C_5  and  C_6
REMARK                            x       y       z     vdW  Elec       q    Type
REMARK                         _______ _______ _______ _____ _____    ______ ____
ROOT
ATOM      1  O   UNL     1       3.532   4.939  19.848  0.00  0.00    +0.000 OA
ATOM      2  C   UNL     1       3.093   5.576  18.897  0.00  0.00    +0.000 C 
ATOM      3  N   UNL     1       3.213   5.169  17.587  0.00  0.00    +0.000 N 
ATOM      4  H   UNL     1       2.996   5.811  16.835  0.00  0.00    +0.000 HD
ENDROOT
BRANCH   2   5
ATOM      5  C   UNL     1       2.423   6.879  19.127  0.00  0.00    +0.000 A 
ATOM      6  C   UNL     1       2.361   7.785  18.068  0.00  0.00    +0.000 A 
ATOM      7  C   UNL     1       1.747   9.000  18.292  0.00  0.00    +0.000 A 
ATOM      8  N   UNL     1       1.214   9.361  19.480  0.00  0.00    +0.000 NA
ATOM      9  C   UNL     1       1.311   8.473  20.494  0.00  0.00    +0.000 A 
ATOM     10  C   UNL     1       1.899   7.226  20.371  0.00  0.00    +0.000 A 
ENDBRANCH   2   5
BRANCH   3  11
ATOM     11  C   UNL     1       3.877   3.917  17.273  0.00  0.00    +0.000 C 
BRANCH  11  12
ATOM     12  C   UNL     1       5.209   4.096  16.541  0.00  0.00    +0.000 C 
BRANCH  12  13
ATOM     13  C   UNL     1       6.139   5.106  17.176  0.00  0.00    +0.000 A 
ATOM     14  C   UNL     1       6.941   4.744  18.270  0.00  0.00    +0.000 A 
ATOM     15  C   UNL     1       7.813   5.671  18.845  0.00  0.00    +0.000 A 
ATOM     16  C   UNL     1       7.888   6.957  18.323  0.00  0.00    +0.000 A 
ATOM     17  F   UNL     1       8.726   7.844  18.874  0.00  0.00    +0.000 F 
ATOM     18  C   UNL     1       7.112   7.334  17.236  0.00  0.00    +0.000 A 
ATOM     19  C   UNL     1       6.242   6.408  16.659  0.00  0.00    +0.000 A 
ENDBRANCH  12  13
ENDBRANCH  11  12
ENDBRANCH   3  11
TORSDOF 4
ENDMDL
MODEL 5
REMARK VINA RESULT:      -6.8      3.469      6.710
REMARK  Name = 
REMARK  4 active torsions:
REMARK  status: ('A' for Active; 'I' for Inactive)
REMARK    1  A    between atoms: C_2  and  C_13
REMARK    2  A    between atoms: N_3  and  C_4
REMARK    3  A    between atoms: C_4  and  C_5
REMARK    4  A    between atoms: C_5  and  C_6
REMARK                            x       y       z     vdW  Elec       q    Type
REMARK                         _______ _______ _______ _____ _____    ______ ____
ROOT
ATOM      1  O   UNL     1       3.753   5.978  17.715  0.00  0.00    +0.000 OA
ATOM      2  C   UNL     1       3.544   4.774  17.810  0.00  0.00    +0.000 C 
ATOM      3  N   UNL     1       4.064   3.840  16.941  0.00  0.00    +0.000 N 
ATOM      4  H   UNL     1       3.719   2.889  16.954  0.00  0.00    +0.000 HD
ENDROOT
BRANCH   2   5
ATOM      5  C   UNL     1       2.660   4.259  18.884  0.00  0.00    +0.000 A 
ATOM      6  C   UNL     1       1.643   3.372  18.531  0.00  0.00    +0.000 A 
ATOM      7  C   UNL     1       0.816   2.906  19.534  0.00  0.00    +0.000 A 
ATOM      8  N   UNL     1       0.933   3.271  20.830  0.00  0.00    +0.000 NA
ATOM      9  C   UNL     1       1.912   4.150  21.136  0.00  0.00    +0.000 A 
ATOM     10  C   UNL     1       2.798   4.669  20.209  0.00  0.00    +0.000 A 
ENDBRANCH   2   5
BRANCH   3  11
ATOM     11  C   UNL     1       4.920   4.263  15.847  0.00  0.00    +0.000 C 
BRANCH  11  12
ATOM     12  C   UNL     1       6.413   4.089  16.135  0.00  0.00    +0.000 C 
BRANCH  12  13
ATOM     13  C   UNL     1       7.028   5.212  16.941  0.00  0.00    +0.000 A 
ATOM     14  C   UNL     1       7.061   6.519  16.429  0.00  0.00    +0.000 A 
ATOM     15  C   UNL     1       7.613   7.559  17.180  0.00  0.00    +0.000 A 
ATOM     16  C   UNL     1       8.125   7.295  18.444  0.00  0.00    +0.000 A 
ATOM     17  F   UNL     1       8.652   8.293  19.164  0.00  0.00    +0.000 F 
ATOM     18  C   UNL     1       8.095   6.012  18.974  0.00  0.00    +0.000 A 
ATOM     19  C   UNL     1       7.541   4.972  18.225  0.00  0.00    +0.000 A 
ENDBRANCH  12  13
ENDBRANCH  11  12
ENDBRANCH   3  11
TORSDOF 4
ENDMDL
MODEL 6
REMARK VINA RESULT:      -6.7      3.426      6.760
REMARK  Name = 
REMARK  4 active torsions:
REMARK  status: ('A' for Active; 'I' for Inactive)
REMARK    1  A    between atoms: C_2  and  C_13
REMARK    2  A    between atoms: N_3  and  C_4
REMARK    3  A    between atoms: C_4  and  C_5
REMARK    4  A    between atoms: C_5  and  C_6
REMARK                            x       y       z     vdW  Elec       q    Type
REMARK                         _______ _______ _______ _____ _____    ______ ____
ROOT
ATOM      1  O   UNL     1       3.590   5.978  17.401  0.00  0.00    +0.000 OA
ATOM      2  C   UNL     1       3.515   4.780  17.655  0.00  0.00    +0.000 C 
ATOM      3  N   UNL     1       4.125   3.803  16.900  0.00  0.00    +0.000 N 
ATOM      4  H   UNL     1       3.886   2.830  17.043  0.00  0.00    +0.000 HD
ENDROOT
BRANCH   2   5
ATOM      5  C   UNL     1       2.701   4.318  18.805  0.00  0.00    +0.000 A 
ATOM      6  C   UNL     1       1.635   3.454  18.554  0.00  0.00    +0.000 A 
ATOM      7  C   UNL     1       0.874   3.037  19.627  0.00  0.00    +0.000 A 
ATOM      8  N   UNL     1       1.101   3.428  20.901  0.00  0.00    +0.000 NA
ATOM      9  C   UNL     1       2.125   4.285  21.110  0.00  0.00    +0.000 A 
ATOM     10  C   UNL     1       2.951   4.755  20.105  0.00  0.00    +0.000 A 
ENDBRANCH   2   5
BRANCH   3  11
ATOM     11  C   UNL     1       4.920   4.169  15.743  0.00  0.00    +0.000 C 
BRANCH  11  12
ATOM     12  C   UNL     1       6.429   4.064  15.977  0.00  0.00    +0.000 C 
BRANCH  12  13
ATOM     13  C   UNL     1       7.003   5.161  16.847  0.00  0.00    +0.000 A 
ATOM     14  C   UNL     1       7.573   4.855  18.093  0.00  0.00    +0.000 A 
ATOM     15  C   UNL     1       8.119   5.865  18.887  0.00  0.00    +0.000 A 
ATOM     16  C   UNL     1       8.101   7.179  18.435  0.00  0.00    +0.000 A 
ATOM     17  F   UNL     1       8.627   8.146  19.198  0.00  0.00    +0.000 F 
ATOM     18  C   UNL     1       7.551   7.503  17.202  0.00  0.00    +0.000 A 
ATOM     19  C   UNL     1       7.007   6.494  16.406  0.00  0.00    +0.000 A 
ENDBRANCH  12  13
ENDBRANCH  11  12
ENDBRANCH   3  11
TORSDOF 4
ENDMDL
MODEL 7
REMARK VINA RESULT:      -6.7      1.472      1.786
REMARK  Name = 
REMARK  4 active torsions:
REMARK  status: ('A' for Active; 'I' for Inactive)
REMARK    1  A    between atoms: C_2  and  C_13
REMARK    2  A    between atoms: N_3  and  C_4
REMARK    3  A    between atoms: C_4  and  C_5
REMARK    4  A    between atoms: C_5  and  C_6
REMARK                            x       y       z     vdW  Elec       q    Type
REMARK                         _______ _______ _______ _____ _____    ______ ____
ROOT
ATOM      1  O   UNL     1       6.806   4.445  16.957  0.00  0.00    +0.000 OA
ATOM      2  C   UNL     1       6.057   4.820  16.062  0.00  0.00    +0.000 C 
ATOM      3  N   UNL     1       4.829   5.401  16.292  0.00  0.00    +0.000 N 
ATOM      4  H   UNL     1       4.178   5.527  15.528  0.00  0.00    +0.000 HD
ENDROOT
BRANCH   2   5
ATOM      5  C   UNL     1       6.441   4.623  14.644  0.00  0.00    +0.000 A 
ATOM      6  C   UNL     1       5.723   3.695  13.889  0.00  0.00    +0.000 A 
ATOM      7  C   UNL     1       6.094   3.506  12.573  0.00  0.00    +0.000 A 
ATOM      8  N   UNL     1       7.117   4.163  11.983  0.00  0.00    +0.000 NA
ATOM      9  C   UNL     1       7.810   5.037  12.746  0.00  0.00    +0.000 A 
ATOM     10  C   UNL     1       7.514   5.304  14.071  0.00  0.00    +0.000 A 
ENDBRANCH   2   5
BRANCH   3  11
ATOM     11  C   UNL     1       4.366   5.609  17.651  0.00  0.00    +0.000 C 
BRANCH  11  12
ATOM     12  C   UNL     1       2.842   5.619  17.785  0.00  0.00    +0.000 C 
BRANCH  12  13
ATOM     13  C   UNL     1       2.310   4.782  18.928  0.00  0.00    +0.000 A 
ATOM     14  C   UNL     1       1.356   3.779  18.691  0.00  0.00    +0.000 A 
ATOM     15  C   UNL     1       0.878   2.995  19.743  0.00  0.00    +0.000 A 
ATOM     16  C   UNL     1       1.358   3.207  21.029  0.00  0.00    +0.000 A 
ATOM     17  F   UNL     1       0.900   2.453  22.037  0.00  0.00    +0.000 F 
ATOM     18  C   UNL     1       2.308   4.187  21.285  0.00  0.00    +0.000 A 
ATOM     19  C   UNL     1       2.788   4.970  20.235  0.00  0.00    +0.000 A 
ENDBRANCH  12  13
ENDBRANCH  11  12
ENDBRANCH   3  11
TORSDOF 4
ENDMDL
MODEL 8
REMARK VINA RESULT:      -6.7      3.581      7.012
REMARK  Name = 
REMARK  4 active torsions:
REMARK  status: ('A' for Active; 'I' for Inactive)
REMARK    1  A    between atoms: C_2  and  C_13
REMARK    2  A    between atoms: N_3  and  C_4
REMARK    3  A    between atoms: C_4  and  C_5
REMARK    4  A    between atoms: C_5  and  C_6
REMARK                            x       y       z     vdW  Elec       q    Type
REMARK                         _______ _______ _______ _____ _____    ______ ____
ROOT
ATOM      1  O   UNL     1       2.877   5.437  17.747  0.00  0.00    +0.000 OA
ATOM      2  C   UNL     1       3.253   4.328  18.112  0.00  0.00    +0.000 C 
ATOM      3  N   UNL     1       4.149   3.557  17.404  0.00  0.00    +0.000 N 
ATOM      4  H   UNL     1       4.286   2.586  17.651  0.00  0.00    +0.000 HD
ENDROOT
BRANCH   2   5
ATOM      5  C   UNL     1       2.708   3.736  19.357  0.00  0.00    +0.000 A 
ATOM      6  C   UNL     1       3.571   3.001  20.170  0.00  0.00    +0.000 A 
ATOM      7  C   UNL     1       3.055   2.442  21.322  0.00  0.00    +0.000 A 
ATOM      8  N   UNL     1       1.761   2.560  21.695  0.00  0.00    +0.000 NA
ATOM      9  C   UNL     1       0.944   3.256  20.875  0.00  0.00    +0.000 A 
ATOM     10  C   UNL     1       1.364   3.862  19.704  0.00  0.00    +0.000 A 
ENDBRANCH   2   5
BRANCH   3  11
ATOM     11  C   UNL     1       4.712   4.053  16.162  0.00  0.00    +0.000 C 
BRANCH  11  12
ATOM     12  C   UNL     1       6.242   4.051  16.138  0.00  0.00    +0.000 C 
BRANCH  12  13
ATOM     13  C   UNL     1       6.880   5.157  16.950  0.00  0.00    +0.000 A 
ATOM     14  C   UNL     1       7.483   4.874  18.186  0.00  0.00    +0.000 A 
ATOM     15  C   UNL     1       8.087   5.892  18.927  0.00  0.00    +0.000 A 
ATOM     16  C   UNL     1       8.096   7.189  18.430  0.00  0.00    +0.000 A 
ATOM     17  F   UNL     1       8.678   8.164  19.141  0.00  0.00    +0.000 F 
ATOM     18  C   UNL     1       7.515   7.490  17.206  0.00  0.00    +0.000 A 
ATOM     19  C   UNL     1       6.912   6.474  16.463  0.00  0.00    +0.000 A 
ENDBRANCH  12  13
ENDBRANCH  11  12
ENDBRANCH   3  11
TORSDOF 4
ENDMDL
MODEL 9
REMARK VINA RESULT:      -6.7      2.666      3.858
REMARK  Name = 
REMARK  4 active torsions:
REMARK  status: ('A' for Active; 'I' for Inactive)
REMARK    1  A    between atoms: C_2  and  C_13
REMARK    2  A    between atoms: N_3  and  C_4
REMARK    3  A    between atoms: C_4  and  C_5
REMARK    4  A    between atoms: C_5  and  C_6
REMARK                            x       y       z     vdW  Elec       q    Type
REMARK                         _______ _______ _______ _____ _____    ______ ____
ROOT
ATOM      1  O   UNL     1       5.201   3.482  19.412  0.00  0.00    +0.000 OA
ATOM      2  C   UNL     1       5.032   3.543  18.198  0.00  0.00    +0.000 C 
ATOM      3  N   UNL     1       4.068   2.823  17.527  0.00  0.00    +0.000 N 
ATOM      4  H   UNL     1       4.087   2.770  16.517  0.00  0.00    +0.000 HD
ENDROOT
BRANCH   2   5
ATOM      5  C   UNL     1       5.916   4.397  17.371  0.00  0.00    +0.000 A 
ATOM      6  C   UNL     1       6.443   5.554  17.947  0.00  0.00    +0.000 A 
ATOM      7  C   UNL     1       7.256   6.351  17.168  0.00  0.00    +0.000 A 
ATOM      8  N   UNL     1       7.560   6.077  15.880  0.00  0.00    +0.000 NA
ATOM      9  C   UNL     1       7.015   4.964  15.342  0.00  0.00    +0.000 A 
ATOM     10  C   UNL     1       6.195   4.095  16.039  0.00  0.00    +0.000 A 
ENDBRANCH   2   5
BRANCH   3  11
ATOM     11  C   UNL     1       3.176   1.943  18.260  0.00  0.00    +0.000 C 
BRANCH  11  12
ATOM     12  C   UNL     1       1.811   2.567  18.561  0.00  0.00    +0.000 C 
BRANCH  12  13
ATOM     13  C   UNL     1       1.868   4.016  18.995  0.00  0.00    +0.000 A 
ATOM     14  C   UNL     1       1.755   4.356  20.352  0.00  0.00    +0.000 A 
ATOM     15  C   UNL     1       1.826   5.692  20.754  0.00  0.00    +0.000 A 
ATOM     16  C   UNL     1       2.016   6.685  19.802  0.00  0.00    +0.000 A 
ATOM     17  F   UNL     1       2.085   7.965  20.189  0.00  0.00    +0.000 F 
ATOM     18  C   UNL     1       2.140   6.371  18.455  0.00  0.00    +0.000 A 
ATOM     19  C   UNL     1       2.072   5.036  18.052  0.00  0.00    +0.000 A 
ENDBRANCH  12  13
ENDBRANCH  11  12
ENDBRANCH   3  11
TORSDOF 4
ENDMDL
