MODEL 1
REMARK VINA RESULT:      -8.8      0.000      0.000
REMARK  Name = 
REMARK  5 active torsions:
REMARK  status: ('A' for Active; 'I' for Inactive)
REMARK    1  A    between atoms: C_1  and  N_2
REMARK    2  A    between atoms: C_3  and  C_5
REMARK    3  A    between atoms: C_14  and  C_15
REMARK    4  A    between atoms: C_18  and  C_19
REMARK    5  A    between atoms: C_22  and  O_23
REMARK                            x       y       z     vdW  Elec       q    Type
REMARK                         _______ _______ _______ _____ _____    ______ ____
ROOT
ATOM      1  C   UNL     1      -2.843  13.142  22.116  0.00  0.00    +0.000 A 
ATOM      2  C   UNL     1      -2.984  13.342  20.721  0.00  0.00    +0.000 A 
ATOM      3  C   UNL     1      -2.268  12.569  19.803  0.00  0.00    +0.000 A 
ATOM      4  C   UNL     1      -1.407  11.606  20.298  0.00  0.00    +0.000 A 
ATOM      5  C   UNL     1      -1.266  11.425  21.703  0.00  0.00    +0.000 A 
ATOM      6  C   UNL     1      -1.960  12.175  22.620  0.00  0.00    +0.000 A 
ATOM      7  C   UNL     1      -0.311  10.382  21.834  0.00  0.00    +0.000 A 
ATOM      8  N   UNL     1       0.316   9.653  22.774  0.00  0.00    +0.000 N 
ATOM      9  N   UNL     1       1.144   8.733  22.217  0.00  0.00    +0.000 NA
ATOM     10  C   UNL     1       1.045   8.925  20.880  0.00  0.00    +0.000 A 
ATOM     11  C   UNL     1       0.120   9.951  20.613  0.00  0.00    +0.000 A 
ATOM     12  C   UNL     1      -0.516  10.662  19.470  0.00  0.00    +0.000 C 
ATOM     13  H   UNL     1       0.244   9.700  23.784  0.00  0.00    +0.000 HD
ENDROOT
BRANCH  10  14
ATOM     14  C   UNL     1       1.814   8.130  19.925  0.00  0.00    +0.000 A 
ATOM     15  C   UNL     1       2.191   6.823  20.237  0.00  0.00    +0.000 A 
ATOM     16  C   UNL     1       2.942   6.062  19.331  0.00  0.00    +0.000 A 
ATOM     17  C   UNL     1       3.331   6.575  18.081  0.00  0.00    +0.000 A 
ATOM     18  C   UNL     1       2.934   7.888  17.778  0.00  0.00    +0.000 A 
ATOM     19  C   UNL     1       2.194   8.656  18.687  0.00  0.00    +0.000 A 
BRANCH  17  20
ATOM     20  C   UNL     1       4.143   5.769  17.138  0.00  0.00    +0.000 A 
ATOM     21  C   UNL     1       4.907   6.380  16.124  0.00  0.00    +0.000 A 
ATOM     22  C   UNL     1       5.643   5.628  15.202  0.00  0.00    +0.000 A 
ATOM     23  C   UNL     1       5.641   4.244  15.296  0.00  0.00    +0.000 A 
ATOM     24  C   UNL     1       4.916   3.605  16.292  0.00  0.00    +0.000 A 
ATOM     25  C   UNL     1       4.170   4.362  17.201  0.00  0.00    +0.000 A 
BRANCH  23  26
ATOM     26  O   UNL     1       6.343   3.470  14.421  0.00  0.00    +0.000 OA
ATOM     27  H   UNL     1       5.902   2.608  14.350  0.00  0.00    +0.000 HD
ENDBRANCH  23  26
ENDBRANCH  17  20
ENDBRANCH  10  14
BRANCH   1  30
ATOM     28  C   UNL     1      -3.474  15.555  24.959  0.00  0.00    +0.000 C 
ATOM     29  N   UNL     1      -2.843  14.694  23.992  0.00  0.00    +0.000 N 
ATOM     30  C   UNL     1      -3.599  13.976  23.090  0.00  0.00    +0.000 C 
ATOM     31  O   UNL     1      -4.822  14.022  23.042  0.00  0.00    +0.000 OA
ATOM     32  H   UNL     1      -1.844  14.771  23.862  0.00  0.00    +0.000 HD
ENDBRANCH   1  30
TORSDOF 4
ENDMDL
MODEL 2
REMARK VINA RESULT:      -8.6      0.863      1.240
REMARK  Name = 
REMARK  5 active torsions:
REMARK  status: ('A' for Active; 'I' for Inactive)
REMARK    1  A    between atoms: C_1  and  N_2
REMARK    2  A    between atoms: C_3  and  C_5
REMARK    3  A    between atoms: C_14  and  C_15
REMARK    4  A    between atoms: C_18  and  C_19
REMARK    5  A    between atoms: C_22  and  O_23
REMARK                            x       y       z     vdW  Elec       q    Type
REMARK                         _______ _______ _______ _____ _____    ______ ____
ROOT
ATOM      1  C   UNL     1      -3.092  13.443  22.441  0.00  0.00    +0.000 A 
ATOM      2  C   UNL     1      -3.194  13.683  21.049  0.00  0.00    +0.000 A 
ATOM      3  C   UNL     1      -2.479  12.913  20.127  0.00  0.00    +0.000 A 
ATOM      4  C   UNL     1      -1.657  11.914  20.617  0.00  0.00    +0.000 A 
ATOM      5  C   UNL     1      -1.554  11.693  22.019  0.00  0.00    +0.000 A 
ATOM      6  C   UNL     1      -2.248  12.439  22.940  0.00  0.00    +0.000 A 
ATOM      7  C   UNL     1      -0.631  10.621  22.144  0.00  0.00    +0.000 A 
ATOM      8  N   UNL     1      -0.047   9.850  23.078  0.00  0.00    +0.000 N 
ATOM      9  N   UNL     1       0.768   8.921  22.516  0.00  0.00    +0.000 NA
ATOM     10  C   UNL     1       0.705   9.150  21.182  0.00  0.00    +0.000 A 
ATOM     11  C   UNL     1      -0.184  10.209  20.922  0.00  0.00    +0.000 A 
ATOM     12  C   UNL     1      -0.773  10.967  19.785  0.00  0.00    +0.000 C 
ATOM     13  H   UNL     1      -0.141   9.873  24.087  0.00  0.00    +0.000 HD
ENDROOT
BRANCH  10  14
ATOM     14  C   UNL     1       1.474   8.359  20.225  0.00  0.00    +0.000 A 
ATOM     15  C   UNL     1       1.926   7.083  20.565  0.00  0.00    +0.000 A 
ATOM     16  C   UNL     1       2.676   6.326  19.656  0.00  0.00    +0.000 A 
ATOM     17  C   UNL     1       2.991   6.811  18.374  0.00  0.00    +0.000 A 
ATOM     18  C   UNL     1       2.519   8.092  18.043  0.00  0.00    +0.000 A 
ATOM     19  C   UNL     1       1.779   8.857  18.954  0.00  0.00    +0.000 A 
BRANCH  17  20
ATOM     20  C   UNL     1       3.803   6.011  17.427  0.00  0.00    +0.000 A 
ATOM     21  C   UNL     1       3.737   4.603  17.417  0.00  0.00    +0.000 A 
ATOM     22  C   UNL     1       4.531   3.835  16.557  0.00  0.00    +0.000 A 
ATOM     23  C   UNL     1       5.392   4.472  15.675  0.00  0.00    +0.000 A 
ATOM     24  C   UNL     1       5.473   5.856  15.642  0.00  0.00    +0.000 A 
ATOM     25  C   UNL     1       4.688   6.618  16.514  0.00  0.00    +0.000 A 
BRANCH  23  26
ATOM     26  O   UNL     1       6.183   3.765  14.819  0.00  0.00    +0.000 OA
ATOM     27  H   UNL     1       6.298   2.870  15.176  0.00  0.00    +0.000 HD
ENDBRANCH  23  26
ENDBRANCH  17  20
ENDBRANCH  10  14
BRANCH   1  30
ATOM     28  C   UNL     1      -5.536  16.016  23.750  0.00  0.00    +0.000 C 
ATOM     29  N   UNL     1      -4.734  15.184  22.889  0.00  0.00    +0.000 N 
ATOM     30  C   UNL     1      -3.846  14.273  23.420  0.00  0.00    +0.000 C 
ATOM     31  O   UNL     1      -3.684  14.106  24.622  0.00  0.00    +0.000 OA
ATOM     32  H   UNL     1      -4.970  15.144  21.908  0.00  0.00    +0.000 HD
ENDBRANCH   1  30
TORSDOF 4
ENDMDL
MODEL 3
REMARK VINA RESULT:      -8.6      2.233      3.991
REMARK  Name = 
REMARK  5 active torsions:
REMARK  status: ('A' for Active; 'I' for Inactive)
REMARK    1  A    between atoms: C_1  and  N_2
REMARK    2  A    between atoms: C_3  and  C_5
REMARK    3  A    between atoms: C_14  and  C_15
REMARK    4  A    between atoms: C_18  and  C_19
REMARK    5  A    between atoms: C_22  and  O_23
REMARK                            x       y       z     vdW  Elec       q    Type
REMARK                         _______ _______ _______ _____ _____    ______ ____
ROOT
ATOM      1  C   UNL     1      -0.278  10.484  21.384  0.00  0.00    +0.000 A 
ATOM      2  C   UNL     1      -0.256  11.204  20.165  0.00  0.00    +0.000 A 
ATOM      3  C   UNL     1       0.415  10.708  19.043  0.00  0.00    +0.000 A 
ATOM      4  C   UNL     1       1.068   9.495  19.162  0.00  0.00    +0.000 A 
ATOM      5  C   UNL     1       1.048   8.788  20.398  0.00  0.00    +0.000 A 
ATOM      6  C   UNL     1       0.395   9.260  21.511  0.00  0.00    +0.000 A 
ATOM      7  C   UNL     1       1.815   7.619  20.152  0.00  0.00    +0.000 A 
ATOM      8  N   UNL     1       2.233   6.497  20.764  0.00  0.00    +0.000 N 
ATOM      9  N   UNL     1       2.957   5.714  19.925  0.00  0.00    +0.000 NA
ATOM     10  C   UNL     1       3.013   6.398  18.756  0.00  0.00    +0.000 A 
ATOM     11  C   UNL     1       2.286   7.597  18.871  0.00  0.00    +0.000 A 
ATOM     12  C   UNL     1       1.876   8.779  18.064  0.00  0.00    +0.000 C 
ATOM     13  H   UNL     1       2.076   6.181  21.714  0.00  0.00    +0.000 HD
ENDROOT
BRANCH  10  14
ATOM     14  C   UNL     1       3.736   5.887  17.595  0.00  0.00    +0.000 A 
ATOM     15  C   UNL     1       4.489   6.748  16.795  0.00  0.00    +0.000 A 
ATOM     16  C   UNL     1       5.171   6.265  15.671  0.00  0.00    +0.000 A 
ATOM     17  C   UNL     1       5.134   4.905  15.313  0.00  0.00    +0.000 A 
ATOM     18  C   UNL     1       4.381   4.049  16.134  0.00  0.00    +0.000 A 
ATOM     19  C   UNL     1       3.687   4.532  17.252  0.00  0.00    +0.000 A 
BRANCH  17  20
ATOM     20  C   UNL     1       5.843   4.407  14.110  0.00  0.00    +0.000 A 
ATOM     21  C   UNL     1       5.250   3.457  13.254  0.00  0.00    +0.000 A 
ATOM     22  C   UNL     1       5.926   2.949  12.139  0.00  0.00    +0.000 A 
ATOM     23  C   UNL     1       7.206   3.403  11.853  0.00  0.00    +0.000 A 
ATOM     24  C   UNL     1       7.816   4.350  12.661  0.00  0.00    +0.000 A 
ATOM     25  C   UNL     1       7.141   4.844  13.783  0.00  0.00    +0.000 A 
BRANCH  23  26
ATOM     26  O   UNL     1       7.902   2.936  10.778  0.00  0.00    +0.000 OA
ATOM     27  H   UNL     1       7.270   2.571  10.138  0.00  0.00    +0.000 HD
ENDBRANCH  23  26
ENDBRANCH  17  20
ENDBRANCH  10  14
BRANCH   1  30
ATOM     28  C   UNL     1      -2.710  12.541  23.425  0.00  0.00    +0.000 C 
ATOM     29  N   UNL     1      -1.948  11.976  22.340  0.00  0.00    +0.000 N 
ATOM     30  C   UNL     1      -0.983  11.022  22.580  0.00  0.00    +0.000 C 
ATOM     31  O   UNL     1      -0.716  10.593  23.695  0.00  0.00    +0.000 OA
ATOM     32  H   UNL     1      -2.261  12.149  21.394  0.00  0.00    +0.000 HD
ENDBRANCH   1  30
TORSDOF 4
ENDMDL
MODEL 4
REMARK VINA RESULT:      -8.5      2.734      3.343
REMARK  Name = 
REMARK  5 active torsions:
REMARK  status: ('A' for Active; 'I' for Inactive)
REMARK    1  A    between atoms: C_1  and  N_2
REMARK    2  A    between atoms: C_3  and  C_5
REMARK    3  A    between atoms: C_14  and  C_15
REMARK    4  A    between atoms: C_18  and  C_19
REMARK    5  A    between atoms: C_22  and  O_23
REMARK                            x       y       z     vdW  Elec       q    Type
REMARK                         _______ _______ _______ _____ _____    ______ ____
ROOT
ATOM      1  C   UNL     1      -5.540  12.974  18.735  0.00  0.00    +0.000 A 
ATOM      2  C   UNL     1      -5.681  12.164  17.582  0.00  0.00    +0.000 A 
ATOM      3  C   UNL     1      -4.695  11.241  17.222  0.00  0.00    +0.000 A 
ATOM      4  C   UNL     1      -3.569  11.149  18.021  0.00  0.00    +0.000 A 
ATOM      5  C   UNL     1      -3.436  11.979  19.169  0.00  0.00    +0.000 A 
ATOM      6  C   UNL     1      -4.393  12.892  19.539  0.00  0.00    +0.000 A 
ATOM      7  C   UNL     1      -2.178  11.623  19.723  0.00  0.00    +0.000 A 
ATOM      8  N   UNL     1      -1.374  11.912  20.761  0.00  0.00    +0.000 N 
ATOM      9  N   UNL     1      -0.248  11.156  20.743  0.00  0.00    +0.000 NA
ATOM     10  C   UNL     1      -0.349  10.389  19.630  0.00  0.00    +0.000 A 
ATOM     11  C   UNL     1      -1.567  10.656  18.979  0.00  0.00    +0.000 A 
ATOM     12  C   UNL     1      -2.363  10.218  17.799  0.00  0.00    +0.000 C 
ATOM     13  H   UNL     1      -1.503  12.581  21.512  0.00  0.00    +0.000 HD
ENDROOT
BRANCH  10  14
ATOM     14  C   UNL     1       0.695   9.444  19.245  0.00  0.00    +0.000 A 
ATOM     15  C   UNL     1       1.135   8.472  20.145  0.00  0.00    +0.000 A 
ATOM     16  C   UNL     1       2.148   7.573  19.786  0.00  0.00    +0.000 A 
ATOM     17  C   UNL     1       2.747   7.605  18.513  0.00  0.00    +0.000 A 
ATOM     18  C   UNL     1       2.285   8.581  17.615  0.00  0.00    +0.000 A 
ATOM     19  C   UNL     1       1.282   9.491  17.976  0.00  0.00    +0.000 A 
BRANCH  17  20
ATOM     20  C   UNL     1       3.831   6.662  18.150  0.00  0.00    +0.000 A 
ATOM     21  C   UNL     1       4.578   6.828  16.966  0.00  0.00    +0.000 A 
ATOM     22  C   UNL     1       5.575   5.921  16.592  0.00  0.00    +0.000 A 
ATOM     23  C   UNL     1       5.854   4.838  17.413  0.00  0.00    +0.000 A 
ATOM     24  C   UNL     1       5.154   4.650  18.595  0.00  0.00    +0.000 A 
ATOM     25  C   UNL     1       4.148   5.552  18.957  0.00  0.00    +0.000 A 
BRANCH  23  26
ATOM     26  O   UNL     1       6.817   3.930  17.089  0.00  0.00    +0.000 OA
ATOM     27  H   UNL     1       6.409   3.225  16.560  0.00  0.00    +0.000 HD
ENDBRANCH  23  26
ENDBRANCH  17  20
ENDBRANCH  10  14
BRANCH   1  30
ATOM     28  C   UNL     1      -7.541  16.184  18.701  0.00  0.00    +0.000 C 
ATOM     29  N   UNL     1      -6.555  15.167  18.436  0.00  0.00    +0.000 N 
ATOM     30  C   UNL     1      -6.587  13.965  19.109  0.00  0.00    +0.000 C 
ATOM     31  O   UNL     1      -7.432  13.679  19.948  0.00  0.00    +0.000 OA
ATOM     32  H   UNL     1      -5.964  15.274  17.624  0.00  0.00    +0.000 HD
ENDBRANCH   1  30
TORSDOF 4
ENDMDL
MODEL 5
REMARK VINA RESULT:      -8.4      1.638      2.134
REMARK  Name = 
REMARK  5 active torsions:
REMARK  status: ('A' for Active; 'I' for Inactive)
REMARK    1  A    between atoms: C_1  and  N_2
REMARK    2  A    between atoms: C_3  and  C_5
REMARK    3  A    between atoms: C_14  and  C_15
REMARK    4  A    between atoms: C_18  and  C_19
REMARK    5  A    between atoms: C_22  and  O_23
REMARK                            x       y       z     vdW  Elec       q    Type
REMARK                         _______ _______ _______ _____ _____    ______ ____
ROOT
ATOM      1  C   UNL     1      -4.466  13.175  20.022  0.00  0.00    +0.000 A 
ATOM      2  C   UNL     1      -4.863  12.485  18.851  0.00  0.00    +0.000 A 
ATOM      3  C   UNL     1      -4.045  11.509  18.274  0.00  0.00    +0.000 A 
ATOM      4  C   UNL     1      -2.828  11.244  18.875  0.00  0.00    +0.000 A 
ATOM      5  C   UNL     1      -2.436  11.955  20.044  0.00  0.00    +0.000 A 
ATOM      6  C   UNL     1      -3.226  12.917  20.626  0.00  0.00    +0.000 A 
ATOM      7  C   UNL     1      -1.154  11.437  20.364  0.00  0.00    +0.000 A 
ATOM      8  N   UNL     1      -0.177  11.560  21.279  0.00  0.00    +0.000 N 
ATOM      9  N   UNL     1       0.848  10.707  21.029  0.00  0.00    +0.000 NA
ATOM     10  C   UNL     1       0.501  10.053  19.894  0.00  0.00    +0.000 A 
ATOM     11  C   UNL     1      -0.767  10.486  19.465  0.00  0.00    +0.000 A 
ATOM     12  C   UNL     1      -1.773  10.228  18.399  0.00  0.00    +0.000 C 
ATOM     13  H   UNL     1      -0.119  12.170  22.087  0.00  0.00    +0.000 HD
ENDROOT
BRANCH  10  14
ATOM     14  C   UNL     1       1.370   9.051  19.282  0.00  0.00    +0.000 A 
ATOM     15  C   UNL     1       1.809   9.207  17.966  0.00  0.00    +0.000 A 
ATOM     16  C   UNL     1       2.630   8.242  17.369  0.00  0.00    +0.000 A 
ATOM     17  C   UNL     1       3.049   7.095  18.067  0.00  0.00    +0.000 A 
ATOM     18  C   UNL     1       2.608   6.959  19.394  0.00  0.00    +0.000 A 
ATOM     19  C   UNL     1       1.776   7.916  19.990  0.00  0.00    +0.000 A 
BRANCH  17  20
ATOM     20  C   UNL     1       3.902   6.069  17.419  0.00  0.00    +0.000 A 
ATOM     21  C   UNL     1       4.958   6.434  16.560  0.00  0.00    +0.000 A 
ATOM     22  C   UNL     1       5.741   5.474  15.910  0.00  0.00    +0.000 A 
ATOM     23  C   UNL     1       5.490   4.127  16.128  0.00  0.00    +0.000 A 
ATOM     24  C   UNL     1       4.470   3.729  16.981  0.00  0.00    +0.000 A 
ATOM     25  C   UNL     1       3.681   4.692  17.616  0.00  0.00    +0.000 A 
BRANCH  23  26
ATOM     26  O   UNL     1       6.227   3.158  15.517  0.00  0.00    +0.000 OA
ATOM     27  H   UNL     1       6.260   2.383  16.101  0.00  0.00    +0.000 HD
ENDBRANCH  23  26
ENDBRANCH  17  20
ENDBRANCH  10  14
BRANCH   1  30
ATOM     28  C   UNL     1      -5.523  16.017  22.283  0.00  0.00    +0.000 C 
ATOM     29  N   UNL     1      -4.777  14.960  21.649  0.00  0.00    +0.000 N 
ATOM     30  C   UNL     1      -5.334  14.222  20.627  0.00  0.00    +0.000 C 
ATOM     31  O   UNL     1      -6.464  14.410  20.193  0.00  0.00    +0.000 OA
ATOM     32  H   UNL     1      -3.786  14.896  21.833  0.00  0.00    +0.000 HD
ENDBRANCH   1  30
TORSDOF 4
ENDMDL
MODEL 6
REMARK VINA RESULT:      -8.3      2.412      3.129
REMARK  Name = 
REMARK  5 active torsions:
REMARK  status: ('A' for Active; 'I' for Inactive)
REMARK    1  A    between atoms: C_1  and  N_2
REMARK    2  A    between atoms: C_3  and  C_5
REMARK    3  A    between atoms: C_14  and  C_15
REMARK    4  A    between atoms: C_18  and  C_19
REMARK    5  A    between atoms: C_22  and  O_23
REMARK                            x       y       z     vdW  Elec       q    Type
REMARK                         _______ _______ _______ _____ _____    ______ ____
ROOT
ATOM      1  C   UNL     1      -5.186  12.782  18.963  0.00  0.00    +0.000 A 
ATOM      2  C   UNL     1      -5.360  12.027  17.778  0.00  0.00    +0.000 A 
ATOM      3  C   UNL     1      -4.383  11.128  17.342  0.00  0.00    +0.000 A 
ATOM      4  C   UNL     1      -3.231  11.005  18.100  0.00  0.00    +0.000 A 
ATOM      5  C   UNL     1      -3.064  11.780  19.282  0.00  0.00    +0.000 A 
ATOM      6  C   UNL     1      -4.013  12.669  19.725  0.00  0.00    +0.000 A 
ATOM      7  C   UNL     1      -1.788  11.404  19.777  0.00  0.00    +0.000 A 
ATOM      8  N   UNL     1      -0.952  11.649  20.801  0.00  0.00    +0.000 N 
ATOM      9  N   UNL     1       0.176  10.900  20.711  0.00  0.00    +0.000 NA
ATOM     10  C   UNL     1       0.042  10.187  19.567  0.00  0.00    +0.000 A 
ATOM     11  C   UNL     1      -1.197  10.477  18.968  0.00  0.00    +0.000 A 
ATOM     12  C   UNL     1      -2.029  10.092  17.795  0.00  0.00    +0.000 C 
ATOM     13  H   UNL     1      -1.059  12.280  21.588  0.00  0.00    +0.000 HD
ENDROOT
BRANCH  10  14
ATOM     14  C   UNL     1       1.077   9.267  19.104  0.00  0.00    +0.000 A 
ATOM     15  C   UNL     1       1.677   9.448  17.857  0.00  0.00    +0.000 A 
ATOM     16  C   UNL     1       2.659   8.559  17.402  0.00  0.00    +0.000 A 
ATOM     17  C   UNL     1       3.084   7.466  18.179  0.00  0.00    +0.000 A 
ATOM     18  C   UNL     1       2.479   7.304  19.436  0.00  0.00    +0.000 A 
ATOM     19  C   UNL     1       1.486   8.184  19.889  0.00  0.00    +0.000 A 
BRANCH  17  20
ATOM     20  C   UNL     1       4.110   6.520  17.680  0.00  0.00    +0.000 A 
ATOM     21  C   UNL     1       3.806   5.160  17.466  0.00  0.00    +0.000 A 
ATOM     22  C   UNL     1       4.777   4.249  17.035  0.00  0.00    +0.000 A 
ATOM     23  C   UNL     1       6.068   4.693  16.791  0.00  0.00    +0.000 A 
ATOM     24  C   UNL     1       6.402   6.027  16.973  0.00  0.00    +0.000 A 
ATOM     25  C   UNL     1       5.431   6.931  17.418  0.00  0.00    +0.000 A 
BRANCH  23  26
ATOM     26  O   UNL     1       7.045   3.841  16.371  0.00  0.00    +0.000 OA
ATOM     27  H   UNL     1       7.863   4.050  16.852  0.00  0.00    +0.000 HD
ENDBRANCH  23  26
ENDBRANCH  17  20
ENDBRANCH  10  14
BRANCH   1  30
ATOM     28  C   UNL     1      -6.738  16.068  20.013  0.00  0.00    +0.000 C 
ATOM     29  N   UNL     1      -5.806  15.048  19.603  0.00  0.00    +0.000 N 
ATOM     30  C   UNL     1      -6.224  13.748  19.417  0.00  0.00    +0.000 C 
ATOM     31  O   UNL     1      -7.381  13.378  19.574  0.00  0.00    +0.000 OA
ATOM     32  H   UNL     1      -4.896  15.337  19.274  0.00  0.00    +0.000 HD
ENDBRANCH   1  30
TORSDOF 4
ENDMDL
MODEL 7
REMARK VINA RESULT:      -8.3      1.511      1.663
REMARK  Name = 
REMARK  5 active torsions:
REMARK  status: ('A' for Active; 'I' for Inactive)
REMARK    1  A    between atoms: C_1  and  N_2
REMARK    2  A    between atoms: C_3  and  C_5
REMARK    3  A    between atoms: C_14  and  C_15
REMARK    4  A    between atoms: C_18  and  C_19
REMARK    5  A    between atoms: C_22  and  O_23
REMARK                            x       y       z     vdW  Elec       q    Type
REMARK                         _______ _______ _______ _____ _____    ______ ____
ROOT
ATOM      1  C   UNL     1      -1.612  14.563  23.288  0.00  0.00    +0.000 A 
ATOM      2  C   UNL     1      -0.874  15.167  22.241  0.00  0.00    +0.000 A 
ATOM      3  C   UNL     1      -0.130  14.397  21.342  0.00  0.00    +0.000 A 
ATOM      4  C   UNL     1      -0.127  13.024  21.513  0.00  0.00    +0.000 A 
ATOM      5  C   UNL     1      -0.863  12.432  22.578  0.00  0.00    +0.000 A 
ATOM      6  C   UNL     1      -1.599  13.173  23.471  0.00  0.00    +0.000 A 
ATOM      7  C   UNL     1      -0.620  11.040  22.449  0.00  0.00    +0.000 A 
ATOM      8  N   UNL     1      -0.946   9.866  23.018  0.00  0.00    +0.000 N 
ATOM      9  N   UNL     1      -0.373   8.822  22.366  0.00  0.00    +0.000 NA
ATOM     10  C   UNL     1       0.360   9.380  21.372  0.00  0.00    +0.000 A 
ATOM     11  C   UNL     1       0.208  10.778  21.396  0.00  0.00    +0.000 A 
ATOM     12  C   UNL     1       0.632  11.996  20.654  0.00  0.00    +0.000 C 
ATOM     13  H   UNL     1      -1.536   9.677  23.820  0.00  0.00    +0.000 HD
ENDROOT
BRANCH  10  14
ATOM     14  C   UNL     1       1.155   8.572  20.451  0.00  0.00    +0.000 A 
ATOM     15  C   UNL     1       1.615   7.311  20.834  0.00  0.00    +0.000 A 
ATOM     16  C   UNL     1       2.391   6.539  19.959  0.00  0.00    +0.000 A 
ATOM     17  C   UNL     1       2.723   6.993  18.670  0.00  0.00    +0.000 A 
ATOM     18  C   UNL     1       2.243   8.259  18.296  0.00  0.00    +0.000 A 
ATOM     19  C   UNL     1       1.478   9.040  19.173  0.00  0.00    +0.000 A 
BRANCH  17  20
ATOM     20  C   UNL     1       3.562   6.177  17.760  0.00  0.00    +0.000 A 
ATOM     21  C   UNL     1       4.505   6.776  16.901  0.00  0.00    +0.000 A 
ATOM     22  C   UNL     1       5.272   6.020  16.008  0.00  0.00    +0.000 A 
ATOM     23  C   UNL     1       5.118   4.642  15.976  0.00  0.00    +0.000 A 
ATOM     24  C   UNL     1       4.213   4.013  16.818  0.00  0.00    +0.000 A 
ATOM     25  C   UNL     1       3.438   4.775  17.698  0.00  0.00    +0.000 A 
BRANCH  23  26
ATOM     26  O   UNL     1       5.843   3.865  15.122  0.00  0.00    +0.000 OA
ATOM     27  H   UNL     1       6.767   3.860  15.421  0.00  0.00    +0.000 HD
ENDBRANCH  23  26
ENDBRANCH  17  20
ENDBRANCH  10  14
BRANCH   1  30
ATOM     28  C   UNL     1      -3.275  17.608  24.796  0.00  0.00    +0.000 C 
ATOM     29  N   UNL     1      -2.515  16.727  23.946  0.00  0.00    +0.000 N 
ATOM     30  C   UNL     1      -2.392  15.389  24.251  0.00  0.00    +0.000 C 
ATOM     31  O   UNL     1      -2.909  14.866  25.230  0.00  0.00    +0.000 OA
ATOM     32  H   UNL     1      -2.238  17.063  23.034  0.00  0.00    +0.000 HD
ENDBRANCH   1  30
TORSDOF 4
ENDMDL
MODEL 8
REMARK VINA RESULT:      -8.3      1.501      1.714
REMARK  Name = 
REMARK  5 active torsions:
REMARK  status: ('A' for Active; 'I' for Inactive)
REMARK    1  A    between atoms: C_1  and  N_2
REMARK    2  A    between atoms: C_3  and  C_5
REMARK    3  A    between atoms: C_14  and  C_15
REMARK    4  A    between atoms: C_18  and  C_19
REMARK    5  A    between atoms: C_22  and  O_23
REMARK                            x       y       z     vdW  Elec       q    Type
REMARK                         _______ _______ _______ _____ _____    ______ ____
ROOT
ATOM      1  C   UNL     1      -4.184  13.441  20.689  0.00  0.00    +0.000 A 
ATOM      2  C   UNL     1      -4.616  12.887  19.459  0.00  0.00    +0.000 A 
ATOM      3  C   UNL     1      -3.861  11.914  18.799  0.00  0.00    +0.000 A 
ATOM      4  C   UNL     1      -2.669  11.515  19.377  0.00  0.00    +0.000 A 
ATOM      5  C   UNL     1      -2.241  12.091  20.607  0.00  0.00    +0.000 A 
ATOM      6  C   UNL     1      -2.969  13.048  21.270  0.00  0.00    +0.000 A 
ATOM      7  C   UNL     1      -0.999  11.461  20.882  0.00  0.00    +0.000 A 
ATOM      8  N   UNL     1      -0.024  11.436  21.807  0.00  0.00    +0.000 N 
ATOM      9  N   UNL     1       0.944  10.541  21.484  0.00  0.00    +0.000 NA
ATOM     10  C   UNL     1       0.563  10.016  20.294  0.00  0.00    +0.000 A 
ATOM     11  C   UNL     1      -0.669  10.570  19.902  0.00  0.00    +0.000 A 
ATOM     12  C   UNL     1      -1.680  10.477  18.815  0.00  0.00    +0.000 C 
ATOM     13  H   UNL     1       0.067  11.965  22.667  0.00  0.00    +0.000 HD
ENDROOT
BRANCH  10  14
ATOM     14  C   UNL     1       1.369   9.017  19.596  0.00  0.00    +0.000 A 
ATOM     15  C   UNL     1       1.746   7.838  20.241  0.00  0.00    +0.000 A 
ATOM     16  C   UNL     1       2.532   6.884  19.581  0.00  0.00    +0.000 A 
ATOM     17  C   UNL     1       2.958   7.069  18.253  0.00  0.00    +0.000 A 
ATOM     18  C   UNL     1       2.561   8.256  17.615  0.00  0.00    +0.000 A 
ATOM     19  C   UNL     1       1.786   9.218  18.277  0.00  0.00    +0.000 A 
BRANCH  17  20
ATOM     20  C   UNL     1       3.806   6.063  17.571  0.00  0.00    +0.000 A 
ATOM     21  C   UNL     1       4.991   6.437  16.905  0.00  0.00    +0.000 A 
ATOM     22  C   UNL     1       5.776   5.503  16.221  0.00  0.00    +0.000 A 
ATOM     23  C   UNL     1       5.396   4.169  16.212  0.00  0.00    +0.000 A 
ATOM     24  C   UNL     1       4.246   3.758  16.871  0.00  0.00    +0.000 A 
ATOM     25  C   UNL     1       3.456   4.699  17.540  0.00  0.00    +0.000 A 
BRANCH  23  26
ATOM     26  O   UNL     1       6.130   3.224  15.560  0.00  0.00    +0.000 OA
ATOM     27  H   UNL     1       7.069   3.380  15.749  0.00  0.00    +0.000 HD
ENDBRANCH  23  26
ENDBRANCH  17  20
ENDBRANCH  10  14
BRANCH   1  30
ATOM     28  C   UNL     1      -6.677  14.970  23.089  0.00  0.00    +0.000 C 
ATOM     29  N   UNL     1      -5.873  14.039  22.338  0.00  0.00    +0.000 N 
ATOM     30  C   UNL     1      -4.986  14.486  21.383  0.00  0.00    +0.000 C 
ATOM     31  O   UNL     1      -4.817  15.669  21.116  0.00  0.00    +0.000 OA
ATOM     32  H   UNL     1      -5.832  13.079  22.653  0.00  0.00    +0.000 HD
ENDBRANCH   1  30
TORSDOF 4
ENDMDL
MODEL 9
REMARK VINA RESULT:      -8.3      2.466     10.923
REMARK  Name = 
REMARK  5 active torsions:
REMARK  status: ('A' for Active; 'I' for Inactive)
REMARK    1  A    between atoms: C_1  and  N_2
REMARK    2  A    between atoms: C_3  and  C_5
REMARK    3  A    between atoms: C_14  and  C_15
REMARK    4  A    between atoms: C_18  and  C_19
REMARK    5  A    between atoms: C_22  and  O_23
REMARK                            x       y       z     vdW  Elec       q    Type
REMARK                         _______ _______ _______ _____ _____    ______ ____
ROOT
ATOM      1  C   UNL     1       3.578   4.686  18.249  0.00  0.00    +0.000 A 
ATOM      2  C   UNL     1       3.171   4.221  19.523  0.00  0.00    +0.000 A 
ATOM      3  C   UNL     1       2.453   5.043  20.397  0.00  0.00    +0.000 A 
ATOM      4  C   UNL     1       2.160   6.330  19.984  0.00  0.00    +0.000 A 
ATOM      5  C   UNL     1       2.587   6.787  18.706  0.00  0.00    +0.000 A 
ATOM      6  C   UNL     1       3.294   5.996  17.833  0.00  0.00    +0.000 A 
ATOM      7  C   UNL     1       2.127   8.129  18.634  0.00  0.00    +0.000 A 
ATOM      8  N   UNL     1       2.107   9.182  17.800  0.00  0.00    +0.000 N 
ATOM      9  N   UNL     1       1.443  10.234  18.344  0.00  0.00    +0.000 NA
ATOM     10  C   UNL     1       1.067   9.820  19.578  0.00  0.00    +0.000 A 
ATOM     11  C   UNL     1       1.474   8.488  19.778  0.00  0.00    +0.000 A 
ATOM     12  C   UNL     1       1.400   7.400  20.790  0.00  0.00    +0.000 C 
ATOM     13  H   UNL     1       2.496   9.278  16.868  0.00  0.00    +0.000 HD
ENDROOT
BRANCH  10  14
ATOM     14  C   UNL     1       0.338  10.690  20.497  0.00  0.00    +0.000 A 
ATOM     15  C   UNL     1       0.191  12.050  20.216  0.00  0.00    +0.000 A 
ATOM     16  C   UNL     1      -0.494  12.891  21.102  0.00  0.00    +0.000 A 
ATOM     17  C   UNL     1      -1.065  12.404  22.291  0.00  0.00    +0.000 A 
ATOM     18  C   UNL     1      -0.918  11.032  22.554  0.00  0.00    +0.000 A 
ATOM     19  C   UNL     1      -0.222  10.189  21.677  0.00  0.00    +0.000 A 
BRANCH  17  20
ATOM     20  C   UNL     1      -1.770  13.307  23.232  0.00  0.00    +0.000 A 
ATOM     21  C   UNL     1      -3.096  13.050  23.636  0.00  0.00    +0.000 A 
ATOM     22  C   UNL     1      -3.785  13.918  24.490  0.00  0.00    +0.000 A 
ATOM     23  C   UNL     1      -3.147  15.052  24.970  0.00  0.00    +0.000 A 
ATOM     24  C   UNL     1      -1.836  15.330  24.610  0.00  0.00    +0.000 A 
ATOM     25  C   UNL     1      -1.157  14.467  23.744  0.00  0.00    +0.000 A 
BRANCH  23  26
ATOM     26  O   UNL     1      -3.779  15.925  25.804  0.00  0.00    +0.000 OA
ATOM     27  H   UNL     1      -4.710  15.661  25.876  0.00  0.00    +0.000 HD
ENDBRANCH  23  26
ENDBRANCH  17  20
ENDBRANCH  10  14
BRANCH   1  30
ATOM     28  C   UNL     1       6.005   3.700  15.520  0.00  0.00    +0.000 C 
ATOM     29  N   UNL     1       5.189   4.454  16.437  0.00  0.00    +0.000 N 
ATOM     30  C   UNL     1       4.353   3.812  17.326  0.00  0.00    +0.000 C 
ATOM     31  O   UNL     1       4.252   2.594  17.402  0.00  0.00    +0.000 OA
ATOM     32  H   UNL     1       5.379   5.440  16.548  0.00  0.00    +0.000 HD
ENDBRANCH   1  30
TORSDOF 4
ENDMDL
