MODEL 1
REMARK VINA RESULT:      -7.4      0.000      0.000
REMARK  Name = 
REMARK  7 active torsions:
REMARK  status: ('A' for Active; 'I' for Inactive)
REMARK    1  A    between atoms: C_1  and  C_2
REMARK    2  A    between atoms: C_2  and  C_3
REMARK    3  A    between atoms: C_5  and  N_6
REMARK    4  A    between atoms: N_6  and  S_7
REMARK    5  A    between atoms: S_7  and  C_10
REMARK    6  A    between atoms: C_18  and  C_19
REMARK    7  A    between atoms: C_18  and  C_20
REMARK                            x       y       z     vdW  Elec       q    Type
REMARK                         _______ _______ _______ _____ _____    ______ ____
ROOT
ATOM      1  N   UNL     1       4.480   2.926  17.854  0.00  0.00    +0.000 NA
ATOM      2  H   UNL     1       4.934   2.584  18.705  0.00  0.00    +0.000 HD
ENDROOT
BRANCH   1   7
ATOM      3  C   UNL     1       7.309   4.593  14.166  0.00  0.00    +0.000 C 
ATOM      4  C   UNL     1       6.408   5.086  15.322  0.00  0.00    +0.000 C 
ATOM      5  C   UNL     1       5.320   5.969  14.685  0.00  0.00    +0.000 C 
ATOM      6  C   UNL     1       5.791   3.847  15.970  0.00  0.00    +0.000 C 
ATOM      7  C   UNL     1       5.069   4.161  17.271  0.00  0.00    +0.000 C 
ATOM      8  C   UNL     1       6.086   4.786  18.238  0.00  0.00    +0.000 C 
ATOM      9  C   UNL     1       6.741   6.055  17.634  0.00  0.00    +0.000 C 
ATOM     10  C   UNL     1       7.967   6.452  18.491  0.00  0.00    +0.000 C 
ATOM     11  C   UNL     1       5.780   7.258  17.685  0.00  0.00    +0.000 C 
ATOM     12  N   UNL     1       7.259   5.823  16.270  0.00  0.00    +0.000 NA
ATOM     13  H   UNL     1       8.150   5.328  16.346  0.00  0.00    +0.000 HD
ENDBRANCH   1   7
BRANCH   1  14
ATOM     14  S   UNL     1       2.799   2.875  18.093  0.00  0.00    +0.000 S 
ATOM     15  O   UNL     1       2.206   2.956  16.774  0.00  0.00    +0.000 OA
ATOM     16  O   UNL     1       2.502   1.776  18.988  0.00  0.00    +0.000 OA
BRANCH  14  17
ATOM     17  C   UNL     1       2.424   4.412  18.919  0.00  0.00    +0.000 A 
ATOM     18  C   UNL     1       2.483   5.607  18.200  0.00  0.00    +0.000 A 
ATOM     19  C   UNL     1       2.186   6.814  18.842  0.00  0.00    +0.000 A 
ATOM     20  C   UNL     1       1.834   6.819  20.190  0.00  0.00    +0.000 A 
ATOM     21 CL   UNL     1       1.488   8.313  20.979  0.00  0.00    +0.000 Cl
ATOM     22  C   UNL     1       1.759   5.629  20.912  0.00  0.00    +0.000 A 
ATOM     23  C   UNL     1       2.047   4.415  20.272  0.00  0.00    +0.000 A 
ENDBRANCH  14  17
ENDBRANCH   1  14
TORSDOF 3
ENDMDL
MODEL 2
REMARK VINA RESULT:      -7.4      0.042      1.059
REMARK  Name = 
REMARK  7 active torsions:
REMARK  status: ('A' for Active; 'I' for Inactive)
REMARK    1  A    between atoms: C_1  and  C_2
REMARK    2  A    between atoms: C_2  and  C_3
REMARK    3  A    between atoms: C_5  and  N_6
REMARK    4  A    between atoms: N_6  and  S_7
REMARK    5  A    between atoms: S_7  and  C_10
REMARK    6  A    between atoms: C_18  and  C_19
REMARK    7  A    between atoms: C_18  and  C_20
REMARK                            x       y       z     vdW  Elec       q    Type
REMARK                         _______ _______ _______ _____ _____    ______ ____
ROOT
ATOM      1  N   UNL     1       4.482   2.909  17.820  0.00  0.00    +0.000 NA
ATOM      2  H   UNL     1       4.942   2.547  18.660  0.00  0.00    +0.000 HD
ENDROOT
BRANCH   1   7
ATOM      3  C   UNL     1       7.312   4.637  14.161  0.00  0.00    +0.000 C 
ATOM      4  C   UNL     1       6.410   5.111  15.325  0.00  0.00    +0.000 C 
ATOM      5  C   UNL     1       5.322   6.003  14.702  0.00  0.00    +0.000 C 
ATOM      6  C   UNL     1       5.794   3.861  15.952  0.00  0.00    +0.000 C 
ATOM      7  C   UNL     1       5.071   4.153  17.258  0.00  0.00    +0.000 C 
ATOM      8  C   UNL     1       6.087   4.763  18.235  0.00  0.00    +0.000 C 
ATOM      9  C   UNL     1       6.742   6.041  17.652  0.00  0.00    +0.000 C 
ATOM     10  C   UNL     1       7.967   6.425  18.516  0.00  0.00    +0.000 C 
ATOM     11  C   UNL     1       5.780   7.243  17.722  0.00  0.00    +0.000 C 
ATOM     12  N   UNL     1       7.260   5.833  16.285  0.00  0.00    +0.000 NA
ATOM     13  H   UNL     1       8.152   5.337  16.353  0.00  0.00    +0.000 HD
ENDBRANCH   1   7
BRANCH   1  14
ATOM     14  S   UNL     1       2.804   2.858  18.073  0.00  0.00    +0.000 S 
ATOM     15  O   UNL     1       2.200   2.929  16.758  0.00  0.00    +0.000 OA
ATOM     16  O   UNL     1       2.514   1.767  18.979  0.00  0.00    +0.000 OA
BRANCH  14  17
ATOM     17  C   UNL     1       2.435   4.402  18.890  0.00  0.00    +0.000 A 
ATOM     18  C   UNL     1       2.142   4.400  20.254  0.00  0.00    +0.000 A 
ATOM     19  C   UNL     1       1.855   5.609  20.900  0.00  0.00    +0.000 A 
ATOM     20  C   UNL     1       1.864   6.803  20.182  0.00  0.00    +0.000 A 
ATOM     21 CL   UNL     1       1.491   8.284  20.981  0.00  0.00    +0.000 Cl
ATOM     22  C   UNL     1       2.169   6.814  18.822  0.00  0.00    +0.000 A 
ATOM     23  C   UNL     1       2.466   5.608  18.171  0.00  0.00    +0.000 A 
ENDBRANCH  14  17
ENDBRANCH   1  14
TORSDOF 3
ENDMDL
MODEL 3
REMARK VINA RESULT:      -7.2      3.629      5.991
REMARK  Name = 
REMARK  7 active torsions:
REMARK  status: ('A' for Active; 'I' for Inactive)
REMARK    1  A    between atoms: C_1  and  C_2
REMARK    2  A    between atoms: C_2  and  C_3
REMARK    3  A    between atoms: C_5  and  N_6
REMARK    4  A    between atoms: N_6  and  S_7
REMARK    5  A    between atoms: S_7  and  C_10
REMARK    6  A    between atoms: C_18  and  C_19
REMARK    7  A    between atoms: C_18  and  C_20
REMARK                            x       y       z     vdW  Elec       q    Type
REMARK                         _______ _______ _______ _____ _____    ______ ____
ROOT
ATOM      1  N   UNL     1       6.193   5.496  19.576  0.00  0.00    +0.000 NA
ATOM      2  H   UNL     1       6.540   4.970  20.382  0.00  0.00    +0.000 HD
ENDROOT
BRANCH   1   7
ATOM      3  C   UNL     1       1.347   5.462  20.529  0.00  0.00    +0.000 C 
ATOM      4  C   UNL     1       2.368   5.119  19.419  0.00  0.00    +0.000 C 
ATOM      5  C   UNL     1       1.966   5.943  18.183  0.00  0.00    +0.000 C 
ATOM      6  C   UNL     1       3.745   5.543  19.929  0.00  0.00    +0.000 C 
ATOM      7  C   UNL     1       4.878   5.050  19.042  0.00  0.00    +0.000 C 
ATOM      8  C   UNL     1       4.806   3.516  18.991  0.00  0.00    +0.000 C 
ATOM      9  C   UNL     1       3.429   3.027  18.473  0.00  0.00    +0.000 C 
ATOM     10  C   UNL     1       3.293   1.510  18.743  0.00  0.00    +0.000 C 
ATOM     11  C   UNL     1       3.313   3.199  16.946  0.00  0.00    +0.000 C 
ATOM     12  N   UNL     1       2.303   3.668  19.184  0.00  0.00    +0.000 NA
ATOM     13  H   UNL     1       2.192   3.206  20.089  0.00  0.00    +0.000 HD
ENDBRANCH   1   7
BRANCH   1  14
ATOM     14  S   UNL     1       7.476   5.695  18.482  0.00  0.00    +0.000 S 
ATOM     15  O   UNL     1       7.750   7.117  18.442  0.00  0.00    +0.000 OA
ATOM     16  O   UNL     1       8.509   4.737  18.816  0.00  0.00    +0.000 OA
BRANCH  14  17
ATOM     17  C   UNL     1       6.777   5.264  16.898  0.00  0.00    +0.000 A 
ATOM     18  C   UNL     1       7.146   4.062  16.292  0.00  0.00    +0.000 A 
ATOM     19  C   UNL     1       6.598   3.718  15.051  0.00  0.00    +0.000 A 
ATOM     20  C   UNL     1       5.689   4.572  14.429  0.00  0.00    +0.000 A 
ATOM     21 CL   UNL     1       5.032   4.149  12.891  0.00  0.00    +0.000 Cl
ATOM     22  C   UNL     1       5.304   5.767  15.034  0.00  0.00    +0.000 A 
ATOM     23  C   UNL     1       5.843   6.113  16.282  0.00  0.00    +0.000 A 
ENDBRANCH  14  17
ENDBRANCH   1  14
TORSDOF 3
ENDMDL
MODEL 4
REMARK VINA RESULT:      -7.2      3.628      5.967
REMARK  Name = 
REMARK  7 active torsions:
REMARK  status: ('A' for Active; 'I' for Inactive)
REMARK    1  A    between atoms: C_1  and  C_2
REMARK    2  A    between atoms: C_2  and  C_3
REMARK    3  A    between atoms: C_5  and  N_6
REMARK    4  A    between atoms: N_6  and  S_7
REMARK    5  A    between atoms: S_7  and  C_10
REMARK    6  A    between atoms: C_18  and  C_19
REMARK    7  A    between atoms: C_18  and  C_20
REMARK                            x       y       z     vdW  Elec       q    Type
REMARK                         _______ _______ _______ _____ _____    ______ ____
ROOT
ATOM      1  N   UNL     1       6.102   5.633  19.518  0.00  0.00    +0.000 NA
ATOM      2  H   UNL     1       6.436   5.238  20.401  0.00  0.00    +0.000 HD
ENDROOT
BRANCH   1   7
ATOM      3  C   UNL     1       1.284   5.199  20.513  0.00  0.00    +0.000 C 
ATOM      4  C   UNL     1       2.324   4.921  19.403  0.00  0.00    +0.000 C 
ATOM      5  C   UNL     1       1.843   5.677  18.151  0.00  0.00    +0.000 C 
ATOM      6  C   UNL     1       3.662   5.475  19.891  0.00  0.00    +0.000 C 
ATOM      7  C   UNL     1       4.828   5.062  19.006  0.00  0.00    +0.000 C 
ATOM      8  C   UNL     1       4.890   3.527  18.990  0.00  0.00    +0.000 C 
ATOM      9  C   UNL     1       3.557   2.908  18.495  0.00  0.00    +0.000 C 
ATOM     10  C   UNL     1       3.556   1.392  18.801  0.00  0.00    +0.000 C 
ATOM     11  C   UNL     1       3.417   3.033  16.966  0.00  0.00    +0.000 C 
ATOM     12  N   UNL     1       2.384   3.464  19.201  0.00  0.00    +0.000 NA
ATOM     13  H   UNL     1       2.320   3.016  20.118  0.00  0.00    +0.000 HD
ENDBRANCH   1   7
BRANCH   1  14
ATOM     14  S   UNL     1       7.420   5.738  18.452  0.00  0.00    +0.000 S 
ATOM     15  O   UNL     1       7.751   7.146  18.364  0.00  0.00    +0.000 OA
ATOM     16  O   UNL     1       8.405   4.755  18.851  0.00  0.00    +0.000 OA
BRANCH  14  17
ATOM     17  C   UNL     1       6.744   5.271  16.868  0.00  0.00    +0.000 A 
ATOM     18  C   UNL     1       5.799   6.097  16.257  0.00  0.00    +0.000 A 
ATOM     19  C   UNL     1       5.268   5.736  15.013  0.00  0.00    +0.000 A 
ATOM     20  C   UNL     1       5.684   4.560  14.392  0.00  0.00    +0.000 A 
ATOM     21 CL   UNL     1       5.011   4.114  12.868  0.00  0.00    +0.000 Cl
ATOM     22  C   UNL     1       6.638   3.737  14.989  0.00  0.00    +0.000 A 
ATOM     23  C   UNL     1       7.179   4.098  16.230  0.00  0.00    +0.000 A 
ENDBRANCH  14  17
ENDBRANCH   1  14
TORSDOF 3
ENDMDL
MODEL 5
REMARK VINA RESULT:      -7.2      3.106      5.776
REMARK  Name = 
REMARK  7 active torsions:
REMARK  status: ('A' for Active; 'I' for Inactive)
REMARK    1  A    between atoms: C_1  and  C_2
REMARK    2  A    between atoms: C_2  and  C_3
REMARK    3  A    between atoms: C_5  and  N_6
REMARK    4  A    between atoms: N_6  and  S_7
REMARK    5  A    between atoms: S_7  and  C_10
REMARK    6  A    between atoms: C_18  and  C_19
REMARK    7  A    between atoms: C_18  and  C_20
REMARK                            x       y       z     vdW  Elec       q    Type
REMARK                         _______ _______ _______ _____ _____    ______ ____
ROOT
ATOM      1  N   UNL     1       6.093   4.057  18.503  0.00  0.00    +0.000 NA
ATOM      2  H   UNL     1       6.544   3.146  18.610  0.00  0.00    +0.000 HD
ENDROOT
BRANCH   1   7
ATOM      3  C   UNL     1       2.318   6.953  19.827  0.00  0.00    +0.000 C 
ATOM      4  C   UNL     1       2.629   5.545  19.267  0.00  0.00    +0.000 C 
ATOM      5  C   UNL     1       1.873   5.427  17.931  0.00  0.00    +0.000 C 
ATOM      6  C   UNL     1       4.139   5.475  19.043  0.00  0.00    +0.000 C 
ATOM      7  C   UNL     1       4.622   4.069  18.720  0.00  0.00    +0.000 C 
ATOM      8  C   UNL     1       4.239   3.156  19.894  0.00  0.00    +0.000 C 
ATOM      9  C   UNL     1       2.712   3.182  20.163  0.00  0.00    +0.000 C 
ATOM     10  C   UNL     1       2.425   2.517  21.529  0.00  0.00    +0.000 C 
ATOM     11  C   UNL     1       1.946   2.351  19.116  0.00  0.00    +0.000 C 
ATOM     12  N   UNL     1       2.185   4.558  20.263  0.00  0.00    +0.000 NA
ATOM     13  H   UNL     1       2.414   4.922  21.192  0.00  0.00    +0.000 HD
ENDBRANCH   1   7
BRANCH   1  14
ATOM     14  S   UNL     1       6.702   4.787  17.095  0.00  0.00    +0.000 S 
ATOM     15  O   UNL     1       7.826   3.973  16.678  0.00  0.00    +0.000 OA
ATOM     16  O   UNL     1       5.591   5.052  16.205  0.00  0.00    +0.000 OA
BRANCH  14  17
ATOM     17  C   UNL     1       7.375   6.340  17.659  0.00  0.00    +0.000 A 
ATOM     18  C   UNL     1       7.139   7.498  16.916  0.00  0.00    +0.000 A 
ATOM     19  C   UNL     1       7.662   8.719  17.356  0.00  0.00    +0.000 A 
ATOM     20  C   UNL     1       8.412   8.775  18.529  0.00  0.00    +0.000 A 
ATOM     21 CL   UNL     1       9.069  10.280  19.054  0.00  0.00    +0.000 Cl
ATOM     22  C   UNL     1       8.640   7.626  19.284  0.00  0.00    +0.000 A 
ATOM     23  C   UNL     1       8.111   6.401  18.853  0.00  0.00    +0.000 A 
ENDBRANCH  14  17
ENDBRANCH   1  14
TORSDOF 3
ENDMDL
MODEL 6
REMARK VINA RESULT:      -7.2      2.149      3.328
REMARK  Name = 
REMARK  7 active torsions:
REMARK  status: ('A' for Active; 'I' for Inactive)
REMARK    1  A    between atoms: C_1  and  C_2
REMARK    2  A    between atoms: C_2  and  C_3
REMARK    3  A    between atoms: C_5  and  N_6
REMARK    4  A    between atoms: N_6  and  S_7
REMARK    5  A    between atoms: S_7  and  C_10
REMARK    6  A    between atoms: C_18  and  C_19
REMARK    7  A    between atoms: C_18  and  C_20
REMARK                            x       y       z     vdW  Elec       q    Type
REMARK                         _______ _______ _______ _____ _____    ______ ____
ROOT
ATOM      1  N   UNL     1       3.418   5.982  17.519  0.00  0.00    +0.000 NA
ATOM      2  H   UNL     1       2.829   5.485  16.846  0.00  0.00    +0.000 HD
ENDROOT
BRANCH   1   7
ATOM      3  C   UNL     1       7.747   8.358  17.586  0.00  0.00    +0.000 C 
ATOM      4  C   UNL     1       7.144   6.937  17.497  0.00  0.00    +0.000 C 
ATOM      5  C   UNL     1       7.738   6.132  18.667  0.00  0.00    +0.000 C 
ATOM      6  C   UNL     1       5.630   7.080  17.651  0.00  0.00    +0.000 C 
ATOM      7  C   UNL     1       4.883   5.791  17.345  0.00  0.00    +0.000 C 
ATOM      8  C   UNL     1       5.209   5.385  15.901  0.00  0.00    +0.000 C 
ATOM      9  C   UNL     1       6.736   5.218  15.687  0.00  0.00    +0.000 C 
ATOM     10  C   UNL     1       7.031   5.131  14.171  0.00  0.00    +0.000 C 
ATOM     11  C   UNL     1       7.244   3.897  16.295  0.00  0.00    +0.000 C 
ATOM     12  N   UNL     1       7.502   6.380  16.182  0.00  0.00    +0.000 NA
ATOM     13  H   UNL     1       7.428   7.130  15.491  0.00  0.00    +0.000 HD
ENDBRANCH   1   7
BRANCH   1  14
ATOM     14  S   UNL     1       2.758   5.758  19.068  0.00  0.00    +0.000 S 
ATOM     15  O   UNL     1       1.658   4.830  18.902  0.00  0.00    +0.000 OA
ATOM     16  O   UNL     1       3.843   5.487  19.988  0.00  0.00    +0.000 OA
BRANCH  14  17
ATOM     17  C   UNL     1       2.037   7.339  19.473  0.00  0.00    +0.000 A 
ATOM     18  C   UNL     1       1.978   8.334  18.495  0.00  0.00    +0.000 A 
ATOM     19  C   UNL     1       1.411   9.575  18.807  0.00  0.00    +0.000 A 
ATOM     20  C   UNL     1       0.908   9.811  20.085  0.00  0.00    +0.000 A 
ATOM     21 CL   UNL     1       0.228  11.349  20.466  0.00  0.00    +0.000 Cl
ATOM     22  C   UNL     1       0.950   8.818  21.062  0.00  0.00    +0.000 A 
ATOM     23  C   UNL     1       1.509   7.570  20.753  0.00  0.00    +0.000 A 
ENDBRANCH  14  17
ENDBRANCH   1  14
TORSDOF 3
ENDMDL
MODEL 7
REMARK VINA RESULT:      -7.2      2.182      3.520
REMARK  Name = 
REMARK  7 active torsions:
REMARK  status: ('A' for Active; 'I' for Inactive)
REMARK    1  A    between atoms: C_1  and  C_2
REMARK    2  A    between atoms: C_2  and  C_3
REMARK    3  A    between atoms: C_5  and  N_6
REMARK    4  A    between atoms: N_6  and  S_7
REMARK    5  A    between atoms: S_7  and  C_10
REMARK    6  A    between atoms: C_18  and  C_19
REMARK    7  A    between atoms: C_18  and  C_20
REMARK                            x       y       z     vdW  Elec       q    Type
REMARK                         _______ _______ _______ _____ _____    ______ ____
ROOT
ATOM      1  N   UNL     1       3.447   6.140  17.508  0.00  0.00    +0.000 NA
ATOM      2  H   UNL     1       2.856   5.710  16.792  0.00  0.00    +0.000 HD
ENDROOT
BRANCH   1   7
ATOM      3  C   UNL     1       7.839   8.396  17.584  0.00  0.00    +0.000 C 
ATOM      4  C   UNL     1       7.198   6.991  17.510  0.00  0.00    +0.000 C 
ATOM      5  C   UNL     1       7.758   6.190  18.699  0.00  0.00    +0.000 C 
ATOM      6  C   UNL     1       5.688   7.179  17.646  0.00  0.00    +0.000 C 
ATOM      7  C   UNL     1       4.908   5.906  17.353  0.00  0.00    +0.000 C 
ATOM      8  C   UNL     1       5.238   5.468  15.918  0.00  0.00    +0.000 C 
ATOM      9  C   UNL     1       6.761   5.256  15.723  0.00  0.00    +0.000 C 
ATOM     10  C   UNL     1       7.069   5.136  14.212  0.00  0.00    +0.000 C 
ATOM     11  C   UNL     1       7.226   3.931  16.358  0.00  0.00    +0.000 C 
ATOM     12  N   UNL     1       7.554   6.404  16.209  0.00  0.00    +0.000 NA
ATOM     13  H   UNL     1       7.508   7.145  15.505  0.00  0.00    +0.000 HD
ENDBRANCH   1   7
BRANCH   1  14
ATOM     14  S   UNL     1       2.744   5.842  19.024  0.00  0.00    +0.000 S 
ATOM     15  O   UNL     1       1.656   4.916  18.785  0.00  0.00    +0.000 OA
ATOM     16  O   UNL     1       3.803   5.536  19.963  0.00  0.00    +0.000 OA
BRANCH  14  17
ATOM     17  C   UNL     1       2.000   7.399  19.479  0.00  0.00    +0.000 A 
ATOM     18  C   UNL     1       1.530   7.578  20.781  0.00  0.00    +0.000 A 
ATOM     19  C   UNL     1       0.948   8.799  21.143  0.00  0.00    +0.000 A 
ATOM     20  C   UNL     1       0.843   9.826  20.208  0.00  0.00    +0.000 A 
ATOM     21 CL   UNL     1       0.108  11.320  20.657  0.00  0.00    +0.000 Cl
ATOM     22  C   UNL     1       1.322   9.660  18.910  0.00  0.00    +0.000 A 
ATOM     23  C   UNL     1       1.914   8.443  18.543  0.00  0.00    +0.000 A 
ENDBRANCH  14  17
ENDBRANCH   1  14
TORSDOF 3
ENDMDL
MODEL 8
REMARK VINA RESULT:      -7.1      3.625      6.281
REMARK  Name = 
REMARK  7 active torsions:
REMARK  status: ('A' for Active; 'I' for Inactive)
REMARK    1  A    between atoms: C_1  and  C_2
REMARK    2  A    between atoms: C_2  and  C_3
REMARK    3  A    between atoms: C_5  and  N_6
REMARK    4  A    between atoms: N_6  and  S_7
REMARK    5  A    between atoms: S_7  and  C_10
REMARK    6  A    between atoms: C_18  and  C_19
REMARK    7  A    between atoms: C_18  and  C_20
REMARK                            x       y       z     vdW  Elec       q    Type
REMARK                         _______ _______ _______ _____ _____    ______ ____
ROOT
ATOM      1  N   UNL     1       5.872   4.089  18.927  0.00  0.00    +0.000 NA
ATOM      2  H   UNL     1       6.100   3.092  18.885  0.00  0.00    +0.000 HD
ENDROOT
BRANCH   1   7
ATOM      3  C   UNL     1       2.182   6.944  20.544  0.00  0.00    +0.000 C 
ATOM      4  C   UNL     1       2.548   5.963  19.406  0.00  0.00    +0.000 C 
ATOM      5  C   UNL     1       2.364   6.733  18.086  0.00  0.00    +0.000 C 
ATOM      6  C   UNL     1       4.011   5.569  19.605  0.00  0.00    +0.000 C 
ATOM      7  C   UNL     1       4.441   4.425  18.700  0.00  0.00    +0.000 C 
ATOM      8  C   UNL     1       3.544   3.217  19.007  0.00  0.00    +0.000 C 
ATOM      9  C   UNL     1       2.044   3.557  18.814  0.00  0.00    +0.000 C 
ATOM     10  C   UNL     1       1.183   2.431  19.436  0.00  0.00    +0.000 C 
ATOM     11  C   UNL     1       1.669   3.603  17.320  0.00  0.00    +0.000 C 
ATOM     12  N   UNL     1       1.656   4.798  19.516  0.00  0.00    +0.000 NA
ATOM     13  H   UNL     1       1.540   4.581  20.508  0.00  0.00    +0.000 HD
ENDBRANCH   1   7
BRANCH   1  14
ATOM     14  S   UNL     1       7.045   4.937  18.039  0.00  0.00    +0.000 S 
ATOM     15  O   UNL     1       6.742   6.342  18.217  0.00  0.00    +0.000 OA
ATOM     16  O   UNL     1       8.346   4.397  18.375  0.00  0.00    +0.000 OA
BRANCH  14  17
ATOM     17  C   UNL     1       6.679   4.546  16.337  0.00  0.00    +0.000 A 
ATOM     18  C   UNL     1       5.606   3.702  16.045  0.00  0.00    +0.000 A 
ATOM     19  C   UNL     1       5.313   3.395  14.712  0.00  0.00    +0.000 A 
ATOM     20  C   UNL     1       6.087   3.932  13.685  0.00  0.00    +0.000 A 
ATOM     21 CL   UNL     1       5.729   3.533  12.046  0.00  0.00    +0.000 Cl
ATOM     22  C   UNL     1       7.150   4.787  13.968  0.00  0.00    +0.000 A 
ATOM     23  C   UNL     1       7.444   5.106  15.301  0.00  0.00    +0.000 A 
ENDBRANCH  14  17
ENDBRANCH   1  14
TORSDOF 3
ENDMDL
MODEL 9
REMARK VINA RESULT:      -7.1      3.640      6.173
REMARK  Name = 
REMARK  7 active torsions:
REMARK  status: ('A' for Active; 'I' for Inactive)
REMARK    1  A    between atoms: C_1  and  C_2
REMARK    2  A    between atoms: C_2  and  C_3
REMARK    3  A    between atoms: C_5  and  N_6
REMARK    4  A    between atoms: N_6  and  S_7
REMARK    5  A    between atoms: S_7  and  C_10
REMARK    6  A    between atoms: C_18  and  C_19
REMARK    7  A    between atoms: C_18  and  C_20
REMARK                            x       y       z     vdW  Elec       q    Type
REMARK                         _______ _______ _______ _____ _____    ______ ____
ROOT
ATOM      1  N   UNL     1       6.054   4.198  18.967  0.00  0.00    +0.000 NA
ATOM      2  H   UNL     1       6.320   3.213  19.047  0.00  0.00    +0.000 HD
ENDROOT
BRANCH   1   7
ATOM      3  C   UNL     1       2.184   6.903  20.413  0.00  0.00    +0.000 C 
ATOM      4  C   UNL     1       2.625   5.905  19.318  0.00  0.00    +0.000 C 
ATOM      5  C   UNL     1       2.427   6.617  17.968  0.00  0.00    +0.000 C 
ATOM      6  C   UNL     1       4.103   5.598  19.558  0.00  0.00    +0.000 C 
ATOM      7  C   UNL     1       4.612   4.448  18.702  0.00  0.00    +0.000 C 
ATOM      8  C   UNL     1       3.775   3.204  19.036  0.00  0.00    +0.000 C 
ATOM      9  C   UNL     1       2.263   3.455  18.804  0.00  0.00    +0.000 C 
ATOM     10  C   UNL     1       1.452   2.307  19.449  0.00  0.00    +0.000 C 
ATOM     11  C   UNL     1       1.916   3.429  17.303  0.00  0.00    +0.000 C 
ATOM     12  N   UNL     1       1.795   4.697  19.453  0.00  0.00    +0.000 NA
ATOM     13  H   UNL     1       1.670   4.509  20.450  0.00  0.00    +0.000 HD
ENDBRANCH   1   7
BRANCH   1  14
ATOM     14  S   UNL     1       7.197   4.976  17.981  0.00  0.00    +0.000 S 
ATOM     15  O   UNL     1       6.959   6.396  18.138  0.00  0.00    +0.000 OA
ATOM     16  O   UNL     1       8.496   4.394  18.247  0.00  0.00    +0.000 OA
BRANCH  14  17
ATOM     17  C   UNL     1       6.704   4.555  16.318  0.00  0.00    +0.000 A 
ATOM     18  C   UNL     1       7.404   5.098  15.239  0.00  0.00    +0.000 A 
ATOM     19  C   UNL     1       7.023   4.769  13.933  0.00  0.00    +0.000 A 
ATOM     20  C   UNL     1       5.953   3.903  13.716  0.00  0.00    +0.000 A 
ATOM     21 CL   UNL     1       5.480   3.517  12.103  0.00  0.00    +0.000 Cl
ATOM     22  C   UNL     1       5.259   3.345  14.788  0.00  0.00    +0.000 A 
ATOM     23  C   UNL     1       5.641   3.664  16.099  0.00  0.00    +0.000 A 
ENDBRANCH  14  17
ENDBRANCH   1  14
TORSDOF 3
ENDMDL
