MODEL 1
REMARK VINA RESULT:      -7.5      0.000      0.000
REMARK  Name = 
REMARK  5 active torsions:
REMARK  status: ('A' for Active; 'I' for Inactive)
REMARK    1  A    between atoms: C_2  and  C_3
REMARK    2  A    between atoms: C_2  and  C_19
REMARK    3  A    between atoms: C_3  and  C_4
REMARK    4  A    between atoms: C_4  and  C_5
REMARK    5  A    between atoms: C_5  and  N_6
REMARK                            x       y       z     vdW  Elec       q    Type
REMARK                         _______ _______ _______ _____ _____    ______ ____
ROOT
ATOM      1  N   UNL     1       4.722   6.482  17.643  0.00  0.00    +0.000 NA
ATOM      2  C   UNL     1       5.870   7.162  17.014  0.00  0.00    +0.000 C 
ATOM      3  C   UNL     1       7.227   6.489  17.233  0.00  0.00    +0.000 C 
ATOM      4  C   UNL     1       7.389   5.046  16.773  0.00  0.00    +0.000 C 
ATOM      5  N   UNL     1       6.348   4.626  15.856  0.00  0.00    +0.000 N 
ATOM      6  C   UNL     1       6.566   4.461  14.506  0.00  0.00    +0.000 A 
ATOM      7  C   UNL     1       7.590   5.149  13.848  0.00  0.00    +0.000 A 
ATOM      8  C   UNL     1       7.825   4.935  12.490  0.00  0.00    +0.000 A 
ATOM      9  C   UNL     1       7.028   4.044  11.803  0.00  0.00    +0.000 A 
ATOM     10  C   UNL     1       6.022   3.409  12.502  0.00  0.00    +0.000 A 
ATOM     11  N   UNL     1       5.776   3.614  13.818  0.00  0.00    +0.000 NA
ATOM     12  C   UNL     1       5.086   4.207  16.464  0.00  0.00    +0.000 C 
ATOM     13  C   UNL     1       4.175   5.415  16.755  0.00  0.00    +0.000 C 
ENDROOT
BRANCH   1  14
ATOM     14  C   UNL     1       3.649   7.454  17.963  0.00  0.00    +0.000 C 
BRANCH  14  15
ATOM     15  C   UNL     1       2.333   6.830  18.442  0.00  0.00    +0.000 C 
BRANCH  15  16
ATOM     16  C   UNL     1       2.374   6.425  19.908  0.00  0.00    +0.000 C 
BRANCH  16  18
ATOM     17  O   UNL     1       0.633   4.955  20.714  0.00  0.00    +0.000 OA
ATOM     18  C   UNL     1       1.692   5.081  20.100  0.00  0.00    +0.000 C 
BRANCH  18  19
ATOM     19  C   UNL     1       2.329   3.878  19.506  0.00  0.00    +0.000 A 
ATOM     20  C   UNL     1       3.525   3.407  20.067  0.00  0.00    +0.000 A 
ATOM     21  C   UNL     1       4.132   2.259  19.558  0.00  0.00    +0.000 A 
ATOM     22  C   UNL     1       3.543   1.592  18.490  0.00  0.00    +0.000 A 
ATOM     23  F   UNL     1       4.118   0.486  18.008  0.00  0.00    +0.000 F 
ATOM     24  C   UNL     1       2.364   2.056  17.914  0.00  0.00    +0.000 A 
ATOM     25  C   UNL     1       1.757   3.203  18.417  0.00  0.00    +0.000 A 
ENDBRANCH  18  19
ENDBRANCH  16  18
ENDBRANCH  15  16
ENDBRANCH  14  15
ENDBRANCH   1  14
TORSDOF 5
ENDMDL
MODEL 2
REMARK VINA RESULT:      -7.1      5.917      8.996
REMARK  Name = 
REMARK  5 active torsions:
REMARK  status: ('A' for Active; 'I' for Inactive)
REMARK    1  A    between atoms: C_2  and  C_3
REMARK    2  A    between atoms: C_2  and  C_19
REMARK    3  A    between atoms: C_3  and  C_4
REMARK    4  A    between atoms: C_4  and  C_5
REMARK    5  A    between atoms: C_5  and  N_6
REMARK                            x       y       z     vdW  Elec       q    Type
REMARK                         _______ _______ _______ _____ _____    ______ ____
ROOT
ATOM      1  N   UNL     1       6.876   7.020  17.104  0.00  0.00    +0.000 NA
ATOM      2  C   UNL     1       5.572   6.857  16.433  0.00  0.00    +0.000 C 
ATOM      3  C   UNL     1       5.471   5.662  15.481  0.00  0.00    +0.000 C 
ATOM      4  C   UNL     1       5.741   4.275  16.048  0.00  0.00    +0.000 C 
ATOM      5  N   UNL     1       5.695   4.239  17.496  0.00  0.00    +0.000 N 
ATOM      6  C   UNL     1       4.649   3.677  18.195  0.00  0.00    +0.000 A 
ATOM      7  C   UNL     1       3.373   3.577  17.633  0.00  0.00    +0.000 A 
ATOM      8  C   UNL     1       2.336   2.964  18.337  0.00  0.00    +0.000 A 
ATOM      9  C   UNL     1       2.585   2.467  19.599  0.00  0.00    +0.000 A 
ATOM     10  C   UNL     1       3.859   2.612  20.108  0.00  0.00    +0.000 A 
ATOM     11  N   UNL     1       4.872   3.213  19.440  0.00  0.00    +0.000 NA
ATOM     12  C   UNL     1       6.907   4.671  18.190  0.00  0.00    +0.000 C 
ATOM     13  C   UNL     1       6.947   6.203  18.349  0.00  0.00    +0.000 C 
ENDROOT
BRANCH   1  14
ATOM     14  C   UNL     1       7.121   8.444  17.433  0.00  0.00    +0.000 C 
BRANCH  14  15
ATOM     15  C   UNL     1       8.383   8.708  18.264  0.00  0.00    +0.000 C 
BRANCH  15  16
ATOM     16  C   UNL     1       9.057  10.024  17.905  0.00  0.00    +0.000 C 
BRANCH  16  18
ATOM     17  O   UNL     1       9.209  10.345  20.296  0.00  0.00    +0.000 OA
ATOM     18  C   UNL     1       9.446  10.775  19.168  0.00  0.00    +0.000 C 
BRANCH  18  19
ATOM     19  C   UNL     1      10.152  12.073  19.025  0.00  0.00    +0.000 A 
ATOM     20  C   UNL     1       9.663  13.003  18.095  0.00  0.00    +0.000 A 
ATOM     21  C   UNL     1      10.279  14.247  17.960  0.00  0.00    +0.000 A 
ATOM     22  C   UNL     1      11.382  14.552  18.749  0.00  0.00    +0.000 A 
ATOM     23  F   UNL     1      11.969  15.747  18.627  0.00  0.00    +0.000 F 
ATOM     24  C   UNL     1      11.888  13.633  19.664  0.00  0.00    +0.000 A 
ATOM     25  C   UNL     1      11.277  12.390  19.801  0.00  0.00    +0.000 A 
ENDBRANCH  18  19
ENDBRANCH  16  18
ENDBRANCH  15  16
ENDBRANCH  14  15
ENDBRANCH   1  14
TORSDOF 5
ENDMDL
MODEL 3
REMARK VINA RESULT:      -7.1      5.655      8.848
REMARK  Name = 
REMARK  5 active torsions:
REMARK  status: ('A' for Active; 'I' for Inactive)
REMARK    1  A    between atoms: C_2  and  C_3
REMARK    2  A    between atoms: C_2  and  C_19
REMARK    3  A    between atoms: C_3  and  C_4
REMARK    4  A    between atoms: C_4  and  C_5
REMARK    5  A    between atoms: C_5  and  N_6
REMARK                            x       y       z     vdW  Elec       q    Type
REMARK                         _______ _______ _______ _____ _____    ______ ____
ROOT
ATOM      1  N   UNL     1       7.266   6.389  17.875  0.00  0.00    +0.000 NA
ATOM      2  C   UNL     1       6.085   6.866  17.130  0.00  0.00    +0.000 C 
ATOM      3  C   UNL     1       5.614   5.950  15.997  0.00  0.00    +0.000 C 
ATOM      4  C   UNL     1       5.240   4.517  16.349  0.00  0.00    +0.000 C 
ATOM      5  N   UNL     1       5.030   4.321  17.770  0.00  0.00    +0.000 N 
ATOM      6  C   UNL     1       3.779   4.159  18.323  0.00  0.00    +0.000 A 
ATOM      7  C   UNL     1       2.638   4.668  17.696  0.00  0.00    +0.000 A 
ATOM      8  C   UNL     1       1.374   4.456  18.247  0.00  0.00    +0.000 A 
ATOM      9  C   UNL     1       1.267   3.745  19.424  0.00  0.00    +0.000 A 
ATOM     10  C   UNL     1       2.430   3.284  20.007  0.00  0.00    +0.000 A 
ATOM     11  N   UNL     1       3.664   3.491  19.488  0.00  0.00    +0.000 NA
ATOM     12  C   UNL     1       6.233   4.121  18.577  0.00  0.00    +0.000 C 
ATOM     13  C   UNL     1       6.869   5.466  18.978  0.00  0.00    +0.000 C 
ENDROOT
BRANCH   1  14
ATOM     14  C   UNL     1       8.027   7.530  18.437  0.00  0.00    +0.000 C 
BRANCH  14  15
ATOM     15  C   UNL     1       8.282   8.682  17.458  0.00  0.00    +0.000 C 
BRANCH  15  16
ATOM     16  C   UNL     1       7.951  10.042  18.053  0.00  0.00    +0.000 C 
BRANCH  16  18
ATOM     17  O   UNL     1       9.593  10.093  19.827  0.00  0.00    +0.000 OA
ATOM     18  C   UNL     1       9.158  10.598  18.793  0.00  0.00    +0.000 C 
BRANCH  18  19
ATOM     19  C   UNL     1       9.841  11.790  18.229  0.00  0.00    +0.000 A 
ATOM     20  C   UNL     1       9.146  13.008  18.197  0.00  0.00    +0.000 A 
ATOM     21  C   UNL     1       9.769  14.156  17.708  0.00  0.00    +0.000 A 
ATOM     22  C   UNL     1      11.079  14.078  17.249  0.00  0.00    +0.000 A 
ATOM     23  F   UNL     1      11.681  15.180  16.789  0.00  0.00    +0.000 F 
ATOM     24  C   UNL     1      11.775  12.873  17.260  0.00  0.00    +0.000 A 
ATOM     25  C   UNL     1      11.156  11.725  17.745  0.00  0.00    +0.000 A 
ENDBRANCH  18  19
ENDBRANCH  16  18
ENDBRANCH  15  16
ENDBRANCH  14  15
ENDBRANCH   1  14
TORSDOF 5
ENDMDL
MODEL 4
REMARK VINA RESULT:      -7.1      5.756      8.727
REMARK  Name = 
REMARK  5 active torsions:
REMARK  status: ('A' for Active; 'I' for Inactive)
REMARK    1  A    between atoms: C_2  and  C_3
REMARK    2  A    between atoms: C_2  and  C_19
REMARK    3  A    between atoms: C_3  and  C_4
REMARK    4  A    between atoms: C_4  and  C_5
REMARK    5  A    between atoms: C_5  and  N_6
REMARK                            x       y       z     vdW  Elec       q    Type
REMARK                         _______ _______ _______ _____ _____    ______ ____
ROOT
ATOM      1  N   UNL     1       7.425   6.649  17.671  0.00  0.00    +0.000 NA
ATOM      2  C   UNL     1       6.127   7.249  17.306  0.00  0.00    +0.000 C 
ATOM      3  C   UNL     1       5.483   6.689  16.035  0.00  0.00    +0.000 C 
ATOM      4  C   UNL     1       5.198   5.194  15.980  0.00  0.00    +0.000 C 
ATOM      5  N   UNL     1       5.237   4.565  17.286  0.00  0.00    +0.000 N 
ATOM      6  C   UNL     1       4.101   4.160  17.952  0.00  0.00    +0.000 A 
ATOM      7  C   UNL     1       2.862   4.756  17.701  0.00  0.00    +0.000 A 
ATOM      8  C   UNL     1       1.714   4.303  18.352  0.00  0.00    +0.000 A 
ATOM      9  C   UNL     1       1.820   3.264  19.253  0.00  0.00    +0.000 A 
ATOM     10  C   UNL     1       3.073   2.728  19.473  0.00  0.00    +0.000 A 
ATOM     11  N   UNL     1       4.196   3.164  18.856  0.00  0.00    +0.000 NA
ATOM     12  C   UNL     1       6.563   4.211  17.791  0.00  0.00    +0.000 C 
ATOM     13  C   UNL     1       7.237   5.412  18.482  0.00  0.00    +0.000 C 
ENDROOT
BRANCH   1  14
ATOM     14  C   UNL     1       8.254   7.615  18.430  0.00  0.00    +0.000 C 
BRANCH  14  15
ATOM     15  C   UNL     1       8.245   9.047  17.881  0.00  0.00    +0.000 C 
BRANCH  15  16
ATOM     16  C   UNL     1       8.803  10.059  18.870  0.00  0.00    +0.000 C 
BRANCH  16  18
ATOM     17  O   UNL     1      10.591  10.986  17.533  0.00  0.00    +0.000 OA
ATOM     18  C   UNL     1       9.530  11.170  18.130  0.00  0.00    +0.000 C 
BRANCH  18  19
ATOM     19  C   UNL     1       8.922  12.524  18.120  0.00  0.00    +0.000 A 
ATOM     20  C   UNL     1       9.587  13.563  18.787  0.00  0.00    +0.000 A 
ATOM     21  C   UNL     1       9.063  14.855  18.767  0.00  0.00    +0.000 A 
ATOM     22  C   UNL     1       7.876  15.100  18.087  0.00  0.00    +0.000 A 
ATOM     23  F   UNL     1       7.378  16.340  18.059  0.00  0.00    +0.000 F 
ATOM     24  C   UNL     1       7.197  14.076  17.433  0.00  0.00    +0.000 A 
ATOM     25  C   UNL     1       7.715  12.784  17.452  0.00  0.00    +0.000 A 
ENDBRANCH  18  19
ENDBRANCH  16  18
ENDBRANCH  15  16
ENDBRANCH  14  15
ENDBRANCH   1  14
TORSDOF 5
ENDMDL
MODEL 5
REMARK VINA RESULT:      -6.9      6.726      8.847
REMARK  Name = 
REMARK  5 active torsions:
REMARK  status: ('A' for Active; 'I' for Inactive)
REMARK    1  A    between atoms: C_2  and  C_3
REMARK    2  A    between atoms: C_2  and  C_19
REMARK    3  A    between atoms: C_3  and  C_4
REMARK    4  A    between atoms: C_4  and  C_5
REMARK    5  A    between atoms: C_5  and  N_6
REMARK                            x       y       z     vdW  Elec       q    Type
REMARK                         _______ _______ _______ _____ _____    ______ ____
ROOT
ATOM      1  N   UNL     1       9.557  10.724  18.377  0.00  0.00    +0.000 NA
ATOM      2  C   UNL     1      10.602  11.007  19.379  0.00  0.00    +0.000 C 
ATOM      3  C   UNL     1      11.910  11.571  18.818  0.00  0.00    +0.000 C 
ATOM      4  C   UNL     1      11.842  12.865  18.018  0.00  0.00    +0.000 C 
ATOM      5  N   UNL     1      10.597  13.582  18.210  0.00  0.00    +0.000 N 
ATOM      6  C   UNL     1      10.510  14.733  18.962  0.00  0.00    +0.000 A 
ATOM      7  C   UNL     1      11.427  15.006  19.980  0.00  0.00    +0.000 A 
ATOM      8  C   UNL     1      11.350  16.198  20.701  0.00  0.00    +0.000 A 
ATOM      9  C   UNL     1      10.350  17.099  20.402  0.00  0.00    +0.000 A 
ATOM     10  C   UNL     1       9.462  16.766  19.399  0.00  0.00    +0.000 A 
ATOM     11  N   UNL     1       9.519  15.609  18.698  0.00  0.00    +0.000 NA
ATOM     12  C   UNL     1       9.460  13.124  17.413  0.00  0.00    +0.000 C 
ATOM     13  C   UNL     1       8.743  11.940  18.089  0.00  0.00    +0.000 C 
ENDROOT
BRANCH   1  14
ATOM     14  C   UNL     1       8.667   9.634  18.842  0.00  0.00    +0.000 C 
BRANCH  14  15
ATOM     15  C   UNL     1       8.210   8.660  17.749  0.00  0.00    +0.000 C 
BRANCH  15  16
ATOM     16  C   UNL     1       7.941   7.262  18.284  0.00  0.00    +0.000 C 
BRANCH  16  18
ATOM     17  O   UNL     1       7.645   6.404  16.043  0.00  0.00    +0.000 OA
ATOM     18  C   UNL     1       7.272   6.411  17.216  0.00  0.00    +0.000 C 
BRANCH  18  19
ATOM     19  C   UNL     1       6.133   5.547  17.616  0.00  0.00    +0.000 A 
ATOM     20  C   UNL     1       5.776   5.494  18.972  0.00  0.00    +0.000 A 
ATOM     21  C   UNL     1       4.688   4.722  19.379  0.00  0.00    +0.000 A 
ATOM     22  C   UNL     1       3.968   4.004  18.431  0.00  0.00    +0.000 A 
ATOM     23  F   UNL     1       2.919   3.271  18.818  0.00  0.00    +0.000 F 
ATOM     24  C   UNL     1       4.320   4.036  17.085  0.00  0.00    +0.000 A 
ATOM     25  C   UNL     1       5.406   4.803  16.674  0.00  0.00    +0.000 A 
ENDBRANCH  18  19
ENDBRANCH  16  18
ENDBRANCH  15  16
ENDBRANCH  14  15
ENDBRANCH   1  14
TORSDOF 5
ENDMDL
MODEL 6
REMARK VINA RESULT:      -6.8      5.850      8.947
REMARK  Name = 
REMARK  5 active torsions:
REMARK  status: ('A' for Active; 'I' for Inactive)
REMARK    1  A    between atoms: C_2  and  C_3
REMARK    2  A    between atoms: C_2  and  C_19
REMARK    3  A    between atoms: C_3  and  C_4
REMARK    4  A    between atoms: C_4  and  C_5
REMARK    5  A    between atoms: C_5  and  N_6
REMARK                            x       y       z     vdW  Elec       q    Type
REMARK                         _______ _______ _______ _____ _____    ______ ____
ROOT
ATOM      1  N   UNL     1       7.376   6.544  17.693  0.00  0.00    +0.000 NA
ATOM      2  C   UNL     1       6.123   7.102  17.148  0.00  0.00    +0.000 C 
ATOM      3  C   UNL     1       5.535   6.344  15.955  0.00  0.00    +0.000 C 
ATOM      4  C   UNL     1       5.201   4.870  16.143  0.00  0.00    +0.000 C 
ATOM      5  N   UNL     1       5.142   4.478  17.537  0.00  0.00    +0.000 N 
ATOM      6  C   UNL     1       3.956   4.224  18.190  0.00  0.00    +0.000 A 
ATOM      7  C   UNL     1       2.755   4.797  17.762  0.00  0.00    +0.000 A 
ATOM      8  C   UNL     1       1.556   4.493  18.407  0.00  0.00    +0.000 A 
ATOM      9  C   UNL     1       1.573   3.626  19.480  0.00  0.00    +0.000 A 
ATOM     10  C   UNL     1       2.791   3.107  19.869  0.00  0.00    +0.000 A 
ATOM     11  N   UNL     1       3.964   3.400  19.258  0.00  0.00    +0.000 NA
ATOM     12  C   UNL     1       6.423   4.186  18.178  0.00  0.00    +0.000 C 
ATOM     13  C   UNL     1       7.098   5.473  18.693  0.00  0.00    +0.000 C 
ENDROOT
BRANCH   1  14
ATOM     14  C   UNL     1       8.192   7.608  18.324  0.00  0.00    +0.000 C 
BRANCH  14  15
ATOM     15  C   UNL     1       7.810   9.039  17.927  0.00  0.00    +0.000 C 
BRANCH  15  16
ATOM     16  C   UNL     1       9.022   9.934  17.718  0.00  0.00    +0.000 C 
BRANCH  16  18
ATOM     17  O   UNL     1       8.989  10.308  20.106  0.00  0.00    +0.000 OA
ATOM     18  C   UNL     1       9.332  10.703  18.992  0.00  0.00    +0.000 C 
BRANCH  18  19
ATOM     19  C   UNL     1      10.092  11.973  18.879  0.00  0.00    +0.000 A 
ATOM     20  C   UNL     1      10.727  12.477  20.024  0.00  0.00    +0.000 A 
ATOM     21  C   UNL     1      11.481  13.649  19.946  0.00  0.00    +0.000 A 
ATOM     22  C   UNL     1      11.590  14.310  18.729  0.00  0.00    +0.000 A 
ATOM     23  F   UNL     1      12.320  15.428  18.651  0.00  0.00    +0.000 F 
ATOM     24  C   UNL     1      10.953  13.830  17.589  0.00  0.00    +0.000 A 
ATOM     25  C   UNL     1      10.198  12.663  17.662  0.00  0.00    +0.000 A 
ENDBRANCH  18  19
ENDBRANCH  16  18
ENDBRANCH  15  16
ENDBRANCH  14  15
ENDBRANCH   1  14
TORSDOF 5
ENDMDL
MODEL 7
REMARK VINA RESULT:      -6.8      6.045      9.086
REMARK  Name = 
REMARK  5 active torsions:
REMARK  status: ('A' for Active; 'I' for Inactive)
REMARK    1  A    between atoms: C_2  and  C_3
REMARK    2  A    between atoms: C_2  and  C_19
REMARK    3  A    between atoms: C_3  and  C_4
REMARK    4  A    between atoms: C_4  and  C_5
REMARK    5  A    between atoms: C_5  and  N_6
REMARK                            x       y       z     vdW  Elec       q    Type
REMARK                         _______ _______ _______ _____ _____    ______ ____
ROOT
ATOM      1  N   UNL     1       7.732   7.002  17.838  0.00  0.00    +0.000 NA
ATOM      2  C   UNL     1       6.359   7.449  17.535  0.00  0.00    +0.000 C 
ATOM      3  C   UNL     1       5.713   6.792  16.313  0.00  0.00    +0.000 C 
ATOM      4  C   UNL     1       5.589   5.274  16.302  0.00  0.00    +0.000 C 
ATOM      5  N   UNL     1       5.766   4.685  17.615  0.00  0.00    +0.000 N 
ATOM      6  C   UNL     1       4.718   4.177  18.351  0.00  0.00    +0.000 A 
ATOM      7  C   UNL     1       3.410   4.630  18.158  0.00  0.00    +0.000 A 
ATOM      8  C   UNL     1       2.355   4.073  18.880  0.00  0.00    +0.000 A 
ATOM      9  C   UNL     1       2.621   3.075  19.794  0.00  0.00    +0.000 A 
ATOM     10  C   UNL     1       3.934   2.682  19.955  0.00  0.00    +0.000 A 
ATOM     11  N   UNL     1       4.969   3.221  19.268  0.00  0.00    +0.000 NA
ATOM     12  C   UNL     1       7.148   4.489  18.052  0.00  0.00    +0.000 C 
ATOM     13  C   UNL     1       7.723   5.772  18.682  0.00  0.00    +0.000 C 
ENDROOT
BRANCH   1  14
ATOM     14  C   UNL     1       8.490   8.071  18.532  0.00  0.00    +0.000 C 
BRANCH  14  15
ATOM     15  C   UNL     1       8.342   9.469  17.921  0.00  0.00    +0.000 C 
BRANCH  15  16
ATOM     16  C   UNL     1       8.854  10.568  18.839  0.00  0.00    +0.000 C 
BRANCH  16  18
ATOM     17  O   UNL     1      10.701  11.273  17.448  0.00  0.00    +0.000 OA
ATOM     18  C   UNL     1       9.670  11.577  18.046  0.00  0.00    +0.000 C 
BRANCH  18  19
ATOM     19  C   UNL     1       9.186  12.979  17.984  0.00  0.00    +0.000 A 
ATOM     20  C   UNL     1       7.834  13.209  17.693  0.00  0.00    +0.000 A 
ATOM     21  C   UNL     1       7.337  14.512  17.663  0.00  0.00    +0.000 A 
ATOM     22  C   UNL     1       8.195  15.576  17.918  0.00  0.00    +0.000 A 
ATOM     23  F   UNL     1       7.718  16.825  17.899  0.00  0.00    +0.000 F 
ATOM     24  C   UNL     1       9.542  15.363  18.194  0.00  0.00    +0.000 A 
ATOM     25  C   UNL     1      10.043  14.065  18.222  0.00  0.00    +0.000 A 
ENDBRANCH  18  19
ENDBRANCH  16  18
ENDBRANCH  15  16
ENDBRANCH  14  15
ENDBRANCH   1  14
TORSDOF 5
ENDMDL
MODEL 8
REMARK VINA RESULT:      -6.8      5.914      9.003
REMARK  Name = 
REMARK  5 active torsions:
REMARK  status: ('A' for Active; 'I' for Inactive)
REMARK    1  A    between atoms: C_2  and  C_3
REMARK    2  A    between atoms: C_2  and  C_19
REMARK    3  A    between atoms: C_3  and  C_4
REMARK    4  A    between atoms: C_4  and  C_5
REMARK    5  A    between atoms: C_5  and  N_6
REMARK                            x       y       z     vdW  Elec       q    Type
REMARK                         _______ _______ _______ _____ _____    ______ ____
ROOT
ATOM      1  N   UNL     1       7.429   6.753  17.630  0.00  0.00    +0.000 NA
ATOM      2  C   UNL     1       6.099   7.311  17.319  0.00  0.00    +0.000 C 
ATOM      3  C   UNL     1       5.438   6.759  16.054  0.00  0.00    +0.000 C 
ATOM      4  C   UNL     1       5.207   5.257  15.969  0.00  0.00    +0.000 C 
ATOM      5  N   UNL     1       5.309   4.597  17.256  0.00  0.00    +0.000 N 
ATOM      6  C   UNL     1       4.210   4.132  17.945  0.00  0.00    +0.000 A 
ATOM      7  C   UNL     1       2.943   4.687  17.746  0.00  0.00    +0.000 A 
ATOM      8  C   UNL     1       1.833   4.174  18.419  0.00  0.00    +0.000 A 
ATOM      9  C   UNL     1       2.005   3.119  19.289  0.00  0.00    +0.000 A 
ATOM     10  C   UNL     1       3.283   2.625  19.458  0.00  0.00    +0.000 A 
ATOM     11  N   UNL     1       4.370   3.119  18.820  0.00  0.00    +0.000 NA
ATOM     12  C   UNL     1       6.662   4.282  17.712  0.00  0.00    +0.000 C 
ATOM     13  C   UNL     1       7.312   5.489  18.414  0.00  0.00    +0.000 C 
ENDROOT
BRANCH   1  14
ATOM     14  C   UNL     1       8.244   7.731  18.389  0.00  0.00    +0.000 C 
BRANCH  14  15
ATOM     15  C   UNL     1       8.063   9.193  17.964  0.00  0.00    +0.000 C 
BRANCH  15  16
ATOM     16  C   UNL     1       9.377   9.955  17.909  0.00  0.00    +0.000 C 
BRANCH  16  18
ATOM     17  O   UNL     1       8.994  10.962  20.074  0.00  0.00    +0.000 OA
ATOM     18  C   UNL     1       9.360  11.102  18.907  0.00  0.00    +0.000 C 
BRANCH  18  19
ATOM     19  C   UNL     1       9.820  12.438  18.452  0.00  0.00    +0.000 A 
ATOM     20  C   UNL     1      10.749  12.505  17.403  0.00  0.00    +0.000 A 
ATOM     21  C   UNL     1      11.175  13.744  16.924  0.00  0.00    +0.000 A 
ATOM     22  C   UNL     1      10.676  14.907  17.500  0.00  0.00    +0.000 A 
ATOM     23  F   UNL     1      11.076  16.095  17.036  0.00  0.00    +0.000 F 
ATOM     24  C   UNL     1       9.765  14.855  18.551  0.00  0.00    +0.000 A 
ATOM     25  C   UNL     1       9.339  13.621  19.033  0.00  0.00    +0.000 A 
ENDBRANCH  18  19
ENDBRANCH  16  18
ENDBRANCH  15  16
ENDBRANCH  14  15
ENDBRANCH   1  14
TORSDOF 5
ENDMDL
MODEL 9
REMARK VINA RESULT:      -6.8      6.690      8.640
REMARK  Name = 
REMARK  5 active torsions:
REMARK  status: ('A' for Active; 'I' for Inactive)
REMARK    1  A    between atoms: C_2  and  C_3
REMARK    2  A    between atoms: C_2  and  C_19
REMARK    3  A    between atoms: C_3  and  C_4
REMARK    4  A    between atoms: C_4  and  C_5
REMARK    5  A    between atoms: C_5  and  N_6
REMARK                            x       y       z     vdW  Elec       q    Type
REMARK                         _______ _______ _______ _____ _____    ______ ____
ROOT
ATOM      1  N   UNL     1       9.602  10.466  18.765  0.00  0.00    +0.000 NA
ATOM      2  C   UNL     1       9.165  11.426  19.797  0.00  0.00    +0.000 C 
ATOM      3  C   UNL     1      10.224  11.792  20.840  0.00  0.00    +0.000 C 
ATOM      4  C   UNL     1      11.533  12.392  20.345  0.00  0.00    +0.000 C 
ATOM      5  N   UNL     1      11.451  12.877  18.982  0.00  0.00    +0.000 N 
ATOM      6  C   UNL     1      11.402  14.218  18.670  0.00  0.00    +0.000 A 
ATOM      7  C   UNL     1      10.916  15.157  19.584  0.00  0.00    +0.000 A 
ATOM      8  C   UNL     1      10.915  16.516  19.268  0.00  0.00    +0.000 A 
ATOM      9  C   UNL     1      11.390  16.919  18.038  0.00  0.00    +0.000 A 
ATOM     10  C   UNL     1      11.839  15.944  17.170  0.00  0.00    +0.000 A 
ATOM     11  N   UNL     1      11.837  14.621  17.459  0.00  0.00    +0.000 NA
ATOM     12  C   UNL     1      11.608  11.872  17.931  0.00  0.00    +0.000 C 
ATOM     13  C   UNL     1      10.273  11.163  17.631  0.00  0.00    +0.000 C 
ENDROOT
BRANCH   1  14
ATOM     14  C   UNL     1       8.449   9.687  18.253  0.00  0.00    +0.000 C 
BRANCH  14  15
ATOM     15  C   UNL     1       8.490   8.187  18.569  0.00  0.00    +0.000 C 
BRANCH  15  16
ATOM     16  C   UNL     1       7.609   7.367  17.639  0.00  0.00    +0.000 C 
BRANCH  16  18
ATOM     17  O   UNL     1       7.944   5.410  19.018  0.00  0.00    +0.000 OA
ATOM     18  C   UNL     1       7.180   6.079  18.324  0.00  0.00    +0.000 C 
BRANCH  18  19
ATOM     19  C   UNL     1       5.776   5.626  18.153  0.00  0.00    +0.000 A 
ATOM     20  C   UNL     1       4.818   6.558  17.727  0.00  0.00    +0.000 A 
ATOM     21  C   UNL     1       3.498   6.160  17.520  0.00  0.00    +0.000 A 
ATOM     22  C   UNL     1       3.141   4.835  17.747  0.00  0.00    +0.000 A 
ATOM     23  F   UNL     1       1.878   4.450  17.541  0.00  0.00    +0.000 F 
ATOM     24  C   UNL     1       4.077   3.903  18.185  0.00  0.00    +0.000 A 
ATOM     25  C   UNL     1       5.396   4.297  18.394  0.00  0.00    +0.000 A 
ENDBRANCH  18  19
ENDBRANCH  16  18
ENDBRANCH  15  16
ENDBRANCH  14  15
ENDBRANCH   1  14
TORSDOF 5
ENDMDL
