MODEL 1
REMARK VINA RESULT:      -4.7      0.000      0.000
REMARK  Name = 
REMARK  8 active torsions:
REMARK  status: ('A' for Active; 'I' for Inactive)
REMARK    1  A    between atoms: C_1  and  C_2
REMARK    2  A    between atoms: C_2  and  N_3
REMARK    3  A    between atoms: N_3  and  C_4
REMARK    4  A    between atoms: N_3  and  C_6
REMARK    5  A    between atoms: C_4  and  C_5
REMARK    6  A    between atoms: C_6  and  C_7
REMARK    7  A    between atoms: C_7  and  C_8
REMARK    8  A    between atoms: C_8  and  N_9
REMARK                            x       y       z     vdW  Elec       q    Type
REMARK                         _______ _______ _______ _____ _____    ______ ____
ROOT
ATOM      1  C   UNL     1       7.506   4.681  17.853  0.00  0.00    +0.000 C 
ENDROOT
BRANCH   1   2
ATOM      2  N   UNL     1       7.554   5.224  16.501  0.00  0.00    +0.000 NA
ATOM      3  C   UNL     1       6.891   4.629  15.581  0.00  0.00    +0.000 C 
ATOM      4  N   UNL     1       6.134   3.520  15.657  0.00  0.00    +0.000 N 
ATOM      5  N   UNL     1       6.924   5.126  14.326  0.00  0.00    +0.000 N 
ATOM      6  H   UNL     1       5.892   3.149  16.564  0.00  0.00    +0.000 HD
ATOM      7  H   UNL     1       5.524   3.271  14.895  0.00  0.00    +0.000 HD
ATOM      8  H   UNL     1       7.350   6.046  14.325  0.00  0.00    +0.000 HD
ATOM      9  H   UNL     1       6.044   5.123  13.833  0.00  0.00    +0.000 HD
ENDBRANCH   1   2
BRANCH   1  10
ATOM     10  C   UNL     1       6.606   5.548  18.730  0.00  0.00    +0.000 C 
BRANCH  10  11
ATOM     11  C   UNL     1       5.196   5.045  19.117  0.00  0.00    +0.000 C 
BRANCH  11  12
ATOM     12  N   UNL     1       4.472   4.053  18.289  0.00  0.00    +0.000 NA
BRANCH  12  14
ATOM     13  C   UNL     1       3.447   1.734  18.241  0.00  0.00    +0.000 C 
ATOM     14  C   UNL     1       4.110   2.843  19.058  0.00  0.00    +0.000 C 
ENDBRANCH  12  14
BRANCH  12  15
ATOM     15  C   UNL     1       3.305   4.591  17.593  0.00  0.00    +0.000 C 
ATOM     16  C   UNL     1       2.460   5.571  18.399  0.00  0.00    +0.000 C 
ENDBRANCH  12  15
ENDBRANCH  11  12
ENDBRANCH  10  11
ENDBRANCH   1  10
TORSDOF 6
ENDMDL
MODEL 2
REMARK VINA RESULT:      -4.6      1.980      4.555
REMARK  Name = 
REMARK  8 active torsions:
REMARK  status: ('A' for Active; 'I' for Inactive)
REMARK    1  A    between atoms: C_1  and  C_2
REMARK    2  A    between atoms: C_2  and  N_3
REMARK    3  A    between atoms: N_3  and  C_4
REMARK    4  A    between atoms: N_3  and  C_6
REMARK    5  A    between atoms: C_4  and  C_5
REMARK    6  A    between atoms: C_6  and  C_7
REMARK    7  A    between atoms: C_7  and  C_8
REMARK    8  A    between atoms: C_8  and  N_9
REMARK                            x       y       z     vdW  Elec       q    Type
REMARK                         _______ _______ _______ _____ _____    ______ ____
ROOT
ATOM      1  C   UNL     1       3.439   4.090  19.410  0.00  0.00    +0.000 C 
ENDROOT
BRANCH   1   2
ATOM      2  N   UNL     1       4.124   2.828  19.154  0.00  0.00    +0.000 NA
ATOM      3  C   UNL     1       3.473   1.886  18.583  0.00  0.00    +0.000 C 
ATOM      4  N   UNL     1       2.191   1.861  18.175  0.00  0.00    +0.000 N 
ATOM      5  N   UNL     1       4.098   0.716  18.335  0.00  0.00    +0.000 N 
ATOM      6  H   UNL     1       1.665   2.722  18.149  0.00  0.00    +0.000 HD
ATOM      7  H   UNL     1       1.865   1.119  17.576  0.00  0.00    +0.000 HD
ATOM      8  H   UNL     1       5.096   0.813  18.487  0.00  0.00    +0.000 HD
ATOM      9  H   UNL     1       3.898   0.294  17.440  0.00  0.00    +0.000 HD
ENDBRANCH   1   2
BRANCH   1  10
ATOM     10  C   UNL     1       4.444   5.239  19.403  0.00  0.00    +0.000 C 
BRANCH  10  11
ATOM     11  C   UNL     1       5.492   5.335  18.270  0.00  0.00    +0.000 C 
BRANCH  11  12
ATOM     12  N   UNL     1       6.902   4.933  18.480  0.00  0.00    +0.000 NA
BRANCH  12  14
ATOM     13  C   UNL     1       6.607   4.395  16.019  0.00  0.00    +0.000 C 
ATOM     14  C   UNL     1       7.526   4.420  17.241  0.00  0.00    +0.000 C 
ENDBRANCH  12  14
BRANCH  12  15
ATOM     15  C   UNL     1       7.735   5.967  19.088  0.00  0.00    +0.000 C 
ATOM     16  C   UNL     1       7.931   7.224  18.249  0.00  0.00    +0.000 C 
ENDBRANCH  12  15
ENDBRANCH  11  12
ENDBRANCH  10  11
ENDBRANCH   1  10
TORSDOF 6
ENDMDL
MODEL 3
REMARK VINA RESULT:      -4.5      1.787      2.953
REMARK  Name = 
REMARK  8 active torsions:
REMARK  status: ('A' for Active; 'I' for Inactive)
REMARK    1  A    between atoms: C_1  and  C_2
REMARK    2  A    between atoms: C_2  and  N_3
REMARK    3  A    between atoms: N_3  and  C_4
REMARK    4  A    between atoms: N_3  and  C_6
REMARK    5  A    between atoms: C_4  and  C_5
REMARK    6  A    between atoms: C_6  and  C_7
REMARK    7  A    between atoms: C_7  and  C_8
REMARK    8  A    between atoms: C_8  and  N_9
REMARK                            x       y       z     vdW  Elec       q    Type
REMARK                         _______ _______ _______ _____ _____    ______ ____
ROOT
ATOM      1  C   UNL     1       4.674   5.438  16.852  0.00  0.00    +0.000 C 
ENDROOT
BRANCH   1   2
ATOM      2  N   UNL     1       5.788   4.716  17.454  0.00  0.00    +0.000 NA
ATOM      3  C   UNL     1       6.972   4.957  17.030  0.00  0.00    +0.000 C 
ATOM      4  N   UNL     1       7.375   5.797  16.060  0.00  0.00    +0.000 N 
ATOM      5  N   UNL     1       8.011   4.298  17.584  0.00  0.00    +0.000 N 
ATOM      6  H   UNL     1       6.721   6.467  15.684  0.00  0.00    +0.000 HD
ATOM      7  H   UNL     1       8.352   6.020  15.959  0.00  0.00    +0.000 HD
ATOM      8  H   UNL     1       7.710   3.808  18.419  0.00  0.00    +0.000 HD
ATOM      9  H   UNL     1       8.838   4.851  17.756  0.00  0.00    +0.000 HD
ENDBRANCH   1   2
BRANCH   1  10
ATOM     10  C   UNL     1       3.605   5.719  17.905  0.00  0.00    +0.000 C 
BRANCH  10  11
ATOM     11  C   UNL     1       2.669   4.580  18.372  0.00  0.00    +0.000 C 
BRANCH  11  12
ATOM     12  N   UNL     1       2.976   3.764  19.569  0.00  0.00    +0.000 NA
BRANCH  12  14
ATOM     13  C   UNL     1       1.672   3.050  21.625  0.00  0.00    +0.000 C 
ATOM     14  C   UNL     1       2.192   4.191  20.749  0.00  0.00    +0.000 C 
ENDBRANCH  12  14
BRANCH  12  15
ATOM     15  C   UNL     1       2.854   2.324  19.361  0.00  0.00    +0.000 C 
ATOM     16  C   UNL     1       3.417   1.806  18.043  0.00  0.00    +0.000 C 
ENDBRANCH  12  15
ENDBRANCH  11  12
ENDBRANCH  10  11
ENDBRANCH   1  10
TORSDOF 6
ENDMDL
MODEL 4
REMARK VINA RESULT:      -4.5      1.879      4.632
REMARK  Name = 
REMARK  8 active torsions:
REMARK  status: ('A' for Active; 'I' for Inactive)
REMARK    1  A    between atoms: C_1  and  C_2
REMARK    2  A    between atoms: C_2  and  N_3
REMARK    3  A    between atoms: N_3  and  C_4
REMARK    4  A    between atoms: N_3  and  C_6
REMARK    5  A    between atoms: C_4  and  C_5
REMARK    6  A    between atoms: C_6  and  C_7
REMARK    7  A    between atoms: C_7  and  C_8
REMARK    8  A    between atoms: C_8  and  N_9
REMARK                            x       y       z     vdW  Elec       q    Type
REMARK                         _______ _______ _______ _____ _____    ______ ____
ROOT
ATOM      1  C   UNL     1       3.138   4.206  17.565  0.00  0.00    +0.000 C 
ENDROOT
BRANCH   1   2
ATOM      2  N   UNL     1       3.929   3.001  17.786  0.00  0.00    +0.000 NA
ATOM      3  C   UNL     1       3.321   1.927  18.127  0.00  0.00    +0.000 C 
ATOM      4  N   UNL     1       2.010   1.721  18.342  0.00  0.00    +0.000 N 
ATOM      5  N   UNL     1       4.042   0.804  18.329  0.00  0.00    +0.000 N 
ATOM      6  H   UNL     1       1.347   2.430  18.064  0.00  0.00    +0.000 HD
ATOM      7  H   UNL     1       1.652   0.783  18.426  0.00  0.00    +0.000 HD
ATOM      8  H   UNL     1       4.992   0.933  17.997  0.00  0.00    +0.000 HD
ATOM      9  H   UNL     1       3.636  -0.047  17.970  0.00  0.00    +0.000 HD
ENDBRANCH   1   2
BRANCH   1  10
ATOM     10  C   UNL     1       3.877   5.422  18.116  0.00  0.00    +0.000 C 
BRANCH  10  11
ATOM     11  C   UNL     1       4.472   6.466  17.143  0.00  0.00    +0.000 C 
BRANCH  11  12
ATOM     12  N   UNL     1       5.740   6.219  16.420  0.00  0.00    +0.000 NA
BRANCH  12  14
ATOM     13  C   UNL     1       7.595   6.583  18.111  0.00  0.00    +0.000 C 
ATOM     14  C   UNL     1       6.765   5.598  17.288  0.00  0.00    +0.000 C 
ENDBRANCH  12  14
BRANCH  12  15
ATOM     15  C   UNL     1       5.586   5.462  15.180  0.00  0.00    +0.000 C 
ATOM     16  C   UNL     1       6.250   4.090  15.167  0.00  0.00    +0.000 C 
ENDBRANCH  12  15
ENDBRANCH  11  12
ENDBRANCH  10  11
ENDBRANCH   1  10
TORSDOF 6
ENDMDL
MODEL 5
REMARK VINA RESULT:      -4.5      1.623      2.200
REMARK  Name = 
REMARK  8 active torsions:
REMARK  status: ('A' for Active; 'I' for Inactive)
REMARK    1  A    between atoms: C_1  and  C_2
REMARK    2  A    between atoms: C_2  and  N_3
REMARK    3  A    between atoms: N_3  and  C_4
REMARK    4  A    between atoms: N_3  and  C_6
REMARK    5  A    between atoms: C_4  and  C_5
REMARK    6  A    between atoms: C_6  and  C_7
REMARK    7  A    between atoms: C_7  and  C_8
REMARK    8  A    between atoms: C_8  and  N_9
REMARK                            x       y       z     vdW  Elec       q    Type
REMARK                         _______ _______ _______ _____ _____    ______ ____
ROOT
ATOM      1  C   UNL     1       4.962   4.033  16.517  0.00  0.00    +0.000 C 
ENDROOT
BRANCH   1   2
ATOM      2  N   UNL     1       5.678   4.713  15.444  0.00  0.00    +0.000 NA
ATOM      3  C   UNL     1       6.947   4.850  15.548  0.00  0.00    +0.000 C 
ATOM      4  N   UNL     1       7.766   4.465  16.542  0.00  0.00    +0.000 N 
ATOM      5  N   UNL     1       7.621   5.472  14.558  0.00  0.00    +0.000 N 
ATOM      6  H   UNL     1       7.417   3.844  17.258  0.00  0.00    +0.000 HD
ATOM      7  H   UNL     1       8.765   4.473  16.406  0.00  0.00    +0.000 HD
ATOM      8  H   UNL     1       7.020   5.596  13.750  0.00  0.00    +0.000 HD
ATOM      9  H   UNL     1       8.504   5.057  14.303  0.00  0.00    +0.000 HD
ENDBRANCH   1   2
BRANCH   1  10
ATOM     10  C   UNL     1       4.228   5.055  17.382  0.00  0.00    +0.000 C 
BRANCH  10  11
ATOM     11  C   UNL     1       4.097   4.820  18.904  0.00  0.00    +0.000 C 
BRANCH  11  12
ATOM     12  N   UNL     1       3.109   3.867  19.460  0.00  0.00    +0.000 NA
BRANCH  12  14
ATOM     13  C   UNL     1       3.472   1.510  18.594  0.00  0.00    +0.000 C 
ATOM     14  C   UNL     1       3.699   2.533  19.708  0.00  0.00    +0.000 C 
ENDBRANCH  12  14
BRANCH  12  15
ATOM     15  C   UNL     1       2.411   4.352  20.648  0.00  0.00    +0.000 C 
ATOM     16  C   UNL     1       2.045   3.283  21.671  0.00  0.00    +0.000 C 
ENDBRANCH  12  15
ENDBRANCH  11  12
ENDBRANCH  10  11
ENDBRANCH   1  10
TORSDOF 6
ENDMDL
MODEL 6
REMARK VINA RESULT:      -4.5      2.565      5.359
REMARK  Name = 
REMARK  8 active torsions:
REMARK  status: ('A' for Active; 'I' for Inactive)
REMARK    1  A    between atoms: C_1  and  C_2
REMARK    2  A    between atoms: C_2  and  N_3
REMARK    3  A    between atoms: N_3  and  C_4
REMARK    4  A    between atoms: N_3  and  C_6
REMARK    5  A    between atoms: C_4  and  C_5
REMARK    6  A    between atoms: C_6  and  C_7
REMARK    7  A    between atoms: C_7  and  C_8
REMARK    8  A    between atoms: C_8  and  N_9
REMARK                            x       y       z     vdW  Elec       q    Type
REMARK                         _______ _______ _______ _____ _____    ______ ____
ROOT
ATOM      1  C   UNL     1       1.382   4.026  18.648  0.00  0.00    +0.000 C 
ENDROOT
BRANCH   1   2
ATOM      2  N   UNL     1       1.528   3.272  19.887  0.00  0.00    +0.000 NA
ATOM      3  C   UNL     1       2.014   3.868  20.911  0.00  0.00    +0.000 C 
ATOM      4  N   UNL     1       2.450   5.134  21.032  0.00  0.00    +0.000 N 
ATOM      5  N   UNL     1       2.147   3.181  22.065  0.00  0.00    +0.000 N 
ATOM      6  H   UNL     1       2.251   5.797  20.297  0.00  0.00    +0.000 HD
ATOM      7  H   UNL     1       2.635   5.520  21.944  0.00  0.00    +0.000 HD
ATOM      8  H   UNL     1       1.658   2.295  22.003  0.00  0.00    +0.000 HD
ATOM      9  H   UNL     1       1.900   3.684  22.904  0.00  0.00    +0.000 HD
ENDBRANCH   1   2
BRANCH   1  10
ATOM     10  C   UNL     1       2.320   3.463  17.583  0.00  0.00    +0.000 C 
BRANCH  10  11
ATOM     11  C   UNL     1       3.792   3.930  17.531  0.00  0.00    +0.000 C 
BRANCH  11  12
ATOM     12  N   UNL     1       4.293   5.018  18.403  0.00  0.00    +0.000 NA
BRANCH  12  14
ATOM     13  C   UNL     1       6.720   5.617  18.830  0.00  0.00    +0.000 C 
ATOM     14  C   UNL     1       5.558   4.655  19.078  0.00  0.00    +0.000 C 
ENDBRANCH  12  14
BRANCH  12  15
ATOM     15  C   UNL     1       4.416   6.312  17.735  0.00  0.00    +0.000 C 
ATOM     16  C   UNL     1       3.212   7.235  17.876  0.00  0.00    +0.000 C 
ENDBRANCH  12  15
ENDBRANCH  11  12
ENDBRANCH  10  11
ENDBRANCH   1  10
TORSDOF 6
ENDMDL
MODEL 7
REMARK VINA RESULT:      -4.5      1.689      2.218
REMARK  Name = 
REMARK  8 active torsions:
REMARK  status: ('A' for Active; 'I' for Inactive)
REMARK    1  A    between atoms: C_1  and  C_2
REMARK    2  A    between atoms: C_2  and  N_3
REMARK    3  A    between atoms: N_3  and  C_4
REMARK    4  A    between atoms: N_3  and  C_6
REMARK    5  A    between atoms: C_4  and  C_5
REMARK    6  A    between atoms: C_6  and  C_7
REMARK    7  A    between atoms: C_7  and  C_8
REMARK    8  A    between atoms: C_8  and  N_9
REMARK                            x       y       z     vdW  Elec       q    Type
REMARK                         _______ _______ _______ _____ _____    ______ ____
ROOT
ATOM      1  C   UNL     1       6.449   5.370  18.828  0.00  0.00    +0.000 C 
ENDROOT
BRANCH   1   2
ATOM      2  N   UNL     1       6.700   4.885  17.476  0.00  0.00    +0.000 NA
ATOM      3  C   UNL     1       7.191   5.699  16.618  0.00  0.00    +0.000 C 
ATOM      4  N   UNL     1       7.513   6.997  16.761  0.00  0.00    +0.000 N 
ATOM      5  N   UNL     1       7.433   5.260  15.365  0.00  0.00    +0.000 N 
ATOM      6  H   UNL     1       7.538   7.400  17.686  0.00  0.00    +0.000 HD
ATOM      7  H   UNL     1       8.060   7.463  16.055  0.00  0.00    +0.000 HD
ATOM      8  H   UNL     1       7.350   4.250  15.326  0.00  0.00    +0.000 HD
ATOM      9  H   UNL     1       8.296   5.578  14.949  0.00  0.00    +0.000 HD
ENDBRANCH   1   2
BRANCH   1  10
ATOM     10  C   UNL     1       5.029   5.010  19.255  0.00  0.00    +0.000 C 
BRANCH  10  11
ATOM     11  C   UNL     1       4.521   3.559  19.090  0.00  0.00    +0.000 C 
BRANCH  11  12
ATOM     12  N   UNL     1       3.121   3.187  19.399  0.00  0.00    +0.000 NA
BRANCH  12  14
ATOM     13  C   UNL     1       1.732   3.101  21.519  0.00  0.00    +0.000 C 
ATOM     14  C   UNL     1       2.979   2.638  20.765  0.00  0.00    +0.000 C 
ENDBRANCH  12  14
BRANCH  12  15
ATOM     15  C   UNL     1       2.152   4.254  19.166  0.00  0.00    +0.000 C 
ATOM     16  C   UNL     1       1.635   4.366  17.737  0.00  0.00    +0.000 C 
ENDBRANCH  12  15
ENDBRANCH  11  12
ENDBRANCH  10  11
ENDBRANCH   1  10
TORSDOF 6
ENDMDL
MODEL 8
REMARK VINA RESULT:      -4.5      1.527      2.636
REMARK  Name = 
REMARK  8 active torsions:
REMARK  status: ('A' for Active; 'I' for Inactive)
REMARK    1  A    between atoms: C_1  and  C_2
REMARK    2  A    between atoms: C_2  and  N_3
REMARK    3  A    between atoms: N_3  and  C_4
REMARK    4  A    between atoms: N_3  and  C_6
REMARK    5  A    between atoms: C_4  and  C_5
REMARK    6  A    between atoms: C_6  and  C_7
REMARK    7  A    between atoms: C_7  and  C_8
REMARK    8  A    between atoms: C_8  and  N_9
REMARK                            x       y       z     vdW  Elec       q    Type
REMARK                         _______ _______ _______ _____ _____    ______ ____
ROOT
ATOM      1  C   UNL     1       4.908   3.958  16.290  0.00  0.00    +0.000 C 
ENDROOT
BRANCH   1   2
ATOM      2  N   UNL     1       5.666   4.689  15.282  0.00  0.00    +0.000 NA
ATOM      3  C   UNL     1       6.925   4.842  15.457  0.00  0.00    +0.000 C 
ATOM      4  N   UNL     1       7.699   4.434  16.479  0.00  0.00    +0.000 N 
ATOM      5  N   UNL     1       7.638   5.512  14.528  0.00  0.00    +0.000 N 
ATOM      6  H   UNL     1       7.324   3.782  17.152  0.00  0.00    +0.000 HD
ATOM      7  H   UNL     1       8.703   4.464  16.396  0.00  0.00    +0.000 HD
ATOM      8  H   UNL     1       7.077   5.656  13.694  0.00  0.00    +0.000 HD
ATOM      9  H   UNL     1       8.541   5.122  14.305  0.00  0.00    +0.000 HD
ENDBRANCH   1   2
BRANCH   1  10
ATOM     10  C   UNL     1       4.196   4.938  17.219  0.00  0.00    +0.000 C 
BRANCH  10  11
ATOM     11  C   UNL     1       3.152   4.416  18.232  0.00  0.00    +0.000 C 
BRANCH  11  12
ATOM     12  N   UNL     1       3.537   4.012  19.604  0.00  0.00    +0.000 NA
BRANCH  12  14
ATOM     13  C   UNL     1       1.075   4.091  20.209  0.00  0.00    +0.000 C 
ATOM     14  C   UNL     1       2.519   4.398  20.605  0.00  0.00    +0.000 C 
ENDBRANCH  12  14
BRANCH  12  15
ATOM     15  C   UNL     1       3.883   2.599  19.738  0.00  0.00    +0.000 C 
ATOM     16  C   UNL     1       3.321   1.685  18.656  0.00  0.00    +0.000 C 
ENDBRANCH  12  15
ENDBRANCH  11  12
ENDBRANCH  10  11
ENDBRANCH   1  10
TORSDOF 6
ENDMDL
MODEL 9
REMARK VINA RESULT:      -4.5      1.595      4.462
REMARK  Name = 
REMARK  8 active torsions:
REMARK  status: ('A' for Active; 'I' for Inactive)
REMARK    1  A    between atoms: C_1  and  C_2
REMARK    2  A    between atoms: C_2  and  N_3
REMARK    3  A    between atoms: N_3  and  C_4
REMARK    4  A    between atoms: N_3  and  C_6
REMARK    5  A    between atoms: C_4  and  C_5
REMARK    6  A    between atoms: C_6  and  C_7
REMARK    7  A    between atoms: C_7  and  C_8
REMARK    8  A    between atoms: C_8  and  N_9
REMARK                            x       y       z     vdW  Elec       q    Type
REMARK                         _______ _______ _______ _____ _____    ______ ____
ROOT
ATOM      1  C   UNL     1       3.550   4.818  18.904  0.00  0.00    +0.000 C 
ENDROOT
BRANCH   1   2
ATOM      2  N   UNL     1       3.269   3.497  18.354  0.00  0.00    +0.000 NA
ATOM      3  C   UNL     1       3.943   2.499  18.789  0.00  0.00    +0.000 C 
ATOM      4  N   UNL     1       4.929   2.470  19.704  0.00  0.00    +0.000 N 
ATOM      5  N   UNL     1       3.688   1.271  18.292  0.00  0.00    +0.000 N 
ATOM      6  H   UNL     1       5.100   3.288  20.271  0.00  0.00    +0.000 HD
ATOM      7  H   UNL     1       5.242   1.591  20.082  0.00  0.00    +0.000 HD
ATOM      8  H   UNL     1       2.836   1.286  17.741  0.00  0.00    +0.000 HD
ATOM      9  H   UNL     1       3.681   0.519  18.965  0.00  0.00    +0.000 HD
ENDBRANCH   1   2
BRANCH   1  10
ATOM     10  C   UNL     1       3.937   5.778  17.782  0.00  0.00    +0.000 C 
BRANCH  10  11
ATOM     11  C   UNL     1       4.848   5.289  16.633  0.00  0.00    +0.000 C 
BRANCH  11  12
ATOM     12  N   UNL     1       6.304   5.099  16.825  0.00  0.00    +0.000 NA
BRANCH  12  14
ATOM     13  C   UNL     1       6.009   4.055  14.532  0.00  0.00    +0.000 C 
ATOM     14  C   UNL     1       6.963   4.576  15.608  0.00  0.00    +0.000 C 
ENDBRANCH  12  14
BRANCH  12  15
ATOM     15  C   UNL     1       7.003   6.282  17.323  0.00  0.00    +0.000 C 
ATOM     16  C   UNL     1       7.664   6.122  18.686  0.00  0.00    +0.000 C 
ENDBRANCH  12  15
ENDBRANCH  11  12
ENDBRANCH  10  11
ENDBRANCH   1  10
TORSDOF 6
ENDMDL
