MODEL 1
REMARK VINA RESULT:      -8.7      0.000      0.000
REMARK  Name = 
REMARK  6 active torsions:
REMARK  status: ('A' for Active; 'I' for Inactive)
REMARK    1  A    between atoms: C_1  and  O_2
REMARK    2  A    between atoms: O_2  and  C_3
REMARK    3  A    between atoms: N_7  and  S_8
REMARK    4  A    between atoms: S_8  and  C_11
REMARK    5  A    between atoms: C_14  and  N_15
REMARK    6  A    between atoms: C_16  and  C_18
REMARK                            x       y       z     vdW  Elec       q    Type
REMARK                         _______ _______ _______ _____ _____    ______ ____
ROOT
ATOM      1  C   UNL     1       2.462   4.758  18.971  0.00  0.00    +0.000 A 
ATOM      2  C   UNL     1       2.452   5.890  18.155  0.00  0.00    +0.000 A 
ATOM      3  C   UNL     1       2.120   7.136  18.696  0.00  0.00    +0.000 A 
ATOM      4  C   UNL     1       1.789   7.272  20.049  0.00  0.00    +0.000 A 
ATOM      5  C   UNL     1       1.811   6.131  20.862  0.00  0.00    +0.000 A 
ATOM      6  C   UNL     1       2.120   4.872  20.321  0.00  0.00    +0.000 A 
ENDROOT
BRANCH   4   7
ATOM      7  N   UNL     1       1.463   8.520  20.640  0.00  0.00    +0.000 N 
ATOM      8  C   UNL     1       0.268   8.813  21.279  0.00  0.00    +0.000 C 
ATOM      9  O   UNL     1      -0.602   7.993  21.570  0.00  0.00    +0.000 OA
ATOM     10  H   UNL     1       2.170   9.238  20.581  0.00  0.00    +0.000 HD
BRANCH   8  11
ATOM     11  C   UNL     1      -0.004  10.238  21.627  0.00  0.00    +0.000 A 
ATOM     12  C   UNL     1      -0.891  10.474  22.692  0.00  0.00    +0.000 A 
ATOM     13  C   UNL     1      -1.226  11.773  23.070  0.00  0.00    +0.000 A 
ATOM     14  C   UNL     1      -0.670  12.854  22.393  0.00  0.00    +0.000 A 
ATOM     15  C   UNL     1       0.232  12.633  21.349  0.00  0.00    +0.000 A 
ATOM     16  C   UNL     1       0.571  11.329  20.966  0.00  0.00    +0.000 A 
ENDBRANCH   8  11
ENDBRANCH   4   7
BRANCH   1  17
ATOM     17  S   UNL     1       2.755   3.160  18.239  0.00  0.00    +0.000 S 
ATOM     18  O   UNL     1       2.465   3.274  16.826  0.00  0.00    +0.000 OA
ATOM     19  O   UNL     1       2.083   2.168  19.057  0.00  0.00    +0.000 OA
BRANCH  17  24
ATOM     20  C   UNL     1       6.866   5.928  17.079  0.00  0.00    +0.000 A 
ATOM     21  C   UNL     1       6.571   5.868  18.429  0.00  0.00    +0.000 A 
ATOM     22  C   UNL     1       5.724   4.860  18.873  0.00  0.00    +0.000 A 
ATOM     23  C   UNL     1       5.245   3.959  17.943  0.00  0.00    +0.000 A 
ATOM     24  N   UNL     1       4.410   2.900  18.336  0.00  0.00    +0.000 N 
ATOM     25  N   UNL     1       5.557   4.024  16.636  0.00  0.00    +0.000 NA
ATOM     26  N   UNL     1       6.371   5.032  16.194  0.00  0.00    +0.000 NA
ATOM     27  H   UNL     1       4.685   1.981  18.001  0.00  0.00    +0.000 HD
BRANCH  20  29
ATOM     28  C   UNL     1       7.735   8.039  17.586  0.00  0.00    +0.000 C 
ATOM     29  O   UNL     1       7.697   6.950  16.669  0.00  0.00    +0.000 OA
ENDBRANCH  20  29
ENDBRANCH  17  24
ENDBRANCH   1  17
TORSDOF 5
ENDMDL
MODEL 2
REMARK VINA RESULT:      -8.3      0.259      1.334
REMARK  Name = 
REMARK  6 active torsions:
REMARK  status: ('A' for Active; 'I' for Inactive)
REMARK    1  A    between atoms: C_1  and  O_2
REMARK    2  A    between atoms: O_2  and  C_3
REMARK    3  A    between atoms: N_7  and  S_8
REMARK    4  A    between atoms: S_8  and  C_11
REMARK    5  A    between atoms: C_14  and  N_15
REMARK    6  A    between atoms: C_16  and  C_18
REMARK                            x       y       z     vdW  Elec       q    Type
REMARK                         _______ _______ _______ _____ _____    ______ ____
ROOT
ATOM      1  C   UNL     1       2.337   4.665  18.868  0.00  0.00    +0.000 A 
ATOM      2  C   UNL     1       2.045   4.743  20.229  0.00  0.00    +0.000 A 
ATOM      3  C   UNL     1       1.767   5.983  20.812  0.00  0.00    +0.000 A 
ATOM      4  C   UNL     1       1.780   7.159  20.054  0.00  0.00    +0.000 A 
ATOM      5  C   UNL     1       2.066   7.069  18.685  0.00  0.00    +0.000 A 
ATOM      6  C   UNL     1       2.370   5.831  18.096  0.00  0.00    +0.000 A 
ENDROOT
BRANCH   4   7
ATOM      7  N   UNL     1       1.488   8.434  20.603  0.00  0.00    +0.000 N 
ATOM      8  C   UNL     1       0.311   8.774  21.252  0.00  0.00    +0.000 C 
ATOM      9  O   UNL     1      -0.568   7.982  21.589  0.00  0.00    +0.000 OA
ATOM     10  H   UNL     1       2.207   9.135  20.505  0.00  0.00    +0.000 HD
BRANCH   8  11
ATOM     11  C   UNL     1       0.073  10.216  21.551  0.00  0.00    +0.000 A 
ATOM     12  C   UNL     1       0.782  11.150  20.775  0.00  0.00    +0.000 A 
ATOM     13  C   UNL     1       0.645  12.519  21.002  0.00  0.00    +0.000 A 
ATOM     14  C   UNL     1      -0.211  12.970  22.003  0.00  0.00    +0.000 A 
ATOM     15  C   UNL     1      -0.939  12.053  22.763  0.00  0.00    +0.000 A 
ATOM     16  C   UNL     1      -0.804  10.677  22.540  0.00  0.00    +0.000 A 
ENDBRANCH   8  11
ENDBRANCH   4   7
BRANCH   1  17
ATOM     17  S   UNL     1       2.820   3.099  18.168  0.00  0.00    +0.000 S 
ATOM     18  O   UNL     1       2.609   3.183  16.738  0.00  0.00    +0.000 OA
ATOM     19  O   UNL     1       2.192   2.051  18.950  0.00  0.00    +0.000 OA
BRANCH  17  24
ATOM     20  C   UNL     1       6.741   6.147  17.053  0.00  0.00    +0.000 A 
ATOM     21  C   UNL     1       6.374   6.142  18.385  0.00  0.00    +0.000 A 
ATOM     22  C   UNL     1       5.591   5.091  18.848  0.00  0.00    +0.000 A 
ATOM     23  C   UNL     1       5.246   4.097  17.954  0.00  0.00    +0.000 A 
ATOM     24  N   UNL     1       4.483   2.993  18.368  0.00  0.00    +0.000 N 
ATOM     25  N   UNL     1       5.627   4.112  16.663  0.00  0.00    +0.000 NA
ATOM     26  N   UNL     1       6.377   5.160  16.201  0.00  0.00    +0.000 NA
ATOM     27  H   UNL     1       4.854   2.084  18.109  0.00  0.00    +0.000 HD
BRANCH  20  29
ATOM     28  C   UNL     1       7.836   8.119  17.669  0.00  0.00    +0.000 C 
ATOM     29  O   UNL     1       7.504   7.212  16.622  0.00  0.00    +0.000 OA
ENDBRANCH  20  29
ENDBRANCH  17  24
ENDBRANCH   1  17
TORSDOF 5
ENDMDL
MODEL 3
REMARK VINA RESULT:      -8.1      1.801      2.262
REMARK  Name = 
REMARK  6 active torsions:
REMARK  status: ('A' for Active; 'I' for Inactive)
REMARK    1  A    between atoms: C_1  and  O_2
REMARK    2  A    between atoms: O_2  and  C_3
REMARK    3  A    between atoms: N_7  and  S_8
REMARK    4  A    between atoms: S_8  and  C_11
REMARK    5  A    between atoms: C_14  and  N_15
REMARK    6  A    between atoms: C_16  and  C_18
REMARK                            x       y       z     vdW  Elec       q    Type
REMARK                         _______ _______ _______ _____ _____    ______ ____
ROOT
ATOM      1  C   UNL     1       2.538   5.094  18.886  0.00  0.00    +0.000 A 
ATOM      2  C   UNL     1       2.644   5.939  17.781  0.00  0.00    +0.000 A 
ATOM      3  C   UNL     1       2.416   7.311  17.929  0.00  0.00    +0.000 A 
ATOM      4  C   UNL     1       2.076   7.859  19.171  0.00  0.00    +0.000 A 
ATOM      5  C   UNL     1       1.981   7.003  20.276  0.00  0.00    +0.000 A 
ATOM      6  C   UNL     1       2.184   5.621  20.132  0.00  0.00    +0.000 A 
ENDROOT
BRANCH   4   7
ATOM      7  N   UNL     1       1.854   9.246  19.367  0.00  0.00    +0.000 N 
ATOM      8  C   UNL     1       0.976  10.026  18.629  0.00  0.00    +0.000 C 
ATOM      9  O   UNL     1       0.151   9.599  17.823  0.00  0.00    +0.000 OA
ATOM     10  H   UNL     1       2.385   9.681  20.107  0.00  0.00    +0.000 HD
BRANCH   8  11
ATOM     11  C   UNL     1       1.045  11.506  18.806  0.00  0.00    +0.000 A 
ATOM     12  C   UNL     1       2.204  12.149  18.337  0.00  0.00    +0.000 A 
ATOM     13  C   UNL     1       2.368  13.525  18.485  0.00  0.00    +0.000 A 
ATOM     14  C   UNL     1       1.370  14.277  19.096  0.00  0.00    +0.000 A 
ATOM     15  C   UNL     1       0.204  13.654  19.545  0.00  0.00    +0.000 A 
ATOM     16  C   UNL     1       0.034  12.271  19.399  0.00  0.00    +0.000 A 
ENDBRANCH   8  11
ENDBRANCH   4   7
BRANCH   1  17
ATOM     17  S   UNL     1       2.698   3.335  18.656  0.00  0.00    +0.000 S 
ATOM     18  O   UNL     1       2.246   3.034  17.313  0.00  0.00    +0.000 OA
ATOM     19  O   UNL     1       2.099   2.680  19.804  0.00  0.00    +0.000 OA
BRANCH  17  24
ATOM     20  C   UNL     1       6.829   5.921  17.188  0.00  0.00    +0.000 A 
ATOM     21  C   UNL     1       6.617   5.897  18.554  0.00  0.00    +0.000 A 
ATOM     22  C   UNL     1       5.762   4.930  19.070  0.00  0.00    +0.000 A 
ATOM     23  C   UNL     1       5.193   4.032  18.190  0.00  0.00    +0.000 A 
ATOM     24  N   UNL     1       4.345   3.012  18.655  0.00  0.00    +0.000 N 
ATOM     25  N   UNL     1       5.424   4.061  16.865  0.00  0.00    +0.000 NA
ATOM     26  N   UNL     1       6.247   5.029  16.353  0.00  0.00    +0.000 NA
ATOM     27  H   UNL     1       4.564   2.078  18.323  0.00  0.00    +0.000 HD
BRANCH  20  29
ATOM     28  C   UNL     1       7.778   8.022  17.581  0.00  0.00    +0.000 C 
ATOM     29  O   UNL     1       7.670   6.902  16.707  0.00  0.00    +0.000 OA
ENDBRANCH  20  29
ENDBRANCH  17  24
ENDBRANCH   1  17
TORSDOF 5
ENDMDL
MODEL 4
REMARK VINA RESULT:      -8.0      2.054      2.529
REMARK  Name = 
REMARK  6 active torsions:
REMARK  status: ('A' for Active; 'I' for Inactive)
REMARK    1  A    between atoms: C_1  and  O_2
REMARK    2  A    between atoms: O_2  and  C_3
REMARK    3  A    between atoms: N_7  and  S_8
REMARK    4  A    between atoms: S_8  and  C_11
REMARK    5  A    between atoms: C_14  and  N_15
REMARK    6  A    between atoms: C_16  and  C_18
REMARK                            x       y       z     vdW  Elec       q    Type
REMARK                         _______ _______ _______ _____ _____    ______ ____
ROOT
ATOM      1  C   UNL     1       2.914   6.097  19.453  0.00  0.00    +0.000 A 
ATOM      2  C   UNL     1       2.899   7.200  18.600  0.00  0.00    +0.000 A 
ATOM      3  C   UNL     1       2.065   8.287  18.881  0.00  0.00    +0.000 A 
ATOM      4  C   UNL     1       1.233   8.288  20.006  0.00  0.00    +0.000 A 
ATOM      5  C   UNL     1       1.262   7.179  20.861  0.00  0.00    +0.000 A 
ATOM      6  C   UNL     1       2.079   6.073  20.573  0.00  0.00    +0.000 A 
ENDROOT
BRANCH   4   7
ATOM      7  N   UNL     1       0.384   9.376  20.336  0.00  0.00    +0.000 N 
ATOM      8  C   UNL     1       0.390  10.057  21.543  0.00  0.00    +0.000 C 
ATOM      9  O   UNL     1       1.235   9.928  22.427  0.00  0.00    +0.000 OA
ATOM     10  H   UNL     1      -0.268   9.663  19.620  0.00  0.00    +0.000 HD
BRANCH   8  11
ATOM     11  C   UNL     1      -0.727  11.011  21.810  0.00  0.00    +0.000 A 
ATOM     12  C   UNL     1      -1.213  11.741  20.711  0.00  0.00    +0.000 A 
ATOM     13  C   UNL     1      -2.235  12.676  20.870  0.00  0.00    +0.000 A 
ATOM     14  C   UNL     1      -2.790  12.884  22.129  0.00  0.00    +0.000 A 
ATOM     15  C   UNL     1      -2.332  12.147  23.223  0.00  0.00    +0.000 A 
ATOM     16  C   UNL     1      -1.305  11.207  23.068  0.00  0.00    +0.000 A 
ENDBRANCH   8  11
ENDBRANCH   4   7
BRANCH   1  17
ATOM     17  S   UNL     1       3.881   4.667  19.010  0.00  0.00    +0.000 S 
ATOM     18  O   UNL     1       3.275   3.522  19.657  0.00  0.00    +0.000 OA
ATOM     19  O   UNL     1       5.278   4.989  19.229  0.00  0.00    +0.000 OA
BRANCH  17  24
ATOM     20  C   UNL     1       6.784   5.222  14.866  0.00  0.00    +0.000 A 
ATOM     21  C   UNL     1       6.621   3.916  15.286  0.00  0.00    +0.000 A 
ATOM     22  C   UNL     1       5.571   3.629  16.151  0.00  0.00    +0.000 A 
ATOM     23  C   UNL     1       4.735   4.663  16.520  0.00  0.00    +0.000 A 
ATOM     24  N   UNL     1       3.637   4.431  17.366  0.00  0.00    +0.000 N 
ATOM     25  N   UNL     1       4.900   5.927  16.087  0.00  0.00    +0.000 NA
ATOM     26  N   UNL     1       5.950   6.214  15.256  0.00  0.00    +0.000 NA
ATOM     27  H   UNL     1       2.749   4.803  17.042  0.00  0.00    +0.000 HD
BRANCH  20  29
ATOM     28  C   UNL     1       7.639   4.981  12.703  0.00  0.00    +0.000 C 
ATOM     29  O   UNL     1       7.845   5.476  14.022  0.00  0.00    +0.000 OA
ENDBRANCH  20  29
ENDBRANCH  17  24
ENDBRANCH   1  17
TORSDOF 5
ENDMDL
MODEL 5
REMARK VINA RESULT:      -8.0      5.098      7.520
REMARK  Name = 
REMARK  6 active torsions:
REMARK  status: ('A' for Active; 'I' for Inactive)
REMARK    1  A    between atoms: C_1  and  O_2
REMARK    2  A    between atoms: O_2  and  C_3
REMARK    3  A    between atoms: N_7  and  S_8
REMARK    4  A    between atoms: S_8  and  C_11
REMARK    5  A    between atoms: C_14  and  N_15
REMARK    6  A    between atoms: C_16  and  C_18
REMARK                            x       y       z     vdW  Elec       q    Type
REMARK                         _______ _______ _______ _____ _____    ______ ____
ROOT
ATOM      1  C   UNL     1       6.415   5.392  17.030  0.00  0.00    +0.000 A 
ATOM      2  C   UNL     1       6.290   6.699  16.559  0.00  0.00    +0.000 A 
ATOM      3  C   UNL     1       7.032   7.726  17.151  0.00  0.00    +0.000 A 
ATOM      4  C   UNL     1       7.900   7.470  18.219  0.00  0.00    +0.000 A 
ATOM      5  C   UNL     1       8.023   6.152  18.679  0.00  0.00    +0.000 A 
ATOM      6  C   UNL     1       7.265   5.119  18.106  0.00  0.00    +0.000 A 
ENDROOT
BRANCH   4   7
ATOM      7  N   UNL     1       8.681   8.480  18.836  0.00  0.00    +0.000 N 
ATOM      8  C   UNL     1       8.680   9.820  18.481  0.00  0.00    +0.000 C 
ATOM      9  O   UNL     1       7.886  10.348  17.704  0.00  0.00    +0.000 OA
ATOM     10  H   UNL     1       9.279   8.179  19.592  0.00  0.00    +0.000 HD
BRANCH   8  11
ATOM     11  C   UNL     1       9.736  10.696  19.068  0.00  0.00    +0.000 A 
ATOM     12  C   UNL     1       9.546  11.114  20.397  0.00  0.00    +0.000 A 
ATOM     13  C   UNL     1      10.465  11.957  21.020  0.00  0.00    +0.000 A 
ATOM     14  C   UNL     1      11.591  12.385  20.323  0.00  0.00    +0.000 A 
ATOM     15  C   UNL     1      11.803  11.957  19.011  0.00  0.00    +0.000 A 
ATOM     16  C   UNL     1      10.881  11.111  18.381  0.00  0.00    +0.000 A 
ENDBRANCH   8  11
ENDBRANCH   4   7
BRANCH   1  17
ATOM     17  S   UNL     1       5.365   4.119  16.356  0.00  0.00    +0.000 S 
ATOM     18  O   UNL     1       6.069   3.529  15.237  0.00  0.00    +0.000 OA
ATOM     19  O   UNL     1       4.039   4.683  16.183  0.00  0.00    +0.000 OA
BRANCH  17  24
ATOM     20  C   UNL     1       1.997   2.869  19.962  0.00  0.00    +0.000 A 
ATOM     21  C   UNL     1       1.963   2.068  18.836  0.00  0.00    +0.000 A 
ATOM     22  C   UNL     1       3.061   2.083  17.984  0.00  0.00    +0.000 A 
ATOM     23  C   UNL     1       4.135   2.880  18.326  0.00  0.00    +0.000 A 
ATOM     24  N   UNL     1       5.286   2.914  17.521  0.00  0.00    +0.000 N 
ATOM     25  N   UNL     1       4.156   3.642  19.435  0.00  0.00    +0.000 NA
ATOM     26  N   UNL     1       3.064   3.646  20.261  0.00  0.00    +0.000 NA
ATOM     27  H   UNL     1       6.166   2.783  18.012  0.00  0.00    +0.000 HD
BRANCH  20  29
ATOM     28  C   UNL     1       1.204   2.619  22.148  0.00  0.00    +0.000 C 
ATOM     29  O   UNL     1       0.885   2.843  20.778  0.00  0.00    +0.000 OA
ENDBRANCH  20  29
ENDBRANCH  17  24
ENDBRANCH   1  17
TORSDOF 5
ENDMDL
MODEL 6
REMARK VINA RESULT:      -7.9      1.180      1.940
REMARK  Name = 
REMARK  6 active torsions:
REMARK  status: ('A' for Active; 'I' for Inactive)
REMARK    1  A    between atoms: C_1  and  O_2
REMARK    2  A    between atoms: O_2  and  C_3
REMARK    3  A    between atoms: N_7  and  S_8
REMARK    4  A    between atoms: S_8  and  C_11
REMARK    5  A    between atoms: C_14  and  N_15
REMARK    6  A    between atoms: C_16  and  C_18
REMARK                            x       y       z     vdW  Elec       q    Type
REMARK                         _______ _______ _______ _____ _____    ______ ____
ROOT
ATOM      1  C   UNL     1       2.459   4.949  18.905  0.00  0.00    +0.000 A 
ATOM      2  C   UNL     1       2.073   4.953  20.245  0.00  0.00    +0.000 A 
ATOM      3  C   UNL     1       1.728   6.157  20.867  0.00  0.00    +0.000 A 
ATOM      4  C   UNL     1       1.766   7.369  20.170  0.00  0.00    +0.000 A 
ATOM      5  C   UNL     1       2.147   7.353  18.821  0.00  0.00    +0.000 A 
ATOM      6  C   UNL     1       2.519   6.152  18.196  0.00  0.00    +0.000 A 
ENDROOT
BRANCH   4   7
ATOM      7  N   UNL     1       1.408   8.609  20.759  0.00  0.00    +0.000 N 
ATOM      8  C   UNL     1       0.183   8.892  21.343  0.00  0.00    +0.000 C 
ATOM      9  O   UNL     1      -0.696   8.067  21.584  0.00  0.00    +0.000 OA
ATOM     10  H   UNL     1       2.115   9.330  20.741  0.00  0.00    +0.000 HD
BRANCH   8  11
ATOM     11  C   UNL     1      -0.109  10.313  21.694  0.00  0.00    +0.000 A 
ATOM     12  C   UNL     1       0.503  11.300  20.902  0.00  0.00    +0.000 A 
ATOM     13  C   UNL     1       0.311  12.654  21.173  0.00  0.00    +0.000 A 
ATOM     14  C   UNL     1      -0.503  13.037  22.235  0.00  0.00    +0.000 A 
ATOM     15  C   UNL     1      -1.135  12.065  23.014  0.00  0.00    +0.000 A 
ATOM     16  C   UNL     1      -0.945  10.704  22.746  0.00  0.00    +0.000 A 
ENDBRANCH   8  11
ENDBRANCH   4   7
BRANCH   1  17
ATOM     17  S   UNL     1       3.025   3.430  18.166  0.00  0.00    +0.000 S 
ATOM     18  O   UNL     1       2.769   3.522  16.744  0.00  0.00    +0.000 OA
ATOM     19  O   UNL     1       2.490   2.330  18.946  0.00  0.00    +0.000 OA
BRANCH  17  24
ATOM     20  C   UNL     1       6.866   5.055  15.248  0.00  0.00    +0.000 A 
ATOM     21  C   UNL     1       6.562   5.880  16.316  0.00  0.00    +0.000 A 
ATOM     22  C   UNL     1       5.810   5.353  17.360  0.00  0.00    +0.000 A 
ATOM     23  C   UNL     1       5.431   4.028  17.282  0.00  0.00    +0.000 A 
ATOM     24  N   UNL     1       4.697   3.431  18.320  0.00  0.00    +0.000 N 
ATOM     25  N   UNL     1       5.750   3.237  16.241  0.00  0.00    +0.000 NA
ATOM     26  N   UNL     1       6.470   3.762  15.201  0.00  0.00    +0.000 NA
ATOM     27  H   UNL     1       5.062   2.546  18.660  0.00  0.00    +0.000 HD
BRANCH  20  29
ATOM     28  C   UNL     1       7.560   4.841  13.026  0.00  0.00    +0.000 C 
ATOM     29  O   UNL     1       7.600   5.613  14.222  0.00  0.00    +0.000 OA
ENDBRANCH  20  29
ENDBRANCH  17  24
ENDBRANCH   1  17
TORSDOF 5
ENDMDL
MODEL 7
REMARK VINA RESULT:      -7.9      2.792      4.661
REMARK  Name = 
REMARK  6 active torsions:
REMARK  status: ('A' for Active; 'I' for Inactive)
REMARK    1  A    between atoms: C_1  and  O_2
REMARK    2  A    between atoms: O_2  and  C_3
REMARK    3  A    between atoms: N_7  and  S_8
REMARK    4  A    between atoms: S_8  and  C_11
REMARK    5  A    between atoms: C_14  and  N_15
REMARK    6  A    between atoms: C_16  and  C_18
REMARK                            x       y       z     vdW  Elec       q    Type
REMARK                         _______ _______ _______ _____ _____    ______ ____
ROOT
ATOM      1  C   UNL     1       4.987   6.287  18.274  0.00  0.00    +0.000 A 
ATOM      2  C   UNL     1       4.076   6.246  19.329  0.00  0.00    +0.000 A 
ATOM      3  C   UNL     1       2.860   6.929  19.226  0.00  0.00    +0.000 A 
ATOM      4  C   UNL     1       2.537   7.664  18.080  0.00  0.00    +0.000 A 
ATOM      5  C   UNL     1       3.456   7.692  17.022  0.00  0.00    +0.000 A 
ATOM      6  C   UNL     1       4.689   7.028  17.127  0.00  0.00    +0.000 A 
ENDROOT
BRANCH   4   7
ATOM      7  N   UNL     1       1.309   8.358  17.929  0.00  0.00    +0.000 N 
ATOM      8  C   UNL     1       1.130   9.718  18.126  0.00  0.00    +0.000 C 
ATOM      9  O   UNL     1       2.033  10.537  18.290  0.00  0.00    +0.000 OA
ATOM     10  H   UNL     1       0.514   7.798  17.656  0.00  0.00    +0.000 HD
BRANCH   8  11
ATOM     11  C   UNL     1      -0.268  10.238  18.161  0.00  0.00    +0.000 A 
ATOM     12  C   UNL     1      -0.522  11.319  19.025  0.00  0.00    +0.000 A 
ATOM     13  C   UNL     1      -1.804  11.852  19.146  0.00  0.00    +0.000 A 
ATOM     14  C   UNL     1      -2.847  11.316  18.397  0.00  0.00    +0.000 A 
ATOM     15  C   UNL     1      -2.603  10.259  17.518  0.00  0.00    +0.000 A 
ATOM     16  C   UNL     1      -1.316   9.720  17.393  0.00  0.00    +0.000 A 
ENDBRANCH   8  11
ENDBRANCH   4   7
BRANCH   1  17
ATOM     17  S   UNL     1       6.585   5.524  18.473  0.00  0.00    +0.000 S 
ATOM     18  O   UNL     1       6.909   5.568  19.884  0.00  0.00    +0.000 OA
ATOM     19  O   UNL     1       7.480   6.103  17.488  0.00  0.00    +0.000 OA
BRANCH  17  24
ATOM     20  C   UNL     1       2.736   2.235  18.995  0.00  0.00    +0.000 A 
ATOM     21  C   UNL     1       2.923   2.706  17.708  0.00  0.00    +0.000 A 
ATOM     22  C   UNL     1       4.144   3.292  17.394  0.00  0.00    +0.000 A 
ATOM     23  C   UNL     1       5.109   3.347  18.380  0.00  0.00    +0.000 A 
ATOM     24  N   UNL     1       6.374   3.898  18.114  0.00  0.00    +0.000 N 
ATOM     25  N   UNL     1       4.913   2.868  19.622  0.00  0.00    +0.000 NA
ATOM     26  N   UNL     1       3.702   2.314  19.939  0.00  0.00    +0.000 NA
ATOM     27  H   UNL     1       7.167   3.327  18.392  0.00  0.00    +0.000 HD
BRANCH  20  29
ATOM     28  C   UNL     1       0.415   2.477  18.843  0.00  0.00    +0.000 C 
ATOM     29  O   UNL     1       1.508   1.675  19.278  0.00  0.00    +0.000 OA
ENDBRANCH  20  29
ENDBRANCH  17  24
ENDBRANCH   1  17
TORSDOF 5
ENDMDL
MODEL 8
REMARK VINA RESULT:      -7.9      2.178      2.666
REMARK  Name = 
REMARK  6 active torsions:
REMARK  status: ('A' for Active; 'I' for Inactive)
REMARK    1  A    between atoms: C_1  and  O_2
REMARK    2  A    between atoms: O_2  and  C_3
REMARK    3  A    between atoms: N_7  and  S_8
REMARK    4  A    between atoms: S_8  and  C_11
REMARK    5  A    between atoms: C_14  and  N_15
REMARK    6  A    between atoms: C_16  and  C_18
REMARK                            x       y       z     vdW  Elec       q    Type
REMARK                         _______ _______ _______ _____ _____    ______ ____
ROOT
ATOM      1  C   UNL     1       2.445   6.853  19.622  0.00  0.00    +0.000 A 
ATOM      2  C   UNL     1       2.349   7.845  18.646  0.00  0.00    +0.000 A 
ATOM      3  C   UNL     1       1.564   8.979  18.881  0.00  0.00    +0.000 A 
ATOM      4  C   UNL     1       0.864   9.139  20.081  0.00  0.00    +0.000 A 
ATOM      5  C   UNL     1       0.974   8.141  21.058  0.00  0.00    +0.000 A 
ATOM      6  C   UNL     1       1.741   6.988  20.822  0.00  0.00    +0.000 A 
ENDROOT
BRANCH   4   7
ATOM      7  N   UNL     1       0.071  10.280  20.365  0.00  0.00    +0.000 N 
ATOM      8  C   UNL     1      -0.093  10.848  21.619  0.00  0.00    +0.000 C 
ATOM      9  O   UNL     1       0.551  10.550  22.623  0.00  0.00    +0.000 OA
ATOM     10  H   UNL     1      -0.402  10.699  19.577  0.00  0.00    +0.000 HD
BRANCH   8  11
ATOM     11  C   UNL     1      -1.148  11.892  21.778  0.00  0.00    +0.000 A 
ATOM     12  C   UNL     1      -1.413  12.331  23.087  0.00  0.00    +0.000 A 
ATOM     13  C   UNL     1      -2.402  13.283  23.335  0.00  0.00    +0.000 A 
ATOM     14  C   UNL     1      -3.130  13.813  22.274  0.00  0.00    +0.000 A 
ATOM     15  C   UNL     1      -2.859  13.402  20.968  0.00  0.00    +0.000 A 
ATOM     16  C   UNL     1      -1.867  12.446  20.714  0.00  0.00    +0.000 A 
ENDBRANCH   8  11
ENDBRANCH   4   7
BRANCH   1  17
ATOM     17  S   UNL     1       3.338   5.355  19.256  0.00  0.00    +0.000 S 
ATOM     18  O   UNL     1       2.618   4.263  19.877  0.00  0.00    +0.000 OA
ATOM     19  O   UNL     1       4.738   5.587  19.557  0.00  0.00    +0.000 OA
BRANCH  17  24
ATOM     20  C   UNL     1       6.595   5.252  15.346  0.00  0.00    +0.000 A 
ATOM     21  C   UNL     1       6.171   4.009  15.778  0.00  0.00    +0.000 A 
ATOM     22  C   UNL     1       5.025   3.941  16.562  0.00  0.00    +0.000 A 
ATOM     23  C   UNL     1       4.361   5.118  16.842  0.00  0.00    +0.000 A 
ATOM     24  N   UNL     1       3.180   5.111  17.603  0.00  0.00    +0.000 N 
ATOM     25  N   UNL     1       4.781   6.317  16.399  0.00  0.00    +0.000 NA
ATOM     26  N   UNL     1       5.924   6.387  15.648  0.00  0.00    +0.000 NA
ATOM     27  H   UNL     1       2.399   5.622  17.202  0.00  0.00    +0.000 HD
BRANCH  20  29
ATOM     28  C   UNL     1       7.516   4.968  13.215  0.00  0.00    +0.000 C 
ATOM     29  O   UNL     1       7.744   5.286  14.584  0.00  0.00    +0.000 OA
ENDBRANCH  20  29
ENDBRANCH  17  24
ENDBRANCH   1  17
TORSDOF 5
ENDMDL
MODEL 9
REMARK VINA RESULT:      -7.9      1.819      2.444
REMARK  Name = 
REMARK  6 active torsions:
REMARK  status: ('A' for Active; 'I' for Inactive)
REMARK    1  A    between atoms: C_1  and  O_2
REMARK    2  A    between atoms: O_2  and  C_3
REMARK    3  A    between atoms: N_7  and  S_8
REMARK    4  A    between atoms: S_8  and  C_11
REMARK    5  A    between atoms: C_14  and  N_15
REMARK    6  A    between atoms: C_16  and  C_18
REMARK                            x       y       z     vdW  Elec       q    Type
REMARK                         _______ _______ _______ _____ _____    ______ ____
ROOT
ATOM      1  C   UNL     1       2.832   5.470  19.216  0.00  0.00    +0.000 A 
ATOM      2  C   UNL     1       2.278   5.460  20.496  0.00  0.00    +0.000 A 
ATOM      3  C   UNL     1       1.703   6.624  21.016  0.00  0.00    +0.000 A 
ATOM      4  C   UNL     1       1.675   7.810  20.275  0.00  0.00    +0.000 A 
ATOM      5  C   UNL     1       2.227   7.808  18.987  0.00  0.00    +0.000 A 
ATOM      6  C   UNL     1       2.828   6.650  18.467  0.00  0.00    +0.000 A 
ENDROOT
BRANCH   4   7
ATOM      7  N   UNL     1       1.087   9.007  20.759  0.00  0.00    +0.000 N 
ATOM      8  C   UNL     1      -0.132   9.091  21.413  0.00  0.00    +0.000 C 
ATOM      9  O   UNL     1      -0.790   8.132  21.814  0.00  0.00    +0.000 OA
ATOM     10  H   UNL     1       1.614   9.855  20.604  0.00  0.00    +0.000 HD
BRANCH   8  11
ATOM     11  C   UNL     1      -0.710  10.448  21.637  0.00  0.00    +0.000 A 
ATOM     12  C   UNL     1      -0.942  11.235  20.495  0.00  0.00    +0.000 A 
ATOM     13  C   UNL     1      -1.453  12.527  20.608  0.00  0.00    +0.000 A 
ATOM     14  C   UNL     1      -1.747  13.045  21.865  0.00  0.00    +0.000 A 
ATOM     15  C   UNL     1      -1.545  12.264  23.005  0.00  0.00    +0.000 A 
ATOM     16  C   UNL     1      -1.031  10.966  22.896  0.00  0.00    +0.000 A 
ENDBRANCH   8  11
ENDBRANCH   4   7
BRANCH   1  17
ATOM     17  S   UNL     1       3.680   4.020  18.622  0.00  0.00    +0.000 S 
ATOM     18  O   UNL     1       2.915   2.868  19.053  0.00  0.00    +0.000 OA
ATOM     19  O   UNL     1       5.082   4.151  18.970  0.00  0.00    +0.000 OA
BRANCH  17  24
ATOM     20  C   UNL     1       6.849   5.148  14.802  0.00  0.00    +0.000 A 
ATOM     21  C   UNL     1       6.641   3.795  15.001  0.00  0.00    +0.000 A 
ATOM     22  C   UNL     1       5.534   3.402  15.744  0.00  0.00    +0.000 A 
ATOM     23  C   UNL     1       4.691   4.386  16.219  0.00  0.00    +0.000 A 
ATOM     24  N   UNL     1       3.539   4.049  16.950  0.00  0.00    +0.000 N 
ATOM     25  N   UNL     1       4.901   5.697  16.002  0.00  0.00    +0.000 NA
ATOM     26  N   UNL     1       6.005   6.086  15.292  0.00  0.00    +0.000 NA
ATOM     27  H   UNL     1       2.678   4.488  16.635  0.00  0.00    +0.000 HD
BRANCH  20  29
ATOM     28  C   UNL     1       7.838   5.224  12.684  0.00  0.00    +0.000 C 
ATOM     29  O   UNL     1       7.965   5.505  14.075  0.00  0.00    +0.000 OA
ENDBRANCH  20  29
ENDBRANCH  17  24
ENDBRANCH   1  17
TORSDOF 5
ENDMDL
