MODEL 1
REMARK VINA RESULT:      -6.3      0.000      0.000
REMARK  Name = 
REMARK  2 active torsions:
REMARK  status: ('A' for Active; 'I' for Inactive)
REMARK    1  A    between atoms: O_1  and  C_2
REMARK    2  A    between atoms: C_2  and  C_3
REMARK                            x       y       z     vdW  Elec       q    Type
REMARK                         _______ _______ _______ _____ _____    ______ ____
ROOT
ATOM      1  C   UNK     1       5.676   4.670  17.438  0.00  0.00    +0.000 C 
ATOM      2  C   UNK     1       5.667   5.182  18.879  0.00  0.00    +0.000 C 
ATOM      3  O   UNK     1       4.326   5.403  19.345  0.00  0.00    +0.000 OA
ATOM      4  C   UNK     1       3.448   4.394  19.006  0.00  0.00    +0.000 A 
ATOM      5  C   UNK     1       2.184   4.396  19.611  0.00  0.00    +0.000 A 
ATOM      6 CL   UNK     1       1.732   5.614  20.752  0.00  0.00    +0.000 Cl
ATOM      7  C   UNK     1       1.252   3.404  19.304  0.00  0.00    +0.000 A 
ATOM      8  C   UNK     1       1.581   2.395  18.399  0.00  0.00    +0.000 A 
ATOM      9  C   UNK     1       2.834   2.391  17.784  0.00  0.00    +0.000 A 
ATOM     10  C   UNK     1       3.762   3.408  18.042  0.00  0.00    +0.000 A 
ATOM     11  N   UNK     1       5.028   3.349  17.420  0.00  0.00    +0.000 N 
ATOM     12  H   UNK     1       4.988   2.965  16.476  0.00  0.00    +0.000 HD
ENDROOT
BRANCH   1  13
ATOM     13  C   UNK     1       7.098   4.549  16.878  0.00  0.00    +0.000 C 
BRANCH  13  14
ATOM     14  O   UNK     1       7.975   4.064  17.899  0.00  0.00    +0.000 OA
ATOM     15  H   UNK     1       8.564   3.411  17.482  0.00  0.00    +0.000 HD
ENDBRANCH  13  14
ENDBRANCH   1  13
TORSDOF 2
ENDMDL
MODEL 2
REMARK VINA RESULT:      -6.0      1.460      1.460
REMARK  Name = 
REMARK  2 active torsions:
REMARK  status: ('A' for Active; 'I' for Inactive)
REMARK    1  A    between atoms: O_1  and  C_2
REMARK    2  A    between atoms: C_2  and  C_3
REMARK                            x       y       z     vdW  Elec       q    Type
REMARK                         _______ _______ _______ _____ _____    ______ ____
ROOT
ATOM      1  C   UNK     1       5.711   4.628  17.349  0.00  0.00    +0.000 C 
ATOM      2  C   UNK     1       5.524   5.991  18.017  0.00  0.00    +0.000 C 
ATOM      3  O   UNK     1       4.233   6.095  18.638  0.00  0.00    +0.000 OA
ATOM      4  C   UNK     1       3.865   4.968  19.343  0.00  0.00    +0.000 A 
ATOM      5  C   UNK     1       2.741   5.055  20.176  0.00  0.00    +0.000 A 
ATOM      6 CL   UNK     1       1.843   6.524  20.328  0.00  0.00    +0.000 Cl
ATOM      7  C   UNK     1       2.318   3.946  20.910  0.00  0.00    +0.000 A 
ATOM      8  C   UNK     1       3.022   2.744  20.826  0.00  0.00    +0.000 A 
ATOM      9  C   UNK     1       4.137   2.646  19.992  0.00  0.00    +0.000 A 
ATOM     10  C   UNK     1       4.544   3.734  19.210  0.00  0.00    +0.000 A 
ATOM     11  N   UNK     1       5.693   3.599  18.401  0.00  0.00    +0.000 N 
ATOM     12  H   UNK     1       5.795   2.663  18.009  0.00  0.00    +0.000 HD
ENDROOT
BRANCH   1  13
ATOM     13  C   UNK     1       7.029   4.542  16.573  0.00  0.00    +0.000 C 
BRANCH  13  14
ATOM     14  O   UNK     1       8.077   4.123  17.452  0.00  0.00    +0.000 OA
ATOM     15  H   UNK     1       8.920   4.349  17.020  0.00  0.00    +0.000 HD
ENDBRANCH  13  14
ENDBRANCH   1  13
TORSDOF 2
ENDMDL
MODEL 3
REMARK VINA RESULT:      -5.8      3.076      4.396
REMARK  Name = 
REMARK  2 active torsions:
REMARK  status: ('A' for Active; 'I' for Inactive)
REMARK    1  A    between atoms: O_1  and  C_2
REMARK    2  A    between atoms: C_2  and  C_3
REMARK                            x       y       z     vdW  Elec       q    Type
REMARK                         _______ _______ _______ _____ _____    ______ ____
ROOT
ATOM      1  C   UNK     1       7.121   4.673  14.467  0.00  0.00    +0.000 C 
ATOM      2  C   UNK     1       5.597   4.543  14.482  0.00  0.00    +0.000 C 
ATOM      3  O   UNK     1       5.132   4.022  15.738  0.00  0.00    +0.000 OA
ATOM      4  C   UNK     1       5.749   4.586  16.835  0.00  0.00    +0.000 A 
ATOM      5  C   UNK     1       5.203   4.325  18.099  0.00  0.00    +0.000 A 
ATOM      6 CL   UNK     1       3.798   3.334  18.288  0.00  0.00    +0.000 Cl
ATOM      7  C   UNK     1       5.787   4.864  19.247  0.00  0.00    +0.000 A 
ATOM      8  C   UNK     1       6.914   5.679  19.138  0.00  0.00    +0.000 A 
ATOM      9  C   UNK     1       7.470   5.937  17.883  0.00  0.00    +0.000 A 
ATOM     10  C   UNK     1       6.926   5.362  16.728  0.00  0.00    +0.000 A 
ATOM     11  N   UNK     1       7.503   5.672  15.477  0.00  0.00    +0.000 N 
ATOM     12  H   UNK     1       8.516   5.787  15.524  0.00  0.00    +0.000 HD
ENDROOT
BRANCH   1  13
ATOM     13  C   UNK     1       7.649   5.105  13.095  0.00  0.00    +0.000 C 
BRANCH  13  14
ATOM     14  O   UNK     1       8.788   5.954  13.265  0.00  0.00    +0.000 OA
ATOM     15  H   UNK     1       8.601   6.532  14.027  0.00  0.00    +0.000 HD
ENDBRANCH  13  14
ENDBRANCH   1  13
TORSDOF 2
ENDMDL
MODEL 4
REMARK VINA RESULT:      -5.8      2.749      4.785
REMARK  Name = 
REMARK  2 active torsions:
REMARK  status: ('A' for Active; 'I' for Inactive)
REMARK    1  A    between atoms: O_1  and  C_2
REMARK    2  A    between atoms: C_2  and  C_3
REMARK                            x       y       z     vdW  Elec       q    Type
REMARK                         _______ _______ _______ _____ _____    ______ ____
ROOT
ATOM      1  C   UNK     1       4.205   3.315  18.905  0.00  0.00    +0.000 C 
ATOM      2  C   UNK     1       4.013   3.324  17.388  0.00  0.00    +0.000 C 
ATOM      3  O   UNK     1       4.259   4.629  16.840  0.00  0.00    +0.000 OA
ATOM      4  C   UNK     1       5.380   5.245  17.358  0.00  0.00    +0.000 A 
ATOM      5  C   UNK     1       5.840   6.407  16.724  0.00  0.00    +0.000 A 
ATOM      6 CL   UNK     1       5.042   7.051  15.332  0.00  0.00    +0.000 Cl
ATOM      7  C   UNK     1       6.965   7.077  17.206  0.00  0.00    +0.000 A 
ATOM      8  C   UNK     1       7.647   6.584  18.319  0.00  0.00    +0.000 A 
ATOM      9  C   UNK     1       7.189   5.432  18.963  0.00  0.00    +0.000 A 
ATOM     10  C   UNK     1       6.032   4.778  18.522  0.00  0.00    +0.000 A 
ATOM     11  N   UNK     1       5.621   3.601  19.186  0.00  0.00    +0.000 N 
ATOM     12  H   UNK     1       5.806   3.626  20.189  0.00  0.00    +0.000 HD
ENDROOT
BRANCH   1  13
ATOM     13  C   UNK     1       3.824   1.967  19.526  0.00  0.00    +0.000 C 
BRANCH  13  14
ATOM     14  O   UNK     1       3.278   1.112  18.517  0.00  0.00    +0.000 OA
ATOM     15  H   UNK     1       3.422   1.553  17.661  0.00  0.00    +0.000 HD
ENDBRANCH  13  14
ENDBRANCH   1  13
TORSDOF 2
ENDMDL
MODEL 5
REMARK VINA RESULT:      -5.8      0.982      1.026
REMARK  Name = 
REMARK  2 active torsions:
REMARK  status: ('A' for Active; 'I' for Inactive)
REMARK    1  A    between atoms: O_1  and  C_2
REMARK    2  A    between atoms: C_2  and  C_3
REMARK                            x       y       z     vdW  Elec       q    Type
REMARK                         _______ _______ _______ _____ _____    ______ ____
ROOT
ATOM      1  C   UNK     1       4.776   4.377  17.114  0.00  0.00    +0.000 C 
ATOM      2  C   UNK     1       5.000   5.442  18.188  0.00  0.00    +0.000 C 
ATOM      3  O   UNK     1       3.779   5.750  18.879  0.00  0.00    +0.000 OA
ATOM      4  C   UNK     1       3.033   4.637  19.210  0.00  0.00    +0.000 A 
ATOM      5  C   UNK     1       1.955   4.810  20.088  0.00  0.00    +0.000 A 
ATOM      6 CL   UNK     1       1.566   6.361  20.746  0.00  0.00    +0.000 Cl
ATOM      7  C   UNK     1       1.161   3.722  20.455  0.00  0.00    +0.000 A 
ATOM      8  C   UNK     1       1.448   2.450  19.957  0.00  0.00    +0.000 A 
ATOM      9  C   UNK     1       2.515   2.272  19.074  0.00  0.00    +0.000 A 
ATOM     10  C   UNK     1       3.288   3.361  18.656  0.00  0.00    +0.000 A 
ATOM     11  N   UNK     1       4.375   3.130  17.784  0.00  0.00    +0.000 N 
ATOM     12  H   UNK     1       4.193   2.386  17.112  0.00  0.00    +0.000 HD
ENDROOT
BRANCH   1  13
ATOM     13  C   UNK     1       6.036   4.126  16.279  0.00  0.00    +0.000 C 
BRANCH  13  14
ATOM     14  O   UNK     1       7.185   4.136  17.132  0.00  0.00    +0.000 OA
ATOM     15  H   UNK     1       7.274   5.041  17.480  0.00  0.00    +0.000 HD
ENDBRANCH  13  14
ENDBRANCH   1  13
TORSDOF 2
ENDMDL
MODEL 6
REMARK VINA RESULT:      -5.8      1.820      2.460
REMARK  Name = 
REMARK  2 active torsions:
REMARK  status: ('A' for Active; 'I' for Inactive)
REMARK    1  A    between atoms: O_1  and  C_2
REMARK    2  A    between atoms: C_2  and  C_3
REMARK                            x       y       z     vdW  Elec       q    Type
REMARK                         _______ _______ _______ _____ _____    ______ ____
ROOT
ATOM      1  C   UNK     1       5.717   4.476  18.099  0.00  0.00    +0.000 C 
ATOM      2  C   UNK     1       4.814   3.800  17.066  0.00  0.00    +0.000 C 
ATOM      3  O   UNK     1       3.677   3.184  17.692  0.00  0.00    +0.000 OA
ATOM      4  C   UNK     1       3.086   3.968  18.661  0.00  0.00    +0.000 A 
ATOM      5  C   UNK     1       1.840   3.564  19.159  0.00  0.00    +0.000 A 
ATOM      6 CL   UNK     1       1.056   2.136  18.578  0.00  0.00    +0.000 Cl
ATOM      7  C   UNK     1       1.195   4.314  20.144  0.00  0.00    +0.000 A 
ATOM      8  C   UNK     1       1.786   5.480  20.631  0.00  0.00    +0.000 A 
ATOM      9  C   UNK     1       3.032   5.884  20.148  0.00  0.00    +0.000 A 
ATOM     10  C   UNK     1       3.715   5.116  19.197  0.00  0.00    +0.000 A 
ATOM     11  N   UNK     1       4.960   5.577  18.716  0.00  0.00    +0.000 N 
ATOM     12  H   UNK     1       5.509   6.054  19.430  0.00  0.00    +0.000 HD
ENDROOT
BRANCH   1  13
ATOM     13  C   UNK     1       7.000   5.029  17.469  0.00  0.00    +0.000 C 
BRANCH  13  14
ATOM     14  O   UNK     1       8.068   4.096  17.658  0.00  0.00    +0.000 OA
ATOM     15  H   UNK     1       8.428   3.892  16.777  0.00  0.00    +0.000 HD
ENDBRANCH  13  14
ENDBRANCH   1  13
TORSDOF 2
ENDMDL
MODEL 7
REMARK VINA RESULT:      -5.7      2.419      4.576
REMARK  Name = 
REMARK  2 active torsions:
REMARK  status: ('A' for Active; 'I' for Inactive)
REMARK    1  A    between atoms: O_1  and  C_2
REMARK    2  A    between atoms: C_2  and  C_3
REMARK                            x       y       z     vdW  Elec       q    Type
REMARK                         _______ _______ _______ _____ _____    ______ ____
ROOT
ATOM      1  C   UNK     1       3.161   3.385  18.748  0.00  0.00    +0.000 C 
ATOM      2  C   UNK     1       3.618   4.608  19.544  0.00  0.00    +0.000 C 
ATOM      3  O   UNK     1       5.041   4.786  19.456  0.00  0.00    +0.000 OA
ATOM      4  C   UNK     1       5.543   4.612  18.183  0.00  0.00    +0.000 A 
ATOM      5  C   UNK     1       6.870   4.995  17.945  0.00  0.00    +0.000 A 
ATOM      6 CL   UNK     1       7.852   5.670  19.198  0.00  0.00    +0.000 Cl
ATOM      7  C   UNK     1       7.435   4.838  16.679  0.00  0.00    +0.000 A 
ATOM      8  C   UNK     1       6.673   4.309  15.636  0.00  0.00    +0.000 A 
ATOM      9  C   UNK     1       5.354   3.917  15.867  0.00  0.00    +0.000 A 
ATOM     10  C   UNK     1       4.789   4.020  17.144  0.00  0.00    +0.000 A 
ATOM     11  N   UNK     1       3.442   3.636  17.326  0.00  0.00    +0.000 N 
ATOM     12  H   UNK     1       3.174   2.842  16.746  0.00  0.00    +0.000 HD
ENDROOT
BRANCH   1  13
ATOM     13  C   UNK     1       1.666   3.102  18.932  0.00  0.00    +0.000 C 
BRANCH  13  14
ATOM     14  O   UNK     1       1.375   1.768  18.507  0.00  0.00    +0.000 OA
ATOM     15  H   UNK     1       2.166   1.230  18.692  0.00  0.00    +0.000 HD
ENDBRANCH  13  14
ENDBRANCH   1  13
TORSDOF 2
ENDMDL
MODEL 8
REMARK VINA RESULT:      -5.7      2.986      4.993
REMARK  Name = 
REMARK  2 active torsions:
REMARK  status: ('A' for Active; 'I' for Inactive)
REMARK    1  A    between atoms: O_1  and  C_2
REMARK    2  A    between atoms: C_2  and  C_3
REMARK                            x       y       z     vdW  Elec       q    Type
REMARK                         _______ _______ _______ _____ _____    ______ ____
ROOT
ATOM      1  C   UNK     1       1.875   3.172  18.299  0.00  0.00    +0.000 C 
ATOM      2  C   UNK     1       3.147   2.335  18.162  0.00  0.00    +0.000 C 
ATOM      3  O   UNK     1       3.999   2.849  17.125  0.00  0.00    +0.000 OA
ATOM      4  C   UNK     1       4.121   4.223  17.138  0.00  0.00    +0.000 A 
ATOM      5  C   UNK     1       5.108   4.800  16.328  0.00  0.00    +0.000 A 
ATOM      6 CL   UNK     1       6.149   3.830  15.346  0.00  0.00    +0.000 Cl
ATOM      7  C   UNK     1       5.276   6.185  16.295  0.00  0.00    +0.000 A 
ATOM      8  C   UNK     1       4.465   7.004  17.082  0.00  0.00    +0.000 A 
ATOM      9  C   UNK     1       3.473   6.438  17.885  0.00  0.00    +0.000 A 
ATOM     10  C   UNK     1       3.259   5.054  17.890  0.00  0.00    +0.000 A 
ATOM     11  N   UNK     1       2.262   4.522  18.738  0.00  0.00    +0.000 N 
ATOM     12  H   UNK     1       1.451   5.133  18.829  0.00  0.00    +0.000 HD
ENDROOT
BRANCH   1  13
ATOM     13  C   UNK     1       0.894   2.569  19.311  0.00  0.00    +0.000 C 
BRANCH  13  14
ATOM     14  O   UNK     1       0.508   3.568  20.258  0.00  0.00    +0.000 OA
ATOM     15  H   UNK     1       0.097   3.105  21.010  0.00  0.00    +0.000 HD
ENDBRANCH  13  14
ENDBRANCH   1  13
TORSDOF 2
ENDMDL
MODEL 9
REMARK VINA RESULT:      -5.7      2.128      2.211
REMARK  Name = 
REMARK  2 active torsions:
REMARK  status: ('A' for Active; 'I' for Inactive)
REMARK    1  A    between atoms: O_1  and  C_2
REMARK    2  A    between atoms: C_2  and  C_3
REMARK                            x       y       z     vdW  Elec       q    Type
REMARK                         _______ _______ _______ _____ _____    ______ ____
ROOT
ATOM      1  C   UNK     1       5.521   5.994  17.824  0.00  0.00    +0.000 C 
ATOM      2  C   UNK     1       6.380   4.777  18.169  0.00  0.00    +0.000 C 
ATOM      3  O   UNK     1       5.723   3.929  19.125  0.00  0.00    +0.000 OA
ATOM      4  C   UNK     1       4.385   3.727  18.859  0.00  0.00    +0.000 A 
ATOM      5  C   UNK     1       3.715   2.734  19.587  0.00  0.00    +0.000 A 
ATOM      6 CL   UNK     1       4.533   1.781  20.775  0.00  0.00    +0.000 Cl
ATOM      7  C   UNK     1       2.360   2.488  19.365  0.00  0.00    +0.000 A 
ATOM      8  C   UNK     1       1.665   3.225  18.406  0.00  0.00    +0.000 A 
ATOM      9  C   UNK     1       2.322   4.223  17.684  0.00  0.00    +0.000 A 
ATOM     10  C   UNK     1       3.668   4.517  17.930  0.00  0.00    +0.000 A 
ATOM     11  N   UNK     1       4.300   5.516  17.156  0.00  0.00    +0.000 N 
ATOM     12  H   UNK     1       3.677   6.287  16.919  0.00  0.00    +0.000 HD
ENDROOT
BRANCH   1  13
ATOM     13  C   UNK     1       6.254   6.976  16.905  0.00  0.00    +0.000 C 
BRANCH  13  14
ATOM     14  O   UNK     1       7.470   6.381  16.441  0.00  0.00    +0.000 OA
ATOM     15  H   UNK     1       8.182   7.026  16.599  0.00  0.00    +0.000 HD
ENDBRANCH  13  14
ENDBRANCH   1  13
TORSDOF 2
ENDMDL
