MODEL 1
REMARK VINA RESULT:      -7.5      0.000      0.000
REMARK  Name = 
REMARK  5 active torsions:
REMARK  status: ('A' for Active; 'I' for Inactive)
REMARK    1  A    between atoms: C_1  and  C_2
REMARK    2  A    between atoms: C_2  and  C_3
REMARK    3  A    between atoms: C_5  and  N_6
REMARK    4  A    between atoms: C_15  and  C_16
REMARK    5  A    between atoms: C_16  and  O_18
REMARK                            x       y       z     vdW  Elec       q    Type
REMARK                         _______ _______ _______ _____ _____    ______ ____
ROOT
ATOM      1  C   UNL     1       6.874   4.435  17.165  0.00  0.00    +0.000 C 
ATOM      2  C   UNL     1       5.415   4.681  16.756  0.00  0.00    +0.000 C 
ATOM      3  C   UNL     1       5.135   4.036  15.390  0.00  0.00    +0.000 C 
ATOM      4  C   UNL     1       4.503   4.063  17.783  0.00  0.00    +0.000 C 
ATOM      5  C   UNL     1       3.515   4.688  18.446  0.00  0.00    +0.000 C 
ATOM      6  C   UNL     1       3.312   6.144  18.236  0.00  0.00    +0.000 A 
ATOM      7  C   UNL     1       2.343   6.868  18.959  0.00  0.00    +0.000 A 
ATOM      8  C   UNL     1       2.139   8.240  18.753  0.00  0.00    +0.000 A 
ATOM      9  C   UNL     1       2.922   8.927  17.829  0.00  0.00    +0.000 A 
ATOM     10  C   UNL     1       3.920   8.239  17.139  0.00  0.00    +0.000 A 
ATOM     11  C   UNL     1       4.118   6.861  17.341  0.00  0.00    +0.000 A 
ATOM     12  C   UNL     1       5.211   6.191  16.594  0.00  0.00    +0.000 C 
ATOM     13  O   UNL     1       5.915   6.868  15.844  0.00  0.00    +0.000 OA
ENDROOT
BRANCH   5  14
ATOM     14  N   UNL     1       2.715   3.977  19.336  0.00  0.00    +0.000 N 
ATOM     15  C   UNL     1       3.186   3.895  20.640  0.00  0.00    +0.000 A 
ATOM     16  C   UNL     1       2.505   3.226  21.580  0.00  0.00    +0.000 A 
ATOM     17  C   UNL     1       1.253   2.596  21.249  0.00  0.00    +0.000 A 
ATOM     18  C   UNL     1       0.748   2.689  20.012  0.00  0.00    +0.000 A 
ATOM     19  C   UNL     1       1.485   3.431  18.948  0.00  0.00    +0.000 A 
ATOM     20  O   UNL     1       0.999   3.484  17.820  0.00  0.00    +0.000 OA
ENDBRANCH   5  14
BRANCH   8  21
ATOM     21  C   UNL     1       1.033   8.888  19.509  0.00  0.00    +0.000 C 
ATOM     22  O   UNL     1       0.305   9.728  19.005  0.00  0.00    +0.000 OA
BRANCH  21  23
ATOM     23  O   UNL     1       0.891   8.454  20.776  0.00  0.00    +0.000 OA
ATOM     24  H   UNL     1       1.573   7.834  21.090  0.00  0.00    +0.000 HD
ENDBRANCH  21  23
ENDBRANCH   8  21
TORSDOF 3
ENDMDL
MODEL 2
REMARK VINA RESULT:      -7.4      2.236      4.922
REMARK  Name = 
REMARK  5 active torsions:
REMARK  status: ('A' for Active; 'I' for Inactive)
REMARK    1  A    between atoms: C_1  and  C_2
REMARK    2  A    between atoms: C_2  and  C_3
REMARK    3  A    between atoms: C_5  and  N_6
REMARK    4  A    between atoms: C_15  and  C_16
REMARK    5  A    between atoms: C_16  and  O_18
REMARK                            x       y       z     vdW  Elec       q    Type
REMARK                         _______ _______ _______ _____ _____    ______ ____
ROOT
ATOM      1  C   UNL     1       3.710   1.189  18.277  0.00  0.00    +0.000 C 
ATOM      2  C   UNL     1       4.040   2.171  19.409  0.00  0.00    +0.000 C 
ATOM      3  C   UNL     1       4.775   1.440  20.543  0.00  0.00    +0.000 C 
ATOM      4  C   UNL     1       4.932   3.260  18.874  0.00  0.00    +0.000 C 
ATOM      5  C   UNL     1       4.710   4.582  18.961  0.00  0.00    +0.000 C 
ATOM      6  C   UNL     1       3.443   5.064  19.567  0.00  0.00    +0.000 A 
ATOM      7  C   UNL     1       3.119   6.435  19.616  0.00  0.00    +0.000 A 
ATOM      8  C   UNL     1       1.930   6.895  20.200  0.00  0.00    +0.000 A 
ATOM      9  C   UNL     1       1.021   5.983  20.731  0.00  0.00    +0.000 A 
ATOM     10  C   UNL     1       1.298   4.618  20.647  0.00  0.00    +0.000 A 
ATOM     11  C   UNL     1       2.495   4.161  20.068  0.00  0.00    +0.000 A 
ATOM     12  C   UNL     1       2.722   2.696  19.988  0.00  0.00    +0.000 C 
ATOM     13  O   UNL     1       1.848   1.939  20.411  0.00  0.00    +0.000 OA
ENDROOT
BRANCH   5  14
ATOM     14  N   UNL     1       5.648   5.481  18.462  0.00  0.00    +0.000 N 
ATOM     15  C   UNL     1       5.284   6.157  17.304  0.00  0.00    +0.000 A 
ATOM     16  C   UNL     1       6.113   7.037  16.728  0.00  0.00    +0.000 A 
ATOM     17  C   UNL     1       7.396   7.311  17.321  0.00  0.00    +0.000 A 
ATOM     18  C   UNL     1       7.764   6.709  18.459  0.00  0.00    +0.000 A 
ATOM     19  C   UNL     1       6.859   5.728  19.123  0.00  0.00    +0.000 A 
ATOM     20  O   UNL     1       7.235   5.182  20.159  0.00  0.00    +0.000 OA
ENDBRANCH   5  14
BRANCH   8  21
ATOM     21  C   UNL     1       1.728   8.367  20.275  0.00  0.00    +0.000 C 
ATOM     22  O   UNL     1       1.553   9.051  19.280  0.00  0.00    +0.000 OA
BRANCH  21  23
ATOM     23  O   UNL     1       1.731   8.869  21.524  0.00  0.00    +0.000 OA
ATOM     24  H   UNL     1       0.864   8.915  21.964  0.00  0.00    +0.000 HD
ENDBRANCH  21  23
ENDBRANCH   8  21
TORSDOF 3
ENDMDL
MODEL 3
REMARK VINA RESULT:      -7.4      1.763      4.649
REMARK  Name = 
REMARK  5 active torsions:
REMARK  status: ('A' for Active; 'I' for Inactive)
REMARK    1  A    between atoms: C_1  and  C_2
REMARK    2  A    between atoms: C_2  and  C_3
REMARK    3  A    between atoms: C_5  and  N_6
REMARK    4  A    between atoms: C_15  and  C_16
REMARK    5  A    between atoms: C_16  and  O_18
REMARK                            x       y       z     vdW  Elec       q    Type
REMARK                         _______ _______ _______ _____ _____    ______ ____
ROOT
ATOM      1  C   UNL     1       5.259   6.649  15.161  0.00  0.00    +0.000 C 
ATOM      2  C   UNL     1       5.336   6.311  16.656  0.00  0.00    +0.000 C 
ATOM      3  C   UNL     1       6.730   6.654  17.202  0.00  0.00    +0.000 C 
ATOM      4  C   UNL     1       4.308   7.122  17.400  0.00  0.00    +0.000 C 
ATOM      5  C   UNL     1       3.363   6.641  18.225  0.00  0.00    +0.000 C 
ATOM      6  C   UNL     1       3.230   5.172  18.394  0.00  0.00    +0.000 A 
ATOM      7  C   UNL     1       2.210   4.606  19.185  0.00  0.00    +0.000 A 
ATOM      8  C   UNL     1       2.091   3.220  19.359  0.00  0.00    +0.000 A 
ATOM      9  C   UNL     1       2.983   2.362  18.720  0.00  0.00    +0.000 A 
ATOM     10  C   UNL     1       3.969   2.898  17.892  0.00  0.00    +0.000 A 
ATOM     11  C   UNL     1       4.091   4.290  17.726  0.00  0.00    +0.000 A 
ATOM     12  C   UNL     1       5.146   4.799  16.815  0.00  0.00    +0.000 C 
ATOM     13  O   UNL     1       5.858   3.986  16.224  0.00  0.00    +0.000 OA
ENDROOT
BRANCH   5  14
ATOM     14  N   UNL     1       2.505   7.515  18.887  0.00  0.00    +0.000 N 
ATOM     15  C   UNL     1       2.227   7.202  20.212  0.00  0.00    +0.000 A 
ATOM     16  C   UNL     1       1.405   7.965  20.944  0.00  0.00    +0.000 A 
ATOM     17  C   UNL     1       0.811   9.142  20.366  0.00  0.00    +0.000 A 
ATOM     18  C   UNL     1       1.088   9.498  19.105  0.00  0.00    +0.000 A 
ATOM     19  C   UNL     1       2.003   8.667  18.269  0.00  0.00    +0.000 A 
ATOM     20  O   UNL     1       2.224   9.014  17.110  0.00  0.00    +0.000 OA
ENDBRANCH   5  14
BRANCH   8  21
ATOM     21  C   UNL     1       1.030   2.734  20.283  0.00  0.00    +0.000 C 
ATOM     22  O   UNL     1       1.231   2.567  21.474  0.00  0.00    +0.000 OA
BRANCH  21  23
ATOM     23  O   UNL     1      -0.165   2.521  19.699  0.00  0.00    +0.000 OA
ATOM     24  H   UNL     1      -0.189   1.816  19.028  0.00  0.00    +0.000 HD
ENDBRANCH  21  23
ENDBRANCH   8  21
TORSDOF 3
ENDMDL
MODEL 4
REMARK VINA RESULT:      -7.3      1.757      5.461
REMARK  Name = 
REMARK  5 active torsions:
REMARK  status: ('A' for Active; 'I' for Inactive)
REMARK    1  A    between atoms: C_1  and  C_2
REMARK    2  A    between atoms: C_2  and  C_3
REMARK    3  A    between atoms: C_5  and  N_6
REMARK    4  A    between atoms: C_15  and  C_16
REMARK    5  A    between atoms: C_16  and  O_18
REMARK                            x       y       z     vdW  Elec       q    Type
REMARK                         _______ _______ _______ _____ _____    ______ ____
ROOT
ATOM      1  C   UNL     1       1.705   3.216  21.470  0.00  0.00    +0.000 C 
ATOM      2  C   UNL     1       1.881   3.612  19.998  0.00  0.00    +0.000 C 
ATOM      3  C   UNL     1       0.872   2.851  19.124  0.00  0.00    +0.000 C 
ATOM      4  C   UNL     1       1.636   5.090  19.850  0.00  0.00    +0.000 C 
ATOM      5  C   UNL     1       2.472   5.981  19.291  0.00  0.00    +0.000 C 
ATOM      6  C   UNL     1       3.807   5.528  18.826  0.00  0.00    +0.000 A 
ATOM      7  C   UNL     1       4.755   6.429  18.302  0.00  0.00    +0.000 A 
ATOM      8  C   UNL     1       6.011   6.003  17.849  0.00  0.00    +0.000 A 
ATOM      9  C   UNL     1       6.358   4.656  17.934  0.00  0.00    +0.000 A 
ATOM     10  C   UNL     1       5.454   3.754  18.496  0.00  0.00    +0.000 A 
ATOM     11  C   UNL     1       4.191   4.185  18.942  0.00  0.00    +0.000 A 
ATOM     12  C   UNL     1       3.282   3.181  19.551  0.00  0.00    +0.000 C 
ATOM     13  O   UNL     1       3.675   2.020  19.662  0.00  0.00    +0.000 OA
ENDROOT
BRANCH   5  14
ATOM     14  N   UNL     1       2.093   7.316  19.177  0.00  0.00    +0.000 N 
ATOM     15  C   UNL     1       2.209   7.872  17.909  0.00  0.00    +0.000 A 
ATOM     16  C   UNL     1       1.885   9.152  17.684  0.00  0.00    +0.000 A 
ATOM     17  C   UNL     1       1.388   9.968  18.761  0.00  0.00    +0.000 A 
ATOM     18  C   UNL     1       1.224   9.455  19.987  0.00  0.00    +0.000 A 
ATOM     19  C   UNL     1       1.574   8.031  20.264  0.00  0.00    +0.000 A 
ATOM     20  O   UNL     1       1.426   7.597  21.405  0.00  0.00    +0.000 OA
ENDBRANCH   5  14
BRANCH   8  21
ATOM     21  C   UNL     1       6.902   7.025  17.236  0.00  0.00    +0.000 C 
ATOM     22  O   UNL     1       6.935   8.179  17.630  0.00  0.00    +0.000 OA
BRANCH  21  23
ATOM     23  O   UNL     1       7.678   6.564  16.237  0.00  0.00    +0.000 OA
ATOM     24  H   UNL     1       7.900   5.617  16.275  0.00  0.00    +0.000 HD
ENDBRANCH  21  23
ENDBRANCH   8  21
TORSDOF 3
ENDMDL
MODEL 5
REMARK VINA RESULT:      -7.2      2.069      4.714
REMARK  Name = 
REMARK  5 active torsions:
REMARK  status: ('A' for Active; 'I' for Inactive)
REMARK    1  A    between atoms: C_1  and  C_2
REMARK    2  A    between atoms: C_2  and  C_3
REMARK    3  A    between atoms: C_5  and  N_6
REMARK    4  A    between atoms: C_15  and  C_16
REMARK    5  A    between atoms: C_16  and  O_18
REMARK                            x       y       z     vdW  Elec       q    Type
REMARK                         _______ _______ _______ _____ _____    ______ ____
ROOT
ATOM      1  C   UNL     1       3.734   1.193  18.363  0.00  0.00    +0.000 C 
ATOM      2  C   UNL     1       4.054   2.190  19.485  0.00  0.00    +0.000 C 
ATOM      3  C   UNL     1       4.775   1.473  20.637  0.00  0.00    +0.000 C 
ATOM      4  C   UNL     1       4.953   3.271  18.945  0.00  0.00    +0.000 C 
ATOM      5  C   UNL     1       4.730   4.594  19.011  0.00  0.00    +0.000 C 
ATOM      6  C   UNL     1       3.457   5.086  19.597  0.00  0.00    +0.000 A 
ATOM      7  C   UNL     1       3.135   6.457  19.624  0.00  0.00    +0.000 A 
ATOM      8  C   UNL     1       1.940   6.926  20.189  0.00  0.00    +0.000 A 
ATOM      9  C   UNL     1       1.024   6.022  20.722  0.00  0.00    +0.000 A 
ATOM     10  C   UNL     1       1.300   4.656  20.660  0.00  0.00    +0.000 A 
ATOM     11  C   UNL     1       2.504   4.190  20.100  0.00  0.00    +0.000 A 
ATOM     12  C   UNL     1       2.730   2.724  20.042  0.00  0.00    +0.000 C 
ATOM     13  O   UNL     1       1.850   1.974  20.466  0.00  0.00    +0.000 OA
ENDROOT
BRANCH   5  14
ATOM     14  N   UNL     1       5.675   5.486  18.511  0.00  0.00    +0.000 N 
ATOM     15  C   UNL     1       6.835   5.626  19.264  0.00  0.00    +0.000 A 
ATOM     16  C   UNL     1       7.807   6.465  18.885  0.00  0.00    +0.000 A 
ATOM     17  C   UNL     1       7.669   7.224  17.669  0.00  0.00    +0.000 A 
ATOM     18  C   UNL     1       6.584   7.085  16.897  0.00  0.00    +0.000 A 
ATOM     19  C   UNL     1       5.487   6.154  17.294  0.00  0.00    +0.000 A 
ATOM     20  O   UNL     1       4.498   6.062  16.569  0.00  0.00    +0.000 OA
ENDBRANCH   5  14
BRANCH   8  21
ATOM     21  C   UNL     1       1.739   8.399  20.241  0.00  0.00    +0.000 C 
ATOM     22  O   UNL     1       1.540   9.064  19.238  0.00  0.00    +0.000 OA
BRANCH  21  23
ATOM     23  O   UNL     1       1.769   8.924  21.481  0.00  0.00    +0.000 OA
ATOM     24  H   UNL     1       1.579   9.877  21.543  0.00  0.00    +0.000 HD
ENDBRANCH  21  23
ENDBRANCH   8  21
TORSDOF 3
ENDMDL
MODEL 6
REMARK VINA RESULT:      -7.0      1.942      4.673
REMARK  Name = 
REMARK  5 active torsions:
REMARK  status: ('A' for Active; 'I' for Inactive)
REMARK    1  A    between atoms: C_1  and  C_2
REMARK    2  A    between atoms: C_2  and  C_3
REMARK    3  A    between atoms: C_5  and  N_6
REMARK    4  A    between atoms: C_15  and  C_16
REMARK    5  A    between atoms: C_16  and  O_18
REMARK                            x       y       z     vdW  Elec       q    Type
REMARK                         _______ _______ _______ _____ _____    ______ ____
ROOT
ATOM      1  C   UNL     1       5.902   6.613  15.098  0.00  0.00    +0.000 C 
ATOM      2  C   UNL     1       5.721   6.158  16.553  0.00  0.00    +0.000 C 
ATOM      3  C   UNL     1       7.037   6.334  17.327  0.00  0.00    +0.000 C 
ATOM      4  C   UNL     1       4.656   6.999  17.206  0.00  0.00    +0.000 C 
ATOM      5  C   UNL     1       3.561   6.543  17.837  0.00  0.00    +0.000 C 
ATOM      6  C   UNL     1       3.292   5.083  17.856  0.00  0.00    +0.000 A 
ATOM      7  C   UNL     1       2.123   4.552  18.435  0.00  0.00    +0.000 A 
ATOM      8  C   UNL     1       1.873   3.173  18.467  0.00  0.00    +0.000 A 
ATOM      9  C   UNL     1       2.785   2.289  17.894  0.00  0.00    +0.000 A 
ATOM     10  C   UNL     1       3.924   2.797  17.270  0.00  0.00    +0.000 A 
ATOM     11  C   UNL     1       4.176   4.181  17.247  0.00  0.00    +0.000 A 
ATOM     12  C   UNL     1       5.395   4.661  16.549  0.00  0.00    +0.000 C 
ATOM     13  O   UNL     1       6.125   3.835  16.000  0.00  0.00    +0.000 OA
ENDROOT
BRANCH   5  14
ATOM     14  N   UNL     1       2.681   7.437  18.440  0.00  0.00    +0.000 N 
ATOM     15  C   UNL     1       2.147   8.415  17.610  0.00  0.00    +0.000 A 
ATOM     16  C   UNL     1       1.298   9.336  18.084  0.00  0.00    +0.000 A 
ATOM     17  C   UNL     1       0.910   9.310  19.470  0.00  0.00    +0.000 A 
ATOM     18  C   UNL     1       1.373   8.358  20.291  0.00  0.00    +0.000 A 
ATOM     19  C   UNL     1       2.316   7.318  19.787  0.00  0.00    +0.000 A 
ATOM     20  O   UNL     1       2.733   6.468  20.572  0.00  0.00    +0.000 OA
ENDBRANCH   5  14
BRANCH   8  21
ATOM     21  C   UNL     1       0.648   2.715  19.178  0.00  0.00    +0.000 C 
ATOM     22  O   UNL     1      -0.040   1.797  18.763  0.00  0.00    +0.000 OA
BRANCH  21  23
ATOM     23  O   UNL     1       0.383   3.378  20.320  0.00  0.00    +0.000 OA
ATOM     24  H   UNL     1      -0.133   2.889  20.984  0.00  0.00    +0.000 HD
ENDBRANCH  21  23
ENDBRANCH   8  21
TORSDOF 3
ENDMDL
MODEL 7
REMARK VINA RESULT:      -6.9      1.126      1.408
REMARK  Name = 
REMARK  5 active torsions:
REMARK  status: ('A' for Active; 'I' for Inactive)
REMARK    1  A    between atoms: C_1  and  C_2
REMARK    2  A    between atoms: C_2  and  C_3
REMARK    3  A    between atoms: C_5  and  N_6
REMARK    4  A    between atoms: C_15  and  C_16
REMARK    5  A    between atoms: C_16  and  O_18
REMARK                            x       y       z     vdW  Elec       q    Type
REMARK                         _______ _______ _______ _____ _____    ______ ____
ROOT
ATOM      1  C   UNL     1       6.791   4.518  16.819  0.00  0.00    +0.000 C 
ATOM      2  C   UNL     1       5.276   4.675  16.627  0.00  0.00    +0.000 C 
ATOM      3  C   UNL     1       4.838   3.993  15.322  0.00  0.00    +0.000 C 
ATOM      4  C   UNL     1       4.561   4.022  17.781  0.00  0.00    +0.000 C 
ATOM      5  C   UNL     1       3.647   4.601  18.577  0.00  0.00    +0.000 C 
ATOM      6  C   UNL     1       3.330   6.039  18.389  0.00  0.00    +0.000 A 
ATOM      7  C   UNL     1       2.437   6.719  19.241  0.00  0.00    +0.000 A 
ATOM      8  C   UNL     1       2.126   8.074  19.058  0.00  0.00    +0.000 A 
ATOM      9  C   UNL     1       2.724   8.789  18.024  0.00  0.00    +0.000 A 
ATOM     10  C   UNL     1       3.649   8.149  17.200  0.00  0.00    +0.000 A 
ATOM     11  C   UNL     1       3.954   6.787  17.381  0.00  0.00    +0.000 A 
ATOM     12  C   UNL     1       4.963   6.168  16.486  0.00  0.00    +0.000 C 
ATOM     13  O   UNL     1       5.509   6.872  15.636  0.00  0.00    +0.000 OA
ENDROOT
BRANCH   5  14
ATOM     14  N   UNL     1       3.028   3.860  19.580  0.00  0.00    +0.000 N 
ATOM     15  C   UNL     1       1.656   4.042  19.709  0.00  0.00    +0.000 A 
ATOM     16  C   UNL     1       0.958   3.391  20.648  0.00  0.00    +0.000 A 
ATOM     17  C   UNL     1       1.625   2.470  21.531  0.00  0.00    +0.000 A 
ATOM     18  C   UNL     1       2.939   2.238  21.410  0.00  0.00    +0.000 A 
ATOM     19  C   UNL     1       3.739   2.948  20.370  0.00  0.00    +0.000 A 
ATOM     20  O   UNL     1       4.946   2.723  20.297  0.00  0.00    +0.000 OA
ENDBRANCH   5  14
BRANCH   8  21
ATOM     21  C   UNL     1       1.106   8.671  19.964  0.00  0.00    +0.000 C 
ATOM     22  O   UNL     1       0.437   9.638  19.641  0.00  0.00    +0.000 OA
BRANCH  21  23
ATOM     23  O   UNL     1       0.972   8.041  21.146  0.00  0.00    +0.000 OA
ATOM     24  H   UNL     1       0.327   7.311  21.167  0.00  0.00    +0.000 HD
ENDBRANCH  21  23
ENDBRANCH   8  21
TORSDOF 3
ENDMDL
MODEL 8
REMARK VINA RESULT:      -6.7      1.980      5.269
REMARK  Name = 
REMARK  5 active torsions:
REMARK  status: ('A' for Active; 'I' for Inactive)
REMARK    1  A    between atoms: C_1  and  C_2
REMARK    2  A    between atoms: C_2  and  C_3
REMARK    3  A    between atoms: C_5  and  N_6
REMARK    4  A    between atoms: C_15  and  C_16
REMARK    5  A    between atoms: C_16  and  O_18
REMARK                            x       y       z     vdW  Elec       q    Type
REMARK                         _______ _______ _______ _____ _____    ______ ____
ROOT
ATOM      1  C   UNL     1       1.570   2.809  21.539  0.00  0.00    +0.000 C 
ATOM      2  C   UNL     1       1.757   3.337  20.110  0.00  0.00    +0.000 C 
ATOM      3  C   UNL     1       0.750   2.665  19.165  0.00  0.00    +0.000 C 
ATOM      4  C   UNL     1       1.518   4.825  20.098  0.00  0.00    +0.000 C 
ATOM      5  C   UNL     1       2.361   5.759  19.627  0.00  0.00    +0.000 C 
ATOM      6  C   UNL     1       3.697   5.344  19.130  0.00  0.00    +0.000 A 
ATOM      7  C   UNL     1       4.652   6.286  18.696  0.00  0.00    +0.000 A 
ATOM      8  C   UNL     1       5.909   5.896  18.213  0.00  0.00    +0.000 A 
ATOM      9  C   UNL     1       6.250   4.546  18.175  0.00  0.00    +0.000 A 
ATOM     10  C   UNL     1       5.339   3.601  18.647  0.00  0.00    +0.000 A 
ATOM     11  C   UNL     1       4.075   3.994  19.124  0.00  0.00    +0.000 A 
ATOM     12  C   UNL     1       3.159   2.944  19.633  0.00  0.00    +0.000 C 
ATOM     13  O   UNL     1       3.546   1.775  19.640  0.00  0.00    +0.000 OA
ENDROOT
BRANCH   5  14
ATOM     14  N   UNL     1       1.989   7.100  19.634  0.00  0.00    +0.000 N 
ATOM     15  C   UNL     1       1.703   7.643  20.880  0.00  0.00    +0.000 A 
ATOM     16  C   UNL     1       1.323   8.921  21.007  0.00  0.00    +0.000 A 
ATOM     17  C   UNL     1       1.224   9.761  19.841  0.00  0.00    +0.000 A 
ATOM     18  C   UNL     1       1.531   9.283  18.628  0.00  0.00    +0.000 A 
ATOM     19  C   UNL     1       1.961   7.865  18.460  0.00  0.00    +0.000 A 
ATOM     20  O   UNL     1       2.221   7.455  17.330  0.00  0.00    +0.000 OA
ENDBRANCH   5  14
BRANCH   8  21
ATOM     21  C   UNL     1       6.808   6.967  17.701  0.00  0.00    +0.000 C 
ATOM     22  O   UNL     1       6.518   7.652  16.735  0.00  0.00    +0.000 OA
BRANCH  21  23
ATOM     23  O   UNL     1       7.944   7.126  18.406  0.00  0.00    +0.000 OA
ATOM     24  H   UNL     1       8.423   7.961  18.255  0.00  0.00    +0.000 HD
ENDBRANCH  21  23
ENDBRANCH   8  21
TORSDOF 3
ENDMDL
MODEL 9
REMARK VINA RESULT:      -6.3      1.914      4.887
REMARK  Name = 
REMARK  5 active torsions:
REMARK  status: ('A' for Active; 'I' for Inactive)
REMARK    1  A    between atoms: C_1  and  C_2
REMARK    2  A    between atoms: C_2  and  C_3
REMARK    3  A    between atoms: C_5  and  N_6
REMARK    4  A    between atoms: C_15  and  C_16
REMARK    5  A    between atoms: C_16  and  O_18
REMARK                            x       y       z     vdW  Elec       q    Type
REMARK                         _______ _______ _______ _____ _____    ______ ____
ROOT
ATOM      1  C   UNL     1       3.026   1.064  19.240  0.00  0.00    +0.000 C 
ATOM      2  C   UNL     1       3.737   2.324  19.754  0.00  0.00    +0.000 C 
ATOM      3  C   UNL     1       4.715   1.954  20.880  0.00  0.00    +0.000 C 
ATOM      4  C   UNL     1       4.509   2.953  18.624  0.00  0.00    +0.000 C 
ATOM      5  C   UNL     1       4.412   4.227  18.210  0.00  0.00    +0.000 C 
ATOM      6  C   UNL     1       3.410   5.120  18.844  0.00  0.00    +0.000 A 
ATOM      7  C   UNL     1       3.210   6.442  18.401  0.00  0.00    +0.000 A 
ATOM      8  C   UNL     1       2.275   7.293  19.007  0.00  0.00    +0.000 A 
ATOM      9  C   UNL     1       1.497   6.827  20.065  0.00  0.00    +0.000 A 
ATOM     10  C   UNL     1       1.643   5.506  20.486  0.00  0.00    +0.000 A 
ATOM     11  C   UNL     1       2.588   4.657  19.881  0.00  0.00    +0.000 A 
ATOM     12  C   UNL     1       2.681   3.255  20.360  0.00  0.00    +0.000 C 
ATOM     13  O   UNL     1       1.916   2.883  21.250  0.00  0.00    +0.000 OA
ENDROOT
BRANCH   5  14
ATOM     14  N   UNL     1       5.226   4.688  17.179  0.00  0.00    +0.000 N 
ATOM     15  C   UNL     1       4.834   4.337  15.893  0.00  0.00    +0.000 A 
ATOM     16  C   UNL     1       5.548   4.715  14.826  0.00  0.00    +0.000 A 
ATOM     17  C   UNL     1       6.732   5.516  14.999  0.00  0.00    +0.000 A 
ATOM     18  C   UNL     1       7.118   5.908  16.220  0.00  0.00    +0.000 A 
ATOM     19  C   UNL     1       6.339   5.504  17.426  0.00  0.00    +0.000 A 
ATOM     20  O   UNL     1       6.730   5.868  18.533  0.00  0.00    +0.000 OA
ENDBRANCH   5  14
BRANCH   8  21
ATOM     21  C   UNL     1       2.205   8.696  18.515  0.00  0.00    +0.000 C 
ATOM     22  O   UNL     1       2.714   9.042  17.462  0.00  0.00    +0.000 OA
BRANCH  21  23
ATOM     23  O   UNL     1       1.516   9.534  19.312  0.00  0.00    +0.000 OA
ATOM     24  H   UNL     1       1.721  10.481  19.210  0.00  0.00    +0.000 HD
ENDBRANCH  21  23
ENDBRANCH   8  21
TORSDOF 3
ENDMDL
