MODEL 1
REMARK VINA RESULT:      -6.5      0.000      0.000
REMARK  Name = 
REMARK  7 active torsions:
REMARK  status: ('A' for Active; 'I' for Inactive)
REMARK    1  A    between atoms: C_1  and  C_2
REMARK    2  A    between atoms: C_2  and  C_3
REMARK    3  A    between atoms: C_3  and  C_4
REMARK    4  A    between atoms: C_4  and  S_5
REMARK    5  A    between atoms: S_5  and  C_6
REMARK    6  A    between atoms: C_11  and  O_12
REMARK    7  A    between atoms: C_14  and  N_15
REMARK                            x       y       z     vdW  Elec       q    Type
REMARK                         _______ _______ _______ _____ _____    ______ ____
ROOT
ATOM      1  C   UNL     1       5.128   4.850  16.448  0.00  0.00    +0.000 A 
ATOM      2  N   UNL     1       4.170   4.123  16.970  0.00  0.00    +0.000 NA
ATOM      3  N   UNL     1       4.452   3.954  18.303  0.00  0.00    +0.000 NA
ATOM      4  C   UNL     1       5.575   4.588  18.579  0.00  0.00    +0.000 A 
ATOM      5  N   UNL     1       6.253   4.673  19.763  0.00  0.00    +0.000 NA
ATOM      6  C   UNL     1       7.321   5.386  19.710  0.00  0.00    +0.000 A 
ATOM      7  C   UNL     1       7.900   6.112  18.573  0.00  0.00    +0.000 A 
ATOM      8  C   UNL     1       7.214   6.012  17.416  0.00  0.00    +0.000 A 
ATOM      9  N   UNL     1       6.039   5.218  17.418  0.00  0.00    +0.000 N 
ENDROOT
BRANCH   8  10
ATOM     10  N   UNL     1       7.624   6.673  16.271  0.00  0.00    +0.000 N 
ATOM     11  H   UNL     1       8.630   6.716  16.129  0.00  0.00    +0.000 HD
ATOM     12  H   UNL     1       7.115   6.411  15.424  0.00  0.00    +0.000 HD
ENDBRANCH   8  10
BRANCH   6  13
ATOM     13  O   UNL     1       8.063   5.541  20.812  0.00  0.00    +0.000 OA
ATOM     14  H   UNL     1       7.689   6.286  21.319  0.00  0.00    +0.000 HD
ENDBRANCH   6  13
BRANCH   1  15
ATOM     15  S   UNL     1       5.306   5.198  14.756  0.00  0.00    +0.000 S 
BRANCH  15  16
ATOM     16  C   UNL     1       6.302   3.778  14.198  0.00  0.00    +0.000 C 
BRANCH  16  17
ATOM     17  C   UNL     1       6.479   3.863  12.680  0.00  0.00    +0.000 C 
BRANCH  17  19
ATOM     18  C   UNL     1       4.338   3.284  11.479  0.00  0.00    +0.000 C 
ATOM     19  C   UNL     1       5.692   2.772  11.952  0.00  0.00    +0.000 C 
ENDBRANCH  17  19
ENDBRANCH  16  17
ENDBRANCH  15  16
ENDBRANCH   1  15
TORSDOF 6
ENDMDL
MODEL 2
REMARK VINA RESULT:      -6.3      3.369      4.762
REMARK  Name = 
REMARK  7 active torsions:
REMARK  status: ('A' for Active; 'I' for Inactive)
REMARK    1  A    between atoms: C_1  and  C_2
REMARK    2  A    between atoms: C_2  and  C_3
REMARK    3  A    between atoms: C_3  and  C_4
REMARK    4  A    between atoms: C_4  and  S_5
REMARK    5  A    between atoms: S_5  and  C_6
REMARK    6  A    between atoms: C_11  and  O_12
REMARK    7  A    between atoms: C_14  and  N_15
REMARK                            x       y       z     vdW  Elec       q    Type
REMARK                         _______ _______ _______ _____ _____    ______ ____
ROOT
ATOM      1  C   UNL     1       4.468   5.314  18.591  0.00  0.00    +0.000 A 
ATOM      2  N   UNL     1       3.810   6.357  18.146  0.00  0.00    +0.000 NA
ATOM      3  N   UNL     1       2.527   5.954  17.867  0.00  0.00    +0.000 NA
ATOM      4  C   UNL     1       2.418   4.672  18.153  0.00  0.00    +0.000 A 
ATOM      5  N   UNL     1       1.340   3.842  18.011  0.00  0.00    +0.000 NA
ATOM      6  C   UNL     1       1.549   2.635  18.399  0.00  0.00    +0.000 A 
ATOM      7  C   UNL     1       2.763   2.036  18.966  0.00  0.00    +0.000 A 
ATOM      8  C   UNL     1       3.812   2.874  19.096  0.00  0.00    +0.000 A 
ATOM      9  N   UNL     1       3.638   4.213  18.662  0.00  0.00    +0.000 N 
ENDROOT
BRANCH   8  10
ATOM     10  N   UNL     1       5.010   2.455  19.649  0.00  0.00    +0.000 N 
ATOM     11  H   UNL     1       5.820   2.528  19.038  0.00  0.00    +0.000 HD
ATOM     12  H   UNL     1       5.190   2.810  20.591  0.00  0.00    +0.000 HD
ENDBRANCH   8  10
BRANCH   6  13
ATOM     13  O   UNL     1       0.562   1.736  18.308  0.00  0.00    +0.000 OA
ATOM     14  H   UNL     1       0.766   1.008  18.925  0.00  0.00    +0.000 HD
ENDBRANCH   6  13
BRANCH   1  15
ATOM     15  S   UNL     1       6.172   5.278  18.924  0.00  0.00    +0.000 S 
BRANCH  15  16
ATOM     16  C   UNL     1       6.826   4.562  17.383  0.00  0.00    +0.000 C 
BRANCH  16  17
ATOM     17  C   UNL     1       6.718   5.603  16.266  0.00  0.00    +0.000 C 
BRANCH  17  19
ATOM     18  C   UNL     1       6.299   4.122  14.268  0.00  0.00    +0.000 C 
ATOM     19  C   UNL     1       5.715   5.185  15.190  0.00  0.00    +0.000 C 
ENDBRANCH  17  19
ENDBRANCH  16  17
ENDBRANCH  15  16
ENDBRANCH   1  15
TORSDOF 6
ENDMDL
MODEL 3
REMARK VINA RESULT:      -6.3      4.070      5.750
REMARK  Name = 
REMARK  7 active torsions:
REMARK  status: ('A' for Active; 'I' for Inactive)
REMARK    1  A    between atoms: C_1  and  C_2
REMARK    2  A    between atoms: C_2  and  C_3
REMARK    3  A    between atoms: C_3  and  C_4
REMARK    4  A    between atoms: C_4  and  S_5
REMARK    5  A    between atoms: S_5  and  C_6
REMARK    6  A    between atoms: C_11  and  O_12
REMARK    7  A    between atoms: C_14  and  N_15
REMARK                            x       y       z     vdW  Elec       q    Type
REMARK                         _______ _______ _______ _____ _____    ______ ____
ROOT
ATOM      1  C   UNL     1       4.807   5.018  18.317  0.00  0.00    +0.000 A 
ATOM      2  N   UNL     1       4.312   6.151  17.881  0.00  0.00    +0.000 NA
ATOM      3  N   UNL     1       2.956   5.988  17.737  0.00  0.00    +0.000 NA
ATOM      4  C   UNL     1       2.640   4.760  18.096  0.00  0.00    +0.000 A 
ATOM      5  N   UNL     1       1.420   4.144  18.093  0.00  0.00    +0.000 NA
ATOM      6  C   UNL     1       1.439   2.932  18.521  0.00  0.00    +0.000 A 
ATOM      7  C   UNL     1       2.571   2.135  19.008  0.00  0.00    +0.000 A 
ATOM      8  C   UNL     1       3.764   2.763  19.001  0.00  0.00    +0.000 A 
ATOM      9  N   UNL     1       3.798   4.096  18.517  0.00  0.00    +0.000 N 
ENDROOT
BRANCH   8  10
ATOM     10  N   UNL     1       4.912   2.145  19.466  0.00  0.00    +0.000 N 
ATOM     11  H   UNL     1       5.256   1.378  18.893  0.00  0.00    +0.000 HD
ATOM     12  H   UNL     1       5.653   2.788  19.755  0.00  0.00    +0.000 HD
ENDBRANCH   8  10
BRANCH   6  13
ATOM     13  O   UNL     1       0.299   2.232  18.564  0.00  0.00    +0.000 OA
ATOM     14  H   UNL     1      -0.063   2.311  19.466  0.00  0.00    +0.000 HD
ENDBRANCH   6  13
BRANCH   1  15
ATOM     15  S   UNL     1       6.498   4.673  18.499  0.00  0.00    +0.000 S 
BRANCH  15  16
ATOM     16  C   UNL     1       7.241   5.922  17.401  0.00  0.00    +0.000 C 
BRANCH  16  17
ATOM     17  C   UNL     1       7.878   7.020  18.258  0.00  0.00    +0.000 C 
BRANCH  17  19
ATOM     18  C   UNL     1       8.591   9.438  18.315  0.00  0.00    +0.000 C 
ATOM     19  C   UNL     1       7.708   8.405  17.629  0.00  0.00    +0.000 C 
ENDBRANCH  17  19
ENDBRANCH  16  17
ENDBRANCH  15  16
ENDBRANCH   1  15
TORSDOF 6
ENDMDL
MODEL 4
REMARK VINA RESULT:      -6.2      3.448      5.196
REMARK  Name = 
REMARK  7 active torsions:
REMARK  status: ('A' for Active; 'I' for Inactive)
REMARK    1  A    between atoms: C_1  and  C_2
REMARK    2  A    between atoms: C_2  and  C_3
REMARK    3  A    between atoms: C_3  and  C_4
REMARK    4  A    between atoms: C_4  and  S_5
REMARK    5  A    between atoms: S_5  and  C_6
REMARK    6  A    between atoms: C_11  and  O_12
REMARK    7  A    between atoms: C_14  and  N_15
REMARK                            x       y       z     vdW  Elec       q    Type
REMARK                         _______ _______ _______ _____ _____    ______ ____
ROOT
ATOM      1  C   UNL     1       4.272   4.755  17.569  0.00  0.00    +0.000 A 
ATOM      2  N   UNL     1       4.124   6.037  17.800  0.00  0.00    +0.000 NA
ATOM      3  N   UNL     1       3.155   6.180  18.762  0.00  0.00    +0.000 NA
ATOM      4  C   UNL     1       2.730   4.982  19.111  0.00  0.00    +0.000 A 
ATOM      5  N   UNL     1       1.758   4.635  20.009  0.00  0.00    +0.000 NA
ATOM      6  C   UNL     1       1.587   3.368  20.139  0.00  0.00    +0.000 A 
ATOM      7  C   UNL     1       2.282   2.262  19.470  0.00  0.00    +0.000 A 
ATOM      8  C   UNL     1       3.235   2.628  18.589  0.00  0.00    +0.000 A 
ATOM      9  N   UNL     1       3.447   4.017  18.395  0.00  0.00    +0.000 N 
ENDROOT
BRANCH   8  10
ATOM     10  N   UNL     1       3.995   1.690  17.911  0.00  0.00    +0.000 N 
ATOM     11  H   UNL     1       3.636   0.739  17.936  0.00  0.00    +0.000 HD
ATOM     12  H   UNL     1       4.291   1.979  16.976  0.00  0.00    +0.000 HD
ENDBRANCH   8  10
BRANCH   6  13
ATOM     13  O   UNL     1       0.663   2.914  20.993  0.00  0.00    +0.000 OA
ATOM     14  H   UNL     1       0.477   1.985  20.763  0.00  0.00    +0.000 HD
ENDBRANCH   6  13
BRANCH   1  15
ATOM     15  S   UNL     1       5.265   4.075  16.318  0.00  0.00    +0.000 S 
BRANCH  15  16
ATOM     16  C   UNL     1       6.761   5.106  16.445  0.00  0.00    +0.000 C 
BRANCH  16  17
ATOM     17  C   UNL     1       7.566   4.663  17.670  0.00  0.00    +0.000 C 
BRANCH  17  19
ATOM     18  C   UNL     1       7.765   7.154  18.012  0.00  0.00    +0.000 C 
ATOM     19  C   UNL     1       7.719   5.792  18.691  0.00  0.00    +0.000 C 
ENDBRANCH  17  19
ENDBRANCH  16  17
ENDBRANCH  15  16
ENDBRANCH   1  15
TORSDOF 6
ENDMDL
MODEL 5
REMARK VINA RESULT:      -6.2      3.209      5.480
REMARK  Name = 
REMARK  7 active torsions:
REMARK  status: ('A' for Active; 'I' for Inactive)
REMARK    1  A    between atoms: C_1  and  C_2
REMARK    2  A    between atoms: C_2  and  C_3
REMARK    3  A    between atoms: C_3  and  C_4
REMARK    4  A    between atoms: C_4  and  S_5
REMARK    5  A    between atoms: S_5  and  C_6
REMARK    6  A    between atoms: C_11  and  O_12
REMARK    7  A    between atoms: C_14  and  N_15
REMARK                            x       y       z     vdW  Elec       q    Type
REMARK                         _______ _______ _______ _____ _____    ______ ____
ROOT
ATOM      1  C   UNL     1       5.475   4.536  19.026  0.00  0.00    +0.000 A 
ATOM      2  N   UNL     1       6.456   5.124  19.667  0.00  0.00    +0.000 NA
ATOM      3  N   UNL     1       7.360   5.567  18.733  0.00  0.00    +0.000 NA
ATOM      4  C   UNL     1       6.914   5.252  17.534  0.00  0.00    +0.000 A 
ATOM      5  N   UNL     1       7.488   5.466  16.311  0.00  0.00    +0.000 NA
ATOM      6  C   UNL     1       6.787   5.049  15.318  0.00  0.00    +0.000 A 
ATOM      7  C   UNL     1       5.475   4.391  15.315  0.00  0.00    +0.000 A 
ATOM      8  C   UNL     1       4.929   4.190  16.532  0.00  0.00    +0.000 A 
ATOM      9  N   UNL     1       5.675   4.613  17.662  0.00  0.00    +0.000 N 
ENDROOT
BRANCH   8  10
ATOM     10  N   UNL     1       3.680   3.612  16.679  0.00  0.00    +0.000 N 
ATOM     11  H   UNL     1       3.629   2.852  17.354  0.00  0.00    +0.000 HD
ATOM     12  H   UNL     1       2.912   4.279  16.775  0.00  0.00    +0.000 HD
ENDBRANCH   8  10
BRANCH   6  13
ATOM     13  O   UNL     1       7.251   5.209  14.073  0.00  0.00    +0.000 OA
ATOM     14  H   UNL     1       6.991   4.424  13.557  0.00  0.00    +0.000 HD
ENDBRANCH   6  13
BRANCH   1  15
ATOM     15  S   UNL     1       4.171   3.671  19.777  0.00  0.00    +0.000 S 
BRANCH  15  16
ATOM     16  C   UNL     1       2.905   4.973  19.912  0.00  0.00    +0.000 C 
BRANCH  16  17
ATOM     17  C   UNL     1       1.606   4.350  20.431  0.00  0.00    +0.000 C 
BRANCH  17  19
ATOM     18  C   UNL     1       0.727   2.567  18.879  0.00  0.00    +0.000 C 
ATOM     19  C   UNL     1       1.535   2.850  20.138  0.00  0.00    +0.000 C 
ENDBRANCH  17  19
ENDBRANCH  16  17
ENDBRANCH  15  16
ENDBRANCH   1  15
TORSDOF 6
ENDMDL
MODEL 6
REMARK VINA RESULT:      -6.2      3.217      5.581
REMARK  Name = 
REMARK  7 active torsions:
REMARK  status: ('A' for Active; 'I' for Inactive)
REMARK    1  A    between atoms: C_1  and  C_2
REMARK    2  A    between atoms: C_2  and  C_3
REMARK    3  A    between atoms: C_3  and  C_4
REMARK    4  A    between atoms: C_4  and  S_5
REMARK    5  A    between atoms: S_5  and  C_6
REMARK    6  A    between atoms: C_11  and  O_12
REMARK    7  A    between atoms: C_14  and  N_15
REMARK                            x       y       z     vdW  Elec       q    Type
REMARK                         _______ _______ _______ _____ _____    ______ ____
ROOT
ATOM      1  C   UNL     1       5.542   4.781  19.061  0.00  0.00    +0.000 A 
ATOM      2  N   UNL     1       6.691   4.987  19.658  0.00  0.00    +0.000 NA
ATOM      3  N   UNL     1       7.670   4.985  18.695  0.00  0.00    +0.000 NA
ATOM      4  C   UNL     1       7.104   4.787  17.521  0.00  0.00    +0.000 A 
ATOM      5  N   UNL     1       7.683   4.682  16.287  0.00  0.00    +0.000 NA
ATOM      6  C   UNL     1       6.848   4.503  15.325  0.00  0.00    +0.000 A 
ATOM      7  C   UNL     1       5.385   4.401  15.370  0.00  0.00    +0.000 A 
ATOM      8  C   UNL     1       4.837   4.507  16.598  0.00  0.00    +0.000 A 
ATOM      9  N   UNL     1       5.718   4.684  17.695  0.00  0.00    +0.000 N 
ENDROOT
BRANCH   8  10
ATOM     10  N   UNL     1       3.466   4.465  16.786  0.00  0.00    +0.000 N 
ATOM     11  H   UNL     1       2.962   5.303  16.506  0.00  0.00    +0.000 HD
ATOM     12  H   UNL     1       3.019   3.606  16.461  0.00  0.00    +0.000 HD
ENDBRANCH   8  10
BRANCH   6  13
ATOM     13  O   UNL     1       7.304   4.389  14.073  0.00  0.00    +0.000 OA
ATOM     14  H   UNL     1       8.202   4.769  14.049  0.00  0.00    +0.000 HD
ENDBRANCH   6  13
BRANCH   1  15
ATOM     15  S   UNL     1       4.027   4.536  19.872  0.00  0.00    +0.000 S 
BRANCH  15  16
ATOM     16  C   UNL     1       3.938   2.718  19.928  0.00  0.00    +0.000 C 
BRANCH  16  17
ATOM     17  C   UNL     1       2.568   2.272  19.410  0.00  0.00    +0.000 C 
BRANCH  17  19
ATOM     18  C   UNL     1       1.489   2.596  21.667  0.00  0.00    +0.000 C 
ATOM     19  C   UNL     1       1.423   2.931  20.183  0.00  0.00    +0.000 C 
ENDBRANCH  17  19
ENDBRANCH  16  17
ENDBRANCH  15  16
ENDBRANCH   1  15
TORSDOF 6
ENDMDL
MODEL 7
REMARK VINA RESULT:      -6.2      2.558      4.611
REMARK  Name = 
REMARK  7 active torsions:
REMARK  status: ('A' for Active; 'I' for Inactive)
REMARK    1  A    between atoms: C_1  and  C_2
REMARK    2  A    between atoms: C_2  and  C_3
REMARK    3  A    between atoms: C_3  and  C_4
REMARK    4  A    between atoms: C_4  and  S_5
REMARK    5  A    between atoms: S_5  and  C_6
REMARK    6  A    between atoms: C_11  and  O_12
REMARK    7  A    between atoms: C_14  and  N_15
REMARK                            x       y       z     vdW  Elec       q    Type
REMARK                         _______ _______ _______ _____ _____    ______ ____
ROOT
ATOM      1  C   UNL     1       4.977   4.318  16.495  0.00  0.00    +0.000 A 
ATOM      2  N   UNL     1       5.090   4.790  15.277  0.00  0.00    +0.000 NA
ATOM      3  N   UNL     1       6.045   5.776  15.297  0.00  0.00    +0.000 NA
ATOM      4  C   UNL     1       6.508   5.888  16.526  0.00  0.00    +0.000 A 
ATOM      5  N   UNL     1       7.444   6.751  17.024  0.00  0.00    +0.000 NA
ATOM      6  C   UNL     1       7.693   6.597  18.275  0.00  0.00    +0.000 A 
ATOM      7  C   UNL     1       7.122   5.636  19.226  0.00  0.00    +0.000 A 
ATOM      8  C   UNL     1       6.201   4.795  18.712  0.00  0.00    +0.000 A 
ATOM      9  N   UNL     1       5.876   4.940  17.339  0.00  0.00    +0.000 N 
ENDROOT
BRANCH   8  10
ATOM     10  N   UNL     1       5.605   3.813  19.484  0.00  0.00    +0.000 N 
ATOM     11  H   UNL     1       5.446   4.060  20.458  0.00  0.00    +0.000 HD
ATOM     12  H   UNL     1       4.793   3.367  19.052  0.00  0.00    +0.000 HD
ENDBRANCH   8  10
BRANCH   6  13
ATOM     13  O   UNL     1       8.595   7.387  18.868  0.00  0.00    +0.000 OA
ATOM     14  H   UNL     1       9.481   7.073  18.608  0.00  0.00    +0.000 HD
ENDBRANCH   6  13
BRANCH   1  15
ATOM     15  S   UNL     1       3.783   3.169  17.012  0.00  0.00    +0.000 S 
BRANCH  15  16
ATOM     16  C   UNL     1       2.463   4.267  17.618  0.00  0.00    +0.000 C 
BRANCH  16  17
ATOM     17  C   UNL     1       1.404   3.423  18.331  0.00  0.00    +0.000 C 
BRANCH  17  19
ATOM     18  C   UNL     1       1.329   2.817  20.778  0.00  0.00    +0.000 C 
ATOM     19  C   UNL     1       2.011   2.563  19.441  0.00  0.00    +0.000 C 
ENDBRANCH  17  19
ENDBRANCH  16  17
ENDBRANCH  15  16
ENDBRANCH   1  15
TORSDOF 6
ENDMDL
MODEL 8
REMARK VINA RESULT:      -6.1      3.193      4.272
REMARK  Name = 
REMARK  7 active torsions:
REMARK  status: ('A' for Active; 'I' for Inactive)
REMARK    1  A    between atoms: C_1  and  C_2
REMARK    2  A    between atoms: C_2  and  C_3
REMARK    3  A    between atoms: C_3  and  C_4
REMARK    4  A    between atoms: C_4  and  S_5
REMARK    5  A    between atoms: S_5  and  C_6
REMARK    6  A    between atoms: C_11  and  O_12
REMARK    7  A    between atoms: C_14  and  N_15
REMARK                            x       y       z     vdW  Elec       q    Type
REMARK                         _______ _______ _______ _____ _____    ______ ____
ROOT
ATOM      1  C   UNL     1       4.358   5.382  18.394  0.00  0.00    +0.000 A 
ATOM      2  N   UNL     1       3.710   6.509  18.221  0.00  0.00    +0.000 NA
ATOM      3  N   UNL     1       2.512   6.409  18.885  0.00  0.00    +0.000 NA
ATOM      4  C   UNL     1       2.449   5.225  19.461  0.00  0.00    +0.000 A 
ATOM      5  N   UNL     1       1.439   4.675  20.201  0.00  0.00    +0.000 NA
ATOM      6  C   UNL     1       1.690   3.494  20.642  0.00  0.00    +0.000 A 
ATOM      7  C   UNL     1       2.893   2.672  20.467  0.00  0.00    +0.000 A 
ATOM      8  C   UNL     1       3.874   3.235  19.734  0.00  0.00    +0.000 A 
ATOM      9  N   UNL     1       3.636   4.530  19.206  0.00  0.00    +0.000 N 
ENDROOT
BRANCH   8  10
ATOM     10  N   UNL     1       5.079   2.588  19.516  0.00  0.00    +0.000 N 
ATOM     11  H   UNL     1       5.529   2.793  18.627  0.00  0.00    +0.000 HD
ATOM     12  H   UNL     1       5.727   2.622  20.305  0.00  0.00    +0.000 HD
ENDBRANCH   8  10
BRANCH   6  13
ATOM     13  O   UNL     1       0.772   2.861  21.381  0.00  0.00    +0.000 OA
ATOM     14  H   UNL     1       0.368   2.171  20.824  0.00  0.00    +0.000 HD
ENDBRANCH   6  13
BRANCH   1  15
ATOM     15  S   UNL     1       5.850   4.961  17.614  0.00  0.00    +0.000 S 
BRANCH  15  16
ATOM     16  C   UNL     1       5.250   4.061  16.148  0.00  0.00    +0.000 C 
BRANCH  16  17
ATOM     17  C   UNL     1       5.561   4.886  14.897  0.00  0.00    +0.000 C 
BRANCH  17  19
ATOM     18  C   UNL     1       5.777   3.548  12.771  0.00  0.00    +0.000 C 
ATOM     19  C   UNL     1       6.519   4.155  13.954  0.00  0.00    +0.000 C 
ENDBRANCH  17  19
ENDBRANCH  16  17
ENDBRANCH  15  16
ENDBRANCH   1  15
TORSDOF 6
ENDMDL
MODEL 9
REMARK VINA RESULT:      -6.1      3.996      5.401
REMARK  Name = 
REMARK  7 active torsions:
REMARK  status: ('A' for Active; 'I' for Inactive)
REMARK    1  A    between atoms: C_1  and  C_2
REMARK    2  A    between atoms: C_2  and  C_3
REMARK    3  A    between atoms: C_3  and  C_4
REMARK    4  A    between atoms: C_4  and  S_5
REMARK    5  A    between atoms: S_5  and  C_6
REMARK    6  A    between atoms: C_11  and  O_12
REMARK    7  A    between atoms: C_14  and  N_15
REMARK                            x       y       z     vdW  Elec       q    Type
REMARK                         _______ _______ _______ _____ _____    ______ ____
ROOT
ATOM      1  C   UNL     1       4.012   5.316  18.600  0.00  0.00    +0.000 A 
ATOM      2  N   UNL     1       3.340   6.440  18.663  0.00  0.00    +0.000 NA
ATOM      3  N   UNL     1       2.360   6.288  19.613  0.00  0.00    +0.000 NA
ATOM      4  C   UNL     1       2.453   5.077  20.123  0.00  0.00    +0.000 A 
ATOM      5  N   UNL     1       1.675   4.475  21.073  0.00  0.00    +0.000 NA
ATOM      6  C   UNL     1       2.036   3.277  21.371  0.00  0.00    +0.000 A 
ATOM      7  C   UNL     1       3.151   2.483  20.842  0.00  0.00    +0.000 A 
ATOM      8  C   UNL     1       3.903   3.097  19.906  0.00  0.00    +0.000 A 
ATOM      9  N   UNL     1       3.532   4.413  19.528  0.00  0.00    +0.000 N 
ENDROOT
BRANCH   8  10
ATOM     10  N   UNL     1       5.009   2.481  19.345  0.00  0.00    +0.000 N 
ATOM     11  H   UNL     1       4.887   1.500  19.108  0.00  0.00    +0.000 HD
ATOM     12  H   UNL     1       5.461   3.016  18.600  0.00  0.00    +0.000 HD
ENDBRANCH   8  10
BRANCH   6  13
ATOM     13  O   UNL     1       1.348   2.593  22.291  0.00  0.00    +0.000 OA
ATOM     14  H   UNL     1       1.991   2.180  22.896  0.00  0.00    +0.000 HD
ENDBRANCH   6  13
BRANCH   1  15
ATOM     15  S   UNL     1       5.247   4.957  17.433  0.00  0.00    +0.000 S 
BRANCH  15  16
ATOM     16  C   UNL     1       5.802   6.629  16.969  0.00  0.00    +0.000 C 
BRANCH  16  17
ATOM     17  C   UNL     1       7.332   6.660  16.962  0.00  0.00    +0.000 C 
BRANCH  17  19
ATOM     18  C   UNL     1       8.168   8.829  17.939  0.00  0.00    +0.000 C 
ATOM     19  C   UNL     1       7.895   7.355  18.204  0.00  0.00    +0.000 C 
ENDBRANCH  17  19
ENDBRANCH  16  17
ENDBRANCH  15  16
ENDBRANCH   1  15
TORSDOF 6
ENDMDL
