MODEL 1
REMARK VINA RESULT:      -7.0      0.000      0.000
REMARK  Name = 
REMARK  6 active torsions:
REMARK  status: ('A' for Active; 'I' for Inactive)
REMARK    1  A    between atoms: O_1  and  C_2
REMARK    2  A    between atoms: C_2  and  C_3
REMARK    3  A    between atoms: C_3  and  C_4
REMARK    4  A    between atoms: N_6  and  C_7
REMARK    5  A    between atoms: C_7  and  C_8
REMARK    6  A    between atoms: N_20  and  C_21
REMARK                            x       y       z     vdW  Elec       q    Type
REMARK                         _______ _______ _______ _____ _____    ______ ____
ROOT
ATOM      1  C   UNL     1       3.569   4.152  18.375  0.00  0.00    +0.000 C 
ATOM      2  C   UNL     1       2.380   5.100  18.053  0.00  0.00    +0.000 C 
ATOM      3  N   UNL     1       2.607   6.515  18.458  0.00  0.00    +0.000 NA
ATOM      4  C   UNL     1       3.923   6.958  17.937  0.00  0.00    +0.000 C 
ATOM      5  C   UNL     1       5.101   5.952  18.103  0.00  0.00    +0.000 C 
ATOM      6  N   UNL     1       4.812   4.556  17.655  0.00  0.00    +0.000 NA
ENDROOT
BRANCH   6   7
ATOM      7  C   UNL     1       4.823   4.465  16.173  0.00  0.00    +0.000 C 
ATOM      8  C   UNL     1       5.467   5.725  15.552  0.00  0.00    +0.000 C 
ATOM      9  C   UNL     1       5.897   5.313  14.155  0.00  0.00    +0.000 C 
ATOM     10  C   UNL     1       6.378   3.891  14.318  0.00  0.00    +0.000 C 
ATOM     11  C   UNL     1       5.607   3.318  15.503  0.00  0.00    +0.000 C 
ENDBRANCH   6   7
BRANCH   1  12
ATOM     12  C   UNL     1       3.148   2.674  18.329  0.00  0.00    +0.000 C 
BRANCH  12  13
ATOM     13  C   UNL     1       3.994   1.797  19.249  0.00  0.00    +0.000 C 
BRANCH  13  14
ATOM     14  O   UNL     1       5.089   2.566  19.744  0.00  0.00    +0.000 OA
ATOM     15  H   UNL     1       4.837   3.498  19.646  0.00  0.00    +0.000 HD
ENDBRANCH  13  14
ENDBRANCH  12  13
ENDBRANCH   1  12
BRANCH   3  16
ATOM     16  C   UNL     1       2.552   6.693  19.929  0.00  0.00    +0.000 C 
BRANCH  16  17
ATOM     17  C   UNL     1       1.663   7.825  20.335  0.00  0.00    +0.000 A 
ATOM     18  N   UNL     1       1.291   8.847  19.588  0.00  0.00    +0.000 NA
ATOM     19  C   UNL     1       0.607   9.689  20.428  0.00  0.00    +0.000 A 
ATOM     20  C   UNL     1       0.044  10.944  20.164  0.00  0.00    +0.000 A 
ATOM     21  C   UNL     1      -0.576  11.612  21.219  0.00  0.00    +0.000 A 
ATOM     22  F   UNL     1      -1.107  12.824  21.000  0.00  0.00    +0.000 F 
ATOM     23  C   UNL     1      -0.655  11.061  22.498  0.00  0.00    +0.000 A 
ATOM     24  C   UNL     1      -0.100   9.809  22.777  0.00  0.00    +0.000 A 
ATOM     25  C   UNL     1       0.528   9.157  21.712  0.00  0.00    +0.000 A 
ATOM     26  N   UNL     1       1.196   7.962  21.621  0.00  0.00    +0.000 N 
ATOM     27  H   UNL     1       1.395   7.326  22.379  0.00  0.00    +0.000 HD
ENDBRANCH  16  17
ENDBRANCH   3  16
TORSDOF 6
ENDMDL
MODEL 2
REMARK VINA RESULT:      -7.0      0.620      1.318
REMARK  Name = 
REMARK  6 active torsions:
REMARK  status: ('A' for Active; 'I' for Inactive)
REMARK    1  A    between atoms: O_1  and  C_2
REMARK    2  A    between atoms: C_2  and  C_3
REMARK    3  A    between atoms: C_3  and  C_4
REMARK    4  A    between atoms: N_6  and  C_7
REMARK    5  A    between atoms: C_7  and  C_8
REMARK    6  A    between atoms: N_20  and  C_21
REMARK                            x       y       z     vdW  Elec       q    Type
REMARK                         _______ _______ _______ _____ _____    ______ ____
ROOT
ATOM      1  C   UNL     1       3.196   4.036  18.253  0.00  0.00    +0.000 C 
ATOM      2  C   UNL     1       2.155   5.142  17.925  0.00  0.00    +0.000 C 
ATOM      3  N   UNL     1       2.455   6.459  18.552  0.00  0.00    +0.000 NA
ATOM      4  C   UNL     1       3.865   6.818  18.264  0.00  0.00    +0.000 C 
ATOM      5  C   UNL     1       4.912   5.676  18.430  0.00  0.00    +0.000 C 
ATOM      6  N   UNL     1       4.558   4.389  17.757  0.00  0.00    +0.000 NA
ENDROOT
BRANCH   6   7
ATOM      7  C   UNL     1       4.764   4.488  16.289  0.00  0.00    +0.000 C 
ATOM      8  C   UNL     1       5.642   5.711  15.941  0.00  0.00    +0.000 C 
ATOM      9  C   UNL     1       6.206   5.424  14.560  0.00  0.00    +0.000 C 
ATOM     10  C   UNL     1       6.477   3.938  14.570  0.00  0.00    +0.000 C 
ATOM     11  C   UNL     1       5.482   3.335  15.558  0.00  0.00    +0.000 C 
ENDBRANCH   6   7
BRANCH   1  12
ATOM     12  C   UNL     1       2.651   2.631  17.947  0.00  0.00    +0.000 C 
BRANCH  12  13
ATOM     13  C   UNL     1       3.577   1.524  18.446  0.00  0.00    +0.000 C 
BRANCH  13  14
ATOM     14  O   UNL     1       4.525   2.085  19.351  0.00  0.00    +0.000 OA
ATOM     15  H   UNL     1       4.056   2.774  19.849  0.00  0.00    +0.000 HD
ENDBRANCH  13  14
ENDBRANCH  12  13
ENDBRANCH   1  12
BRANCH   3  16
ATOM     16  C   UNL     1       2.216   6.452  20.014  0.00  0.00    +0.000 C 
BRANCH  16  17
ATOM     17  C   UNL     1       1.608   7.729  20.501  0.00  0.00    +0.000 A 
ATOM     18  N   UNL     1       1.183   7.989  21.722  0.00  0.00    +0.000 NA
ATOM     19  C   UNL     1       0.581   9.221  21.650  0.00  0.00    +0.000 A 
ATOM     20  C   UNL     1      -0.085   9.945  22.646  0.00  0.00    +0.000 A 
ATOM     21  C   UNL     1      -0.642  11.173  22.294  0.00  0.00    +0.000 A 
ATOM     22  F   UNL     1      -1.302  11.879  23.223  0.00  0.00    +0.000 F 
ATOM     23  C   UNL     1      -0.539  11.687  21.002  0.00  0.00    +0.000 A 
ATOM     24  C   UNL     1       0.123  10.977  19.996  0.00  0.00    +0.000 A 
ATOM     25  C   UNL     1       0.667   9.742  20.362  0.00  0.00    +0.000 A 
ATOM     26  N   UNL     1       1.338   8.779  19.654  0.00  0.00    +0.000 N 
ATOM     27  H   UNL     1       1.531   8.786  18.663  0.00  0.00    +0.000 HD
ENDBRANCH  16  17
ENDBRANCH   3  16
TORSDOF 6
ENDMDL
MODEL 3
REMARK VINA RESULT:      -6.9      4.175      9.178
REMARK  Name = 
REMARK  6 active torsions:
REMARK  status: ('A' for Active; 'I' for Inactive)
REMARK    1  A    between atoms: O_1  and  C_2
REMARK    2  A    between atoms: C_2  and  C_3
REMARK    3  A    between atoms: C_3  and  C_4
REMARK    4  A    between atoms: N_6  and  C_7
REMARK    5  A    between atoms: C_7  and  C_8
REMARK    6  A    between atoms: N_20  and  C_21
REMARK                            x       y       z     vdW  Elec       q    Type
REMARK                         _______ _______ _______ _____ _____    ______ ____
ROOT
ATOM      1  C   UNL     1       0.893  11.292  20.679  0.00  0.00    +0.000 C 
ATOM      2  C   UNL     1       0.372  10.125  19.795  0.00  0.00    +0.000 C 
ATOM      3  N   UNL     1       0.444   8.790  20.453  0.00  0.00    +0.000 NA
ATOM      4  C   UNL     1      -0.173   8.884  21.798  0.00  0.00    +0.000 C 
ATOM      5  C   UNL     1       0.210  10.136  22.643  0.00  0.00    +0.000 C 
ATOM      6  N   UNL     1       0.092  11.443  21.929  0.00  0.00    +0.000 NA
ENDROOT
BRANCH   6   7
ATOM      7  C   UNL     1      -1.330  11.850  21.804  0.00  0.00    +0.000 C 
ATOM      8  C   UNL     1      -2.073  11.663  23.145  0.00  0.00    +0.000 C 
ATOM      9  C   UNL     1      -3.294  12.562  23.061  0.00  0.00    +0.000 C 
ATOM     10  C   UNL     1      -2.805  13.785  22.322  0.00  0.00    +0.000 C 
ATOM     11  C   UNL     1      -1.658  13.311  21.435  0.00  0.00    +0.000 C 
ENDBRANCH   6   7
BRANCH   1  12
ATOM     12  C   UNL     1       1.187  12.551  19.845  0.00  0.00    +0.000 C 
BRANCH  12  13
ATOM     13  C   UNL     1       2.286  13.415  20.460  0.00  0.00    +0.000 C 
BRANCH  13  14
ATOM     14  O   UNL     1       1.866  13.848  21.752  0.00  0.00    +0.000 OA
ATOM     15  H   UNL     1       0.904  13.721  21.786  0.00  0.00    +0.000 HD
ENDBRANCH  13  14
ENDBRANCH  12  13
ENDBRANCH   1  12
BRANCH   3  16
ATOM     16  C   UNL     1       1.836   8.293  20.560  0.00  0.00    +0.000 C 
BRANCH  16  17
ATOM     17  C   UNL     1       1.968   6.866  20.129  0.00  0.00    +0.000 A 
ATOM     18  N   UNL     1       2.383   6.429  18.956  0.00  0.00    +0.000 NA
ATOM     19  C   UNL     1       2.195   5.069  18.981  0.00  0.00    +0.000 A 
ATOM     20  C   UNL     1       2.418   4.122  17.974  0.00  0.00    +0.000 A 
ATOM     21  C   UNL     1       2.110   2.792  18.255  0.00  0.00    +0.000 A 
ATOM     22  F   UNL     1       2.295   1.866  17.302  0.00  0.00    +0.000 F 
ATOM     23  C   UNL     1       1.608   2.395  19.494  0.00  0.00    +0.000 A 
ATOM     24  C   UNL     1       1.381   3.328  20.510  0.00  0.00    +0.000 A 
ATOM     25  C   UNL     1       1.685   4.660  20.209  0.00  0.00    +0.000 A 
ATOM     26  N   UNL     1       1.563   5.822  20.927  0.00  0.00    +0.000 N 
ATOM     27  H   UNL     1       1.165   5.920  21.850  0.00  0.00    +0.000 HD
ENDBRANCH  16  17
ENDBRANCH   3  16
TORSDOF 6
ENDMDL
MODEL 4
REMARK VINA RESULT:      -6.7      3.858      8.255
REMARK  Name = 
REMARK  6 active torsions:
REMARK  status: ('A' for Active; 'I' for Inactive)
REMARK    1  A    between atoms: O_1  and  C_2
REMARK    2  A    between atoms: C_2  and  C_3
REMARK    3  A    between atoms: C_3  and  C_4
REMARK    4  A    between atoms: N_6  and  C_7
REMARK    5  A    between atoms: C_7  and  C_8
REMARK    6  A    between atoms: N_20  and  C_21
REMARK                            x       y       z     vdW  Elec       q    Type
REMARK                         _______ _______ _______ _____ _____    ______ ____
ROOT
ATOM      1  C   UNL     1       3.746   5.226  19.147  0.00  0.00    +0.000 C 
ATOM      2  C   UNL     1       5.201   5.625  19.517  0.00  0.00    +0.000 C 
ATOM      3  N   UNL     1       6.126   5.690  18.351  0.00  0.00    +0.000 NA
ATOM      4  C   UNL     1       5.500   6.512  17.287  0.00  0.00    +0.000 C 
ATOM      5  C   UNL     1       3.991   6.241  17.008  0.00  0.00    +0.000 C 
ATOM      6  N   UNL     1       3.118   6.213  18.220  0.00  0.00    +0.000 NA
ENDROOT
BRANCH   6   7
ATOM      7  C   UNL     1       2.871   7.587  18.725  0.00  0.00    +0.000 C 
ATOM      8  C   UNL     1       2.275   8.480  17.614  0.00  0.00    +0.000 C 
ATOM      9  C   UNL     1       1.597   9.630  18.338  0.00  0.00    +0.000 C 
ATOM     10  C   UNL     1       1.001   8.993  19.571  0.00  0.00    +0.000 C 
ATOM     11  C   UNL     1       1.879   7.787  19.890  0.00  0.00    +0.000 C 
ENDBRANCH   6   7
BRANCH   1  12
ATOM     12  C   UNL     1       2.948   4.774  20.381  0.00  0.00    +0.000 C 
BRANCH  12  13
ATOM     13  C   UNL     1       1.982   3.634  20.065  0.00  0.00    +0.000 C 
BRANCH  13  14
ATOM     14  O   UNL     1       1.208   3.985  18.920  0.00  0.00    +0.000 OA
ATOM     15  H   UNL     1       1.805   4.459  18.320  0.00  0.00    +0.000 HD
ENDBRANCH  13  14
ENDBRANCH  12  13
ENDBRANCH   1  12
BRANCH   3  16
ATOM     16  C   UNL     1       6.464   4.345  17.828  0.00  0.00    +0.000 C 
BRANCH  16  17
ATOM     17  C   UNL     1       6.687   4.346  16.349  0.00  0.00    +0.000 A 
ATOM     18  N   UNL     1       7.461   5.169  15.665  0.00  0.00    +0.000 NA
ATOM     19  C   UNL     1       7.231   4.878  14.343  0.00  0.00    +0.000 A 
ATOM     20  C   UNL     1       7.751   5.490  13.196  0.00  0.00    +0.000 A 
ATOM     21  C   UNL     1       7.323   5.015  11.957  0.00  0.00    +0.000 A 
ATOM     22  F   UNL     1       7.789   5.595  10.841  0.00  0.00    +0.000 F 
ATOM     23  C   UNL     1       6.418   3.961  11.843  0.00  0.00    +0.000 A 
ATOM     24  C   UNL     1       5.891   3.339  12.978  0.00  0.00    +0.000 A 
ATOM     25  C   UNL     1       6.322   3.833  14.214  0.00  0.00    +0.000 A 
ATOM     26  N   UNL     1       6.002   3.503  15.506  0.00  0.00    +0.000 N 
ATOM     27  H   UNL     1       5.319   2.821  15.801  0.00  0.00    +0.000 HD
ENDBRANCH  16  17
ENDBRANCH   3  16
TORSDOF 6
ENDMDL
MODEL 5
REMARK VINA RESULT:      -6.6      3.939      9.323
REMARK  Name = 
REMARK  6 active torsions:
REMARK  status: ('A' for Active; 'I' for Inactive)
REMARK    1  A    between atoms: O_1  and  C_2
REMARK    2  A    between atoms: C_2  and  C_3
REMARK    3  A    between atoms: C_3  and  C_4
REMARK    4  A    between atoms: N_6  and  C_7
REMARK    5  A    between atoms: C_7  and  C_8
REMARK    6  A    between atoms: N_20  and  C_21
REMARK                            x       y       z     vdW  Elec       q    Type
REMARK                         _______ _______ _______ _____ _____    ______ ____
ROOT
ATOM      1  C   UNL     1       0.732  11.146  20.916  0.00  0.00    +0.000 C 
ATOM      2  C   UNL     1       0.214   9.918  20.118  0.00  0.00    +0.000 C 
ATOM      3  N   UNL     1       0.204   8.649  20.898  0.00  0.00    +0.000 NA
ATOM      4  C   UNL     1      -0.474   8.888  22.194  0.00  0.00    +0.000 C 
ATOM      5  C   UNL     1      -0.089  10.200  22.940  0.00  0.00    +0.000 C 
ATOM      6  N   UNL     1      -0.123  11.438  22.104  0.00  0.00    +0.000 NA
ENDROOT
BRANCH   6   7
ATOM      7  C   UNL     1      -1.522  11.876  21.868  0.00  0.00    +0.000 C 
ATOM      8  C   UNL     1      -2.338  11.833  23.178  0.00  0.00    +0.000 C 
ATOM      9  C   UNL     1      -3.520  12.759  22.950  0.00  0.00    +0.000 C 
ATOM     10  C   UNL     1      -2.951  13.895  22.134  0.00  0.00    +0.000 C 
ATOM     11  C   UNL     1      -1.778  13.309  21.355  0.00  0.00    +0.000 C 
ENDBRANCH   6   7
BRANCH   1  12
ATOM     12  C   UNL     1       1.112  12.311  19.987  0.00  0.00    +0.000 C 
BRANCH  12  13
ATOM     13  C   UNL     1       2.183  13.215  20.594  0.00  0.00    +0.000 C 
BRANCH  13  14
ATOM     14  O   UNL     1       1.664  13.820  21.776  0.00  0.00    +0.000 OA
ATOM     15  H   UNL     1       1.190  13.122  22.257  0.00  0.00    +0.000 HD
ENDBRANCH  13  14
ENDBRANCH  12  13
ENDBRANCH   1  12
BRANCH   3  16
ATOM     16  C   UNL     1       1.570   8.120  21.123  0.00  0.00    +0.000 C 
BRANCH  16  17
ATOM     17  C   UNL     1       1.850   6.894  20.313  0.00  0.00    +0.000 A 
ATOM     18  N   UNL     1       1.569   5.647  20.640  0.00  0.00    +0.000 NA
ATOM     19  C   UNL     1       2.139   4.871  19.661  0.00  0.00    +0.000 A 
ATOM     20  C   UNL     1       2.189   3.476  19.550  0.00  0.00    +0.000 A 
ATOM     21  C   UNL     1       2.868   2.937  18.459  0.00  0.00    +0.000 A 
ATOM     22  F   UNL     1       2.949   1.604  18.337  0.00  0.00    +0.000 F 
ATOM     23  C   UNL     1       3.472   3.741  17.493  0.00  0.00    +0.000 A 
ATOM     24  C   UNL     1       3.430   5.135  17.589  0.00  0.00    +0.000 A 
ATOM     25  C   UNL     1       2.755   5.661  18.695  0.00  0.00    +0.000 A 
ATOM     26  N   UNL     1       2.543   6.945  19.126  0.00  0.00    +0.000 N 
ATOM     27  H   UNL     1       2.903   7.789  18.704  0.00  0.00    +0.000 HD
ENDBRANCH  16  17
ENDBRANCH   3  16
TORSDOF 6
ENDMDL
MODEL 6
REMARK VINA RESULT:      -6.6      4.146      9.162
REMARK  Name = 
REMARK  6 active torsions:
REMARK  status: ('A' for Active; 'I' for Inactive)
REMARK    1  A    between atoms: O_1  and  C_2
REMARK    2  A    between atoms: C_2  and  C_3
REMARK    3  A    between atoms: C_3  and  C_4
REMARK    4  A    between atoms: N_6  and  C_7
REMARK    5  A    between atoms: C_7  and  C_8
REMARK    6  A    between atoms: N_20  and  C_21
REMARK                            x       y       z     vdW  Elec       q    Type
REMARK                         _______ _______ _______ _____ _____    ______ ____
ROOT
ATOM      1  C   UNL     1      -1.470  10.663  18.218  0.00  0.00    +0.000 C 
ATOM      2  C   UNL     1      -0.723   9.775  19.251  0.00  0.00    +0.000 C 
ATOM      3  N   UNL     1       0.674  10.211  19.527  0.00  0.00    +0.000 NA
ATOM      4  C   UNL     1       0.672  11.662  19.830  0.00  0.00    +0.000 C 
ATOM      5  C   UNL     1      -0.203  12.557  18.902  0.00  0.00    +0.000 C 
ATOM      6  N   UNL     1      -1.600  12.073  18.688  0.00  0.00    +0.000 NA
ENDROOT
BRANCH   6   7
ATOM      7  C   UNL     1      -2.439  12.337  19.884  0.00  0.00    +0.000 C 
ATOM      8  C   UNL     1      -2.079  13.700  20.515  0.00  0.00    +0.000 C 
ATOM      9  C   UNL     1      -3.287  14.092  21.348  0.00  0.00    +0.000 C 
ATOM     10  C   UNL     1      -4.469  13.619  20.536  0.00  0.00    +0.000 C 
ATOM     11  C   UNL     1      -3.969  12.434  19.715  0.00  0.00    +0.000 C 
ENDBRANCH   6   7
BRANCH   1  12
ATOM     12  C   UNL     1      -2.720   9.962  17.661  0.00  0.00    +0.000 C 
BRANCH  12  13
ATOM     13  C   UNL     1      -2.952  10.268  16.183  0.00  0.00    +0.000 C 
BRANCH  13  14
ATOM     14  O   UNL     1      -2.426  11.561  15.890  0.00  0.00    +0.000 OA
ATOM     15  H   UNL     1      -2.363  11.619  14.923  0.00  0.00    +0.000 HD
ENDBRANCH  13  14
ENDBRANCH  12  13
ENDBRANCH   1  12
BRANCH   3  16
ATOM     16  C   UNL     1       1.585   9.925  18.393  0.00  0.00    +0.000 C 
BRANCH  16  17
ATOM     17  C   UNL     1       2.150   8.541  18.448  0.00  0.00    +0.000 A 
ATOM     18  N   UNL     1       2.043   7.682  19.443  0.00  0.00    +0.000 NA
ATOM     19  C   UNL     1       2.837   6.617  19.098  0.00  0.00    +0.000 A 
ATOM     20  C   UNL     1       3.128   5.453  19.821  0.00  0.00    +0.000 A 
ATOM     21  C   UNL     1       4.003   4.533  19.246  0.00  0.00    +0.000 A 
ATOM     22  F   UNL     1       4.315   3.419  19.924  0.00  0.00    +0.000 F 
ATOM     23  C   UNL     1       4.570   4.739  17.989  0.00  0.00    +0.000 A 
ATOM     24  C   UNL     1       4.289   5.894  17.253  0.00  0.00    +0.000 A 
ATOM     25  C   UNL     1       3.418   6.813  17.849  0.00  0.00    +0.000 A 
ATOM     26  N   UNL     1       2.952   8.040  17.450  0.00  0.00    +0.000 N 
ATOM     27  H   UNL     1       3.213   8.539  16.613  0.00  0.00    +0.000 HD
ENDBRANCH  16  17
ENDBRANCH   3  16
TORSDOF 6
ENDMDL
MODEL 7
REMARK VINA RESULT:      -6.6      4.252      9.330
REMARK  Name = 
REMARK  6 active torsions:
REMARK  status: ('A' for Active; 'I' for Inactive)
REMARK    1  A    between atoms: O_1  and  C_2
REMARK    2  A    between atoms: C_2  and  C_3
REMARK    3  A    between atoms: C_3  and  C_4
REMARK    4  A    between atoms: N_6  and  C_7
REMARK    5  A    between atoms: C_7  and  C_8
REMARK    6  A    between atoms: N_20  and  C_21
REMARK                            x       y       z     vdW  Elec       q    Type
REMARK                         _______ _______ _______ _____ _____    ______ ____
ROOT
ATOM      1  C   UNL     1       0.581  11.531  20.947  0.00  0.00    +0.000 C 
ATOM      2  C   UNL     1       0.122  10.381  20.008  0.00  0.00    +0.000 C 
ATOM      3  N   UNL     1       0.239   9.024  20.612  0.00  0.00    +0.000 NA
ATOM      4  C   UNL     1      -0.401   9.038  21.949  0.00  0.00    +0.000 C 
ATOM      5  C   UNL     1      -0.084  10.268  22.851  0.00  0.00    +0.000 C 
ATOM      6  N   UNL     1      -0.244  11.598  22.188  0.00  0.00    +0.000 NA
ENDROOT
BRANCH   6   7
ATOM      7  C   UNL     1      -1.680  11.951  22.056  0.00  0.00    +0.000 C 
ATOM      8  C   UNL     1      -2.430  11.700  23.383  0.00  0.00    +0.000 C 
ATOM      9  C   UNL     1      -3.685  12.552  23.307  0.00  0.00    +0.000 C 
ATOM     10  C   UNL     1      -3.237  13.813  22.606  0.00  0.00    +0.000 C 
ATOM     11  C   UNL     1      -2.062  13.408  21.721  0.00  0.00    +0.000 C 
ENDBRANCH   6   7
BRANCH   1  12
ATOM     12  C   UNL     1       0.835  12.834  20.170  0.00  0.00    +0.000 C 
BRANCH  12  13
ATOM     13  C   UNL     1       0.322  12.766  18.734  0.00  0.00    +0.000 C 
BRANCH  13  14
ATOM     14  O   UNL     1      -0.644  13.796  18.537  0.00  0.00    +0.000 OA
ATOM     15  H   UNL     1      -1.324  13.428  17.951  0.00  0.00    +0.000 HD
ENDBRANCH  13  14
ENDBRANCH  12  13
ENDBRANCH   1  12
BRANCH   3  16
ATOM     16  C   UNL     1       1.648   8.579  20.723  0.00  0.00    +0.000 C 
BRANCH  16  17
ATOM     17  C   UNL     1       1.843   7.174  20.249  0.00  0.00    +0.000 A 
ATOM     18  N   UNL     1       2.230   6.790  19.047  0.00  0.00    +0.000 NA
ATOM     19  C   UNL     1       2.123   5.422  19.044  0.00  0.00    +0.000 A 
ATOM     20  C   UNL     1       2.355   4.514  18.004  0.00  0.00    +0.000 A 
ATOM     21  C   UNL     1       2.137   3.162  18.261  0.00  0.00    +0.000 A 
ATOM     22  F   UNL     1       2.333   2.272  17.278  0.00  0.00    +0.000 F 
ATOM     23  C   UNL     1       1.714   2.706  19.510  0.00  0.00    +0.000 A 
ATOM     24  C   UNL     1       1.479   3.599  20.559  0.00  0.00    +0.000 A 
ATOM     25  C   UNL     1       1.691   4.953  20.282  0.00  0.00    +0.000 A 
ATOM     26  N   UNL     1       1.535   6.089  21.035  0.00  0.00    +0.000 N 
ATOM     27  H   UNL     1       1.173   6.141  21.976  0.00  0.00    +0.000 HD
ENDBRANCH  16  17
ENDBRANCH   3  16
TORSDOF 6
ENDMDL
MODEL 8
REMARK VINA RESULT:      -6.6      2.365      3.238
REMARK  Name = 
REMARK  6 active torsions:
REMARK  status: ('A' for Active; 'I' for Inactive)
REMARK    1  A    between atoms: O_1  and  C_2
REMARK    2  A    between atoms: C_2  and  C_3
REMARK    3  A    between atoms: C_3  and  C_4
REMARK    4  A    between atoms: N_6  and  C_7
REMARK    5  A    between atoms: C_7  and  C_8
REMARK    6  A    between atoms: N_20  and  C_21
REMARK                            x       y       z     vdW  Elec       q    Type
REMARK                         _______ _______ _______ _____ _____    ______ ____
ROOT
ATOM      1  C   UNL     1       3.135   5.619  19.690  0.00  0.00    +0.000 C 
ATOM      2  C   UNL     1       2.194   6.092  18.548  0.00  0.00    +0.000 C 
ATOM      3  N   UNL     1       2.792   7.126  17.660  0.00  0.00    +0.000 NA
ATOM      4  C   UNL     1       4.131   6.665  17.220  0.00  0.00    +0.000 C 
ATOM      5  C   UNL     1       5.037   6.036  18.321  0.00  0.00    +0.000 C 
ATOM      6  N   UNL     1       4.379   4.988  19.159  0.00  0.00    +0.000 NA
ENDROOT
BRANCH   6   7
ATOM      7  C   UNL     1       4.252   3.714  18.408  0.00  0.00    +0.000 C 
ATOM      8  C   UNL     1       4.171   2.513  19.375  0.00  0.00    +0.000 C 
ATOM      9  C   UNL     1       3.534   1.390  18.575  0.00  0.00    +0.000 C 
ATOM     10  C   UNL     1       2.505   2.084  17.714  0.00  0.00    +0.000 C 
ATOM     11  C   UNL     1       3.022   3.503  17.500  0.00  0.00    +0.000 C 
ENDBRANCH   6   7
BRANCH   1  12
ATOM     12  C   UNL     1       2.363   4.886  20.800  0.00  0.00    +0.000 C 
BRANCH  12  13
ATOM     13  C   UNL     1       0.996   4.393  20.331  0.00  0.00    +0.000 C 
BRANCH  13  14
ATOM     14  O   UNL     1       0.793   3.065  20.810  0.00  0.00    +0.000 OA
ATOM     15  H   UNL     1      -0.004   3.091  21.364  0.00  0.00    +0.000 HD
ENDBRANCH  13  14
ENDBRANCH  12  13
ENDBRANCH   1  12
BRANCH   3  16
ATOM     16  C   UNL     1       2.897   8.445  18.328  0.00  0.00    +0.000 C 
BRANCH  16  17
ATOM     17  C   UNL     1       1.568   9.110  18.495  0.00  0.00    +0.000 A 
ATOM     18  N   UNL     1       0.629   9.245  17.578  0.00  0.00    +0.000 NA
ATOM     19  C   UNL     1      -0.334  10.039  18.148  0.00  0.00    +0.000 A 
ATOM     20  C   UNL     1      -1.519  10.538  17.593  0.00  0.00    +0.000 A 
ATOM     21  C   UNL     1      -2.313  11.360  18.391  0.00  0.00    +0.000 A 
ATOM     22  F   UNL     1      -3.444  11.868  17.879  0.00  0.00    +0.000 F 
ATOM     23  C   UNL     1      -1.964  11.677  19.703  0.00  0.00    +0.000 A 
ATOM     24  C   UNL     1      -0.785  11.187  20.272  0.00  0.00    +0.000 A 
ATOM     25  C   UNL     1       0.007  10.373  19.456  0.00  0.00    +0.000 A 
ATOM     26  N   UNL     1       1.215   9.756  19.656  0.00  0.00    +0.000 N 
ATOM     27  H   UNL     1       1.797   9.827  20.478  0.00  0.00    +0.000 HD
ENDBRANCH  16  17
ENDBRANCH   3  16
TORSDOF 6
ENDMDL
MODEL 9
REMARK VINA RESULT:      -6.5      2.461      3.470
REMARK  Name = 
REMARK  6 active torsions:
REMARK  status: ('A' for Active; 'I' for Inactive)
REMARK    1  A    between atoms: O_1  and  C_2
REMARK    2  A    between atoms: C_2  and  C_3
REMARK    3  A    between atoms: C_3  and  C_4
REMARK    4  A    between atoms: N_6  and  C_7
REMARK    5  A    between atoms: C_7  and  C_8
REMARK    6  A    between atoms: N_20  and  C_21
REMARK                            x       y       z     vdW  Elec       q    Type
REMARK                         _______ _______ _______ _____ _____    ______ ____
ROOT
ATOM      1  C   UNL     1       3.083   5.689  19.711  0.00  0.00    +0.000 C 
ATOM      2  C   UNL     1       2.083   6.192  18.634  0.00  0.00    +0.000 C 
ATOM      3  N   UNL     1       2.628   7.265  17.757  0.00  0.00    +0.000 NA
ATOM      4  C   UNL     1       3.949   6.836  17.237  0.00  0.00    +0.000 C 
ATOM      5  C   UNL     1       4.912   6.177  18.269  0.00  0.00    +0.000 C 
ATOM      6  N   UNL     1       4.306   5.092  19.099  0.00  0.00    +0.000 NA
ENDROOT
BRANCH   6   7
ATOM      7  C   UNL     1       4.155   3.845  18.307  0.00  0.00    +0.000 C 
ATOM      8  C   UNL     1       4.159   2.606  19.230  0.00  0.00    +0.000 C 
ATOM      9  C   UNL     1       3.493   1.501  18.428  0.00  0.00    +0.000 C 
ATOM     10  C   UNL     1       2.398   2.205  17.663  0.00  0.00    +0.000 C 
ATOM     11  C   UNL     1       2.873   3.642  17.473  0.00  0.00    +0.000 C 
ENDBRANCH   6   7
BRANCH   1  12
ATOM     12  C   UNL     1       2.372   4.907  20.829  0.00  0.00    +0.000 C 
BRANCH  12  13
ATOM     13  C   UNL     1       0.953   4.496  20.441  0.00  0.00    +0.000 C 
BRANCH  13  14
ATOM     14  O   UNL     1       0.797   3.097  20.671  0.00  0.00    +0.000 OA
ATOM     15  H   UNL     1       1.488   2.654  20.152  0.00  0.00    +0.000 HD
ENDBRANCH  13  14
ENDBRANCH  12  13
ENDBRANCH   1  12
BRANCH   3  16
ATOM     16  C   UNL     1       2.753   8.560  18.467  0.00  0.00    +0.000 C 
BRANCH  16  17
ATOM     17  C   UNL     1       1.482   9.349  18.447  0.00  0.00    +0.000 A 
ATOM     18  N   UNL     1       1.052  10.181  19.376  0.00  0.00    +0.000 NA
ATOM     19  C   UNL     1      -0.213  10.546  18.986  0.00  0.00    +0.000 A 
ATOM     20  C   UNL     1      -1.140  11.369  19.637  0.00  0.00    +0.000 A 
ATOM     21  C   UNL     1      -2.382  11.553  19.032  0.00  0.00    +0.000 A 
ATOM     22  F   UNL     1      -3.297  12.320  19.642  0.00  0.00    +0.000 F 
ATOM     23  C   UNL     1      -2.705  10.957  17.813  0.00  0.00    +0.000 A 
ATOM     24  C   UNL     1      -1.790  10.134  17.150  0.00  0.00    +0.000 A 
ATOM     25  C   UNL     1      -0.553   9.951  17.776  0.00  0.00    +0.000 A 
ATOM     26  N   UNL     1       0.549   9.205  17.447  0.00  0.00    +0.000 N 
ATOM     27  H   UNL     1       0.641   8.584  16.656  0.00  0.00    +0.000 HD
ENDBRANCH  16  17
ENDBRANCH   3  16
TORSDOF 6
ENDMDL
