MODEL 1
REMARK VINA RESULT:      -7.6      0.000      0.000
REMARK  Name = 
REMARK  10 active torsions:
REMARK  status: ('A' for Active; 'I' for Inactive)
REMARK    1  A    between atoms: C_1  and  C_2
REMARK    2  A    between atoms: C_2  and  C_3
REMARK    3  A    between atoms: C_3  and  O_4
REMARK    4  A    between atoms: O_4  and  C_5
REMARK    5  A    between atoms: N_7  and  C_8
REMARK    6  A    between atoms: C_8  and  C_9
REMARK    7  A    between atoms: C_9  and  O_10
REMARK    8  A    between atoms: O_10  and  C_11
REMARK    9  A    between atoms: C_14  and  C_15
REMARK   10  A    between atoms: C_15  and  C_16
REMARK                            x       y       z     vdW  Elec       q    Type
REMARK                         _______ _______ _______ _____ _____    ______ ____
ROOT
ATOM      1  C   UNL     1       0.984   9.715  18.871  0.00  0.00    +0.000 A 
ATOM      2  C   UNL     1       1.049   9.287  20.185  0.00  0.00    +0.000 A 
ATOM      3  C   UNL     1       1.662   8.082  20.506  0.00  0.00    +0.000 A 
ATOM      4  C   UNL     1       2.230   7.251  19.539  0.00  0.00    +0.000 A 
ATOM      5  C   UNL     1       2.222   7.718  18.215  0.00  0.00    +0.000 A 
ATOM      6  C   UNL     1       1.601   8.939  17.888  0.00  0.00    +0.000 A 
ENDROOT
BRANCH   1   7
ATOM      7  O   UNL     1       0.334  10.854  18.469  0.00  0.00    +0.000 OA
BRANCH   7   8
ATOM      8  C   UNL     1      -0.951  11.058  19.078  0.00  0.00    +0.000 C 
BRANCH   8   9
ATOM      9  C   UNL     1      -1.670  12.241  18.432  0.00  0.00    +0.000 C 
BRANCH   9  12
ATOM     10  C   UNL     1      -3.612  11.410  17.173  0.00  0.00    +0.000 C 
ATOM     11  O   UNL     1      -4.343  11.343  18.154  0.00  0.00    +0.000 OA
ATOM     12  N   UNL     1      -2.332  11.881  17.187  0.00  0.00    +0.000 N 
ATOM     13  H   UNL     1      -1.801  11.750  16.341  0.00  0.00    +0.000 HD
BRANCH  10  14
ATOM     14  O   UNL     1      -3.919  10.963  15.929  0.00  0.00    +0.000 OA
BRANCH  14  15
ATOM     15  C   UNL     1      -3.039   9.963  15.392  0.00  0.00    +0.000 C 
BRANCH  15  17
ATOM     16  C   UNL     1      -4.418  10.007  13.302  0.00  0.00    +0.000 C 
ATOM     17  C   UNL     1      -3.005  10.007  13.868  0.00  0.00    +0.000 C 
ENDBRANCH  15  17
ENDBRANCH  14  15
ENDBRANCH  10  14
ENDBRANCH   9  12
ENDBRANCH   8   9
ENDBRANCH   7   8
ENDBRANCH   1   7
BRANCH   4  18
ATOM     18  C   UNL     1       2.809   5.885  19.863  0.00  0.00    +0.000 C 
BRANCH  18  19
ATOM     19  C   UNL     1       2.571   4.679  18.900  0.00  0.00    +0.000 C 
ATOM     20  C   UNL     1       1.620   3.634  19.543  0.00  0.00    +0.000 C 
ATOM     21  C   UNL     1       1.527   2.298  18.820  0.00  0.00    +0.000 C 
ATOM     22  C   UNL     1       2.882   1.788  18.356  0.00  0.00    +0.000 C 
ATOM     23  C   UNL     1       3.551   2.819  17.454  0.00  0.00    +0.000 C 
ATOM     24  C   UNL     1       3.857   4.121  18.206  0.00  0.00    +0.000 C 
ATOM     25  O   UNL     1       4.920   3.833  19.108  0.00  0.00    +0.000 OA
ATOM     26  C   UNL     1       5.933   4.811  18.919  0.00  0.00    +0.000 C 
ATOM     27  C   UNL     1       5.501   5.666  17.761  0.00  0.00    +0.000 C 
ATOM     28  O   UNL     1       4.317   5.076  17.238  0.00  0.00    +0.000 OA
ENDBRANCH  18  19
ENDBRANCH   4  18
TORSDOF 9
ENDMDL
MODEL 2
REMARK VINA RESULT:      -7.6      3.743      8.932
REMARK  Name = 
REMARK  10 active torsions:
REMARK  status: ('A' for Active; 'I' for Inactive)
REMARK    1  A    between atoms: C_1  and  C_2
REMARK    2  A    between atoms: C_2  and  C_3
REMARK    3  A    between atoms: C_3  and  O_4
REMARK    4  A    between atoms: O_4  and  C_5
REMARK    5  A    between atoms: N_7  and  C_8
REMARK    6  A    between atoms: C_8  and  C_9
REMARK    7  A    between atoms: C_9  and  O_10
REMARK    8  A    between atoms: O_10  and  C_11
REMARK    9  A    between atoms: C_14  and  C_15
REMARK   10  A    between atoms: C_15  and  C_16
REMARK                            x       y       z     vdW  Elec       q    Type
REMARK                         _______ _______ _______ _____ _____    ______ ____
ROOT
ATOM      1  C   UNL     1       3.960   6.333  18.173  0.00  0.00    +0.000 A 
ATOM      2  C   UNL     1       3.716   7.453  17.396  0.00  0.00    +0.000 A 
ATOM      3  C   UNL     1       2.715   8.351  17.747  0.00  0.00    +0.000 A 
ATOM      4  C   UNL     1       1.912   8.174  18.876  0.00  0.00    +0.000 A 
ATOM      5  C   UNL     1       2.205   7.074  19.697  0.00  0.00    +0.000 A 
ATOM      6  C   UNL     1       3.218   6.163  19.344  0.00  0.00    +0.000 A 
ENDROOT
BRANCH   1   7
ATOM      7  O   UNL     1       4.879   5.367  17.853  0.00  0.00    +0.000 OA
BRANCH   7   8
ATOM      8  C   UNL     1       6.217   5.640  18.300  0.00  0.00    +0.000 C 
BRANCH   8   9
ATOM      9  C   UNL     1       7.208   4.679  17.646  0.00  0.00    +0.000 C 
BRANCH   9  12
ATOM     10  C   UNL     1       6.844   4.476  15.221  0.00  0.00    +0.000 C 
ATOM     11  O   UNL     1       7.570   5.421  14.935  0.00  0.00    +0.000 OA
ATOM     12  N   UNL     1       6.648   4.002  16.485  0.00  0.00    +0.000 N 
ATOM     13  H   UNL     1       5.921   3.313  16.593  0.00  0.00    +0.000 HD
BRANCH  10  14
ATOM     14  O   UNL     1       6.061   3.791  14.351  0.00  0.00    +0.000 OA
BRANCH  14  15
ATOM     15  C   UNL     1       6.442   3.880  12.969  0.00  0.00    +0.000 C 
BRANCH  15  17
ATOM     16  C   UNL     1       4.430   3.289  11.601  0.00  0.00    +0.000 C 
ATOM     17  C   UNL     1       5.769   2.797  12.132  0.00  0.00    +0.000 C 
ENDBRANCH  15  17
ENDBRANCH  14  15
ENDBRANCH  10  14
ENDBRANCH   9  12
ENDBRANCH   8   9
ENDBRANCH   7   8
ENDBRANCH   1   7
BRANCH   4  18
ATOM     18  C   UNL     1       0.749   9.090  19.212  0.00  0.00    +0.000 C 
BRANCH  18  19
ATOM     19  C   UNL     1       0.655   9.763  20.617  0.00  0.00    +0.000 C 
ATOM     20  C   UNL     1       0.022   8.797  21.654  0.00  0.00    +0.000 C 
ATOM     21  C   UNL     1      -0.367   9.427  22.985  0.00  0.00    +0.000 C 
ATOM     22  C   UNL     1      -1.038  10.780  22.818  0.00  0.00    +0.000 C 
ATOM     23  C   UNL     1      -0.129  11.727  22.044  0.00  0.00    +0.000 C 
ATOM     24  C   UNL     1       0.124  11.234  20.613  0.00  0.00    +0.000 C 
ATOM     25  O   UNL     1      -1.097  11.403  19.901  0.00  0.00    +0.000 OA
ATOM     26  C   UNL     1      -0.811  12.108  18.701  0.00  0.00    +0.000 C 
ATOM     27  C   UNL     1       0.644  12.479  18.753  0.00  0.00    +0.000 C 
ATOM     28  O   UNL     1       1.120  12.090  20.035  0.00  0.00    +0.000 OA
ENDBRANCH  18  19
ENDBRANCH   4  18
TORSDOF 9
ENDMDL
MODEL 3
REMARK VINA RESULT:      -7.5      1.069      1.404
REMARK  Name = 
REMARK  10 active torsions:
REMARK  status: ('A' for Active; 'I' for Inactive)
REMARK    1  A    between atoms: C_1  and  C_2
REMARK    2  A    between atoms: C_2  and  C_3
REMARK    3  A    between atoms: C_3  and  O_4
REMARK    4  A    between atoms: O_4  and  C_5
REMARK    5  A    between atoms: N_7  and  C_8
REMARK    6  A    between atoms: C_8  and  C_9
REMARK    7  A    between atoms: C_9  and  O_10
REMARK    8  A    between atoms: O_10  and  C_11
REMARK    9  A    between atoms: C_14  and  C_15
REMARK   10  A    between atoms: C_15  and  C_16
REMARK                            x       y       z     vdW  Elec       q    Type
REMARK                         _______ _______ _______ _____ _____    ______ ____
ROOT
ATOM      1  C   UNL     1       1.091  10.012  18.941  0.00  0.00    +0.000 A 
ATOM      2  C   UNL     1       0.964   9.458  20.203  0.00  0.00    +0.000 A 
ATOM      3  C   UNL     1       1.517   8.215  20.487  0.00  0.00    +0.000 A 
ATOM      4  C   UNL     1       2.211   7.469  19.532  0.00  0.00    +0.000 A 
ATOM      5  C   UNL     1       2.395   8.062  18.274  0.00  0.00    +0.000 A 
ATOM      6  C   UNL     1       1.836   9.321  17.984  0.00  0.00    +0.000 A 
ENDROOT
BRANCH   1   7
ATOM      7  O   UNL     1       0.513  11.198  18.566  0.00  0.00    +0.000 OA
BRANCH   7   8
ATOM      8  C   UNL     1       0.688  12.274  19.503  0.00  0.00    +0.000 C 
BRANCH   8   9
ATOM      9  C   UNL     1      -0.404  13.326  19.322  0.00  0.00    +0.000 C 
BRANCH   9  12
ATOM     10  C   UNL     1      -2.596  12.220  19.177  0.00  0.00    +0.000 C 
ATOM     11  O   UNL     1      -2.740  12.129  20.390  0.00  0.00    +0.000 OA
ATOM     12  N   UNL     1      -1.540  12.828  18.562  0.00  0.00    +0.000 N 
ATOM     13  H   UNL     1      -1.479  12.708  17.564  0.00  0.00    +0.000 HD
BRANCH  10  14
ATOM     14  O   UNL     1      -3.414  11.674  18.242  0.00  0.00    +0.000 OA
BRANCH  14  15
ATOM     15  C   UNL     1      -2.818  10.677  17.398  0.00  0.00    +0.000 C 
BRANCH  15  17
ATOM     16  C   UNL     1      -2.981   9.889  15.027  0.00  0.00    +0.000 C 
ATOM     17  C   UNL     1      -2.830  11.103  15.934  0.00  0.00    +0.000 C 
ENDBRANCH  15  17
ENDBRANCH  14  15
ENDBRANCH  10  14
ENDBRANCH   9  12
ENDBRANCH   8   9
ENDBRANCH   7   8
ENDBRANCH   1   7
BRANCH   4  18
ATOM     18  C   UNL     1       2.728   6.066  19.799  0.00  0.00    +0.000 C 
BRANCH  18  19
ATOM     19  C   UNL     1       2.166   4.852  18.994  0.00  0.00    +0.000 C 
ATOM     20  C   UNL     1       1.143   4.050  19.841  0.00  0.00    +0.000 C 
ATOM     21  C   UNL     1       0.731   2.700  19.269  0.00  0.00    +0.000 C 
ATOM     22  C   UNL     1       1.907   1.920  18.706  0.00  0.00    +0.000 C 
ATOM     23  C   UNL     1       2.620   2.740  17.637  0.00  0.00    +0.000 C 
ATOM     24  C   UNL     1       3.237   4.019  18.216  0.00  0.00    +0.000 C 
ATOM     25  O   UNL     1       4.344   3.614  19.015  0.00  0.00    +0.000 OA
ATOM     26  C   UNL     1       5.475   4.375  18.617  0.00  0.00    +0.000 C 
ATOM     27  C   UNL     1       5.048   5.202  17.437  0.00  0.00    +0.000 C 
ATOM     28  O   UNL     1       3.724   4.797  17.113  0.00  0.00    +0.000 OA
ENDBRANCH  18  19
ENDBRANCH   4  18
TORSDOF 9
ENDMDL
MODEL 4
REMARK VINA RESULT:      -7.5      3.010      9.251
REMARK  Name = 
REMARK  10 active torsions:
REMARK  status: ('A' for Active; 'I' for Inactive)
REMARK    1  A    between atoms: C_1  and  C_2
REMARK    2  A    between atoms: C_2  and  C_3
REMARK    3  A    between atoms: C_3  and  O_4
REMARK    4  A    between atoms: O_4  and  C_5
REMARK    5  A    between atoms: N_7  and  C_8
REMARK    6  A    between atoms: C_8  and  C_9
REMARK    7  A    between atoms: C_9  and  O_10
REMARK    8  A    between atoms: O_10  and  C_11
REMARK    9  A    between atoms: C_14  and  C_15
REMARK   10  A    between atoms: C_15  and  C_16
REMARK                            x       y       z     vdW  Elec       q    Type
REMARK                         _______ _______ _______ _____ _____    ______ ____
ROOT
ATOM      1  C   UNL     1       2.714   6.448  18.992  0.00  0.00    +0.000 A 
ATOM      2  C   UNL     1       2.781   7.176  17.816  0.00  0.00    +0.000 A 
ATOM      3  C   UNL     1       2.223   8.446  17.739  0.00  0.00    +0.000 A 
ATOM      4  C   UNL     1       1.572   9.044  18.820  0.00  0.00    +0.000 A 
ATOM      5  C   UNL     1       1.564   8.332  20.030  0.00  0.00    +0.000 A 
ATOM      6  C   UNL     1       2.128   7.045  20.110  0.00  0.00    +0.000 A 
ENDROOT
BRANCH   1   7
ATOM      7  O   UNL     1       3.177   5.164  19.123  0.00  0.00    +0.000 OA
BRANCH   7   8
ATOM      8  C   UNL     1       3.231   4.417  17.896  0.00  0.00    +0.000 C 
BRANCH   8   9
ATOM      9  C   UNL     1       4.427   3.467  17.898  0.00  0.00    +0.000 C 
BRANCH   9  12
ATOM     10  C   UNL     1       6.704   4.321  17.530  0.00  0.00    +0.000 C 
ATOM     11  O   UNL     1       6.696   4.102  16.325  0.00  0.00    +0.000 OA
ATOM     12  N   UNL     1       5.648   4.107  18.366  0.00  0.00    +0.000 N 
ATOM     13  H   UNL     1       5.836   4.198  19.351  0.00  0.00    +0.000 HD
BRANCH  10  14
ATOM     14  O   UNL     1       7.776   4.740  18.249  0.00  0.00    +0.000 OA
BRANCH  14  15
ATOM     15  C   UNL     1       7.726   6.100  18.706  0.00  0.00    +0.000 C 
BRANCH  15  17
ATOM     16  C   UNL     1       7.964   8.460  17.903  0.00  0.00    +0.000 C 
ATOM     17  C   UNL     1       7.456   7.067  17.558  0.00  0.00    +0.000 C 
ENDBRANCH  15  17
ENDBRANCH  14  15
ENDBRANCH  10  14
ENDBRANCH   9  12
ENDBRANCH   8   9
ENDBRANCH   7   8
ENDBRANCH   1   7
BRANCH   4  18
ATOM     18  C   UNL     1       0.868  10.386  18.718  0.00  0.00    +0.000 C 
BRANCH  18  19
ATOM     19  C   UNL     1      -0.691  10.463  18.745  0.00  0.00    +0.000 C 
ATOM     20  C   UNL     1      -1.308   9.622  17.596  0.00  0.00    +0.000 C 
ATOM     21  C   UNL     1      -2.797   9.833  17.355  0.00  0.00    +0.000 C 
ATOM     22  C   UNL     1      -3.198  11.297  17.416  0.00  0.00    +0.000 C 
ATOM     23  C   UNL     1      -2.802  11.896  18.761  0.00  0.00    +0.000 C 
ATOM     24  C   UNL     1      -1.280  11.895  18.960  0.00  0.00    +0.000 C 
ATOM     25  O   UNL     1      -0.751  12.875  18.072  0.00  0.00    +0.000 OA
ATOM     26  C   UNL     1       0.099  13.733  18.821  0.00  0.00    +0.000 C 
ATOM     27  C   UNL     1      -0.017  13.311  20.258  0.00  0.00    +0.000 C 
ATOM     28  O   UNL     1      -1.025  12.309  20.310  0.00  0.00    +0.000 OA
ENDBRANCH  18  19
ENDBRANCH   4  18
TORSDOF 9
ENDMDL
MODEL 5
REMARK VINA RESULT:      -7.4      1.455      2.965
REMARK  Name = 
REMARK  10 active torsions:
REMARK  status: ('A' for Active; 'I' for Inactive)
REMARK    1  A    between atoms: C_1  and  C_2
REMARK    2  A    between atoms: C_2  and  C_3
REMARK    3  A    between atoms: C_3  and  O_4
REMARK    4  A    between atoms: O_4  and  C_5
REMARK    5  A    between atoms: N_7  and  C_8
REMARK    6  A    between atoms: C_8  and  C_9
REMARK    7  A    between atoms: C_9  and  O_10
REMARK    8  A    between atoms: O_10  and  C_11
REMARK    9  A    between atoms: C_14  and  C_15
REMARK   10  A    between atoms: C_15  and  C_16
REMARK                            x       y       z     vdW  Elec       q    Type
REMARK                         _______ _______ _______ _____ _____    ______ ____
ROOT
ATOM      1  C   UNL     1       1.206   9.680  19.384  0.00  0.00    +0.000 A 
ATOM      2  C   UNL     1       1.527   9.410  18.065  0.00  0.00    +0.000 A 
ATOM      3  C   UNL     1       2.102   8.194  17.712  0.00  0.00    +0.000 A 
ATOM      4  C   UNL     1       2.387   7.201  18.651  0.00  0.00    +0.000 A 
ATOM      5  C   UNL     1       2.000   7.451  19.977  0.00  0.00    +0.000 A 
ATOM      6  C   UNL     1       1.418   8.681  20.337  0.00  0.00    +0.000 A 
ENDROOT
BRANCH   1   7
ATOM      7  O   UNL     1       0.704  10.880  19.818  0.00  0.00    +0.000 OA
BRANCH   7   8
ATOM      8  C   UNL     1       1.188  12.027  19.101  0.00  0.00    +0.000 C 
BRANCH   8   9
ATOM      9  C   UNL     1       0.024  12.892  18.623  0.00  0.00    +0.000 C 
BRANCH   9  12
ATOM     10  C   UNL     1      -2.236  11.921  18.589  0.00  0.00    +0.000 C 
ATOM     11  O   UNL     1      -2.585  12.451  19.637  0.00  0.00    +0.000 OA
ATOM     12  N   UNL     1      -1.028  12.112  17.986  0.00  0.00    +0.000 N 
ATOM     13  H   UNL     1      -0.820  11.509  17.207  0.00  0.00    +0.000 HD
BRANCH  10  14
ATOM     14  O   UNL     1      -2.953  11.004  17.892  0.00  0.00    +0.000 OA
BRANCH  14  15
ATOM     15  C   UNL     1      -2.189   9.964  17.263  0.00  0.00    +0.000 C 
BRANCH  15  17
ATOM     16  C   UNL     1      -3.281  10.859  15.195  0.00  0.00    +0.000 C 
ATOM     17  C   UNL     1      -2.747   9.613  15.887  0.00  0.00    +0.000 C 
ENDBRANCH  15  17
ENDBRANCH  14  15
ENDBRANCH  10  14
ENDBRANCH   9  12
ENDBRANCH   8   9
ENDBRANCH   7   8
ENDBRANCH   1   7
BRANCH   4  18
ATOM     18  C   UNL     1       3.110   5.914  18.296  0.00  0.00    +0.000 C 
BRANCH  18  19
ATOM     19  C   UNL     1       4.670   5.867  18.267  0.00  0.00    +0.000 C 
ATOM     20  C   UNL     1       5.239   6.917  17.276  0.00  0.00    +0.000 C 
ATOM     21  C   UNL     1       6.723   6.786  16.960  0.00  0.00    +0.000 C 
ATOM     22  C   UNL     1       7.149   5.344  16.741  0.00  0.00    +0.000 C 
ATOM     23  C   UNL     1       6.804   4.501  17.963  0.00  0.00    +0.000 C 
ATOM     24  C   UNL     1       5.289   4.432  18.199  0.00  0.00    +0.000 C 
ATOM     25  O   UNL     1       4.750   3.621  17.161  0.00  0.00    +0.000 OA
ATOM     26  C   UNL     1       3.937   2.622  17.762  0.00  0.00    +0.000 C 
ATOM     27  C   UNL     1       4.089   2.776  19.249  0.00  0.00    +0.000 C 
ATOM     28  O   UNL     1       5.082   3.774  19.457  0.00  0.00    +0.000 OA
ENDBRANCH  18  19
ENDBRANCH   4  18
TORSDOF 9
ENDMDL
MODEL 6
REMARK VINA RESULT:      -7.4      1.700      2.312
REMARK  Name = 
REMARK  10 active torsions:
REMARK  status: ('A' for Active; 'I' for Inactive)
REMARK    1  A    between atoms: C_1  and  C_2
REMARK    2  A    between atoms: C_2  and  C_3
REMARK    3  A    between atoms: C_3  and  O_4
REMARK    4  A    between atoms: O_4  and  C_5
REMARK    5  A    between atoms: N_7  and  C_8
REMARK    6  A    between atoms: C_8  and  C_9
REMARK    7  A    between atoms: C_9  and  O_10
REMARK    8  A    between atoms: O_10  and  C_11
REMARK    9  A    between atoms: C_14  and  C_15
REMARK   10  A    between atoms: C_15  and  C_16
REMARK                            x       y       z     vdW  Elec       q    Type
REMARK                         _______ _______ _______ _____ _____    ______ ____
ROOT
ATOM      1  C   UNL     1       0.645   9.834  19.314  0.00  0.00    +0.000 A 
ATOM      2  C   UNL     1       0.800   9.152  20.508  0.00  0.00    +0.000 A 
ATOM      3  C   UNL     1       1.575   8.000  20.568  0.00  0.00    +0.000 A 
ATOM      4  C   UNL     1       2.224   7.475  19.449  0.00  0.00    +0.000 A 
ATOM      5  C   UNL     1       2.120   8.205  18.254  0.00  0.00    +0.000 A 
ATOM      6  C   UNL     1       1.335   9.372  18.191  0.00  0.00    +0.000 A 
ENDROOT
BRANCH   1   7
ATOM      7  O   UNL     1      -0.160  10.933  19.160  0.00  0.00    +0.000 OA
BRANCH   7   8
ATOM      8  C   UNL     1      -1.405  10.677  18.491  0.00  0.00    +0.000 C 
BRANCH   8   9
ATOM      9  C   UNL     1      -1.954  11.960  17.869  0.00  0.00    +0.000 C 
BRANCH   9  12
ATOM     10  C   UNL     1      -4.397  11.815  18.111  0.00  0.00    +0.000 C 
ATOM     11  O   UNL     1      -4.393  12.084  19.306  0.00  0.00    +0.000 OA
ATOM     12  N   UNL     1      -3.289  11.786  17.316  0.00  0.00    +0.000 N 
ATOM     13  H   UNL     1      -3.418  11.415  16.388  0.00  0.00    +0.000 HD
BRANCH  10  14
ATOM     14  O   UNL     1      -5.483  11.432  17.393  0.00  0.00    +0.000 OA
BRANCH  14  15
ATOM     15  C   UNL     1      -6.750  11.577  18.054  0.00  0.00    +0.000 C 
BRANCH  15  17
ATOM     16  C   UNL     1      -7.848  13.631  18.974  0.00  0.00    +0.000 C 
ATOM     17  C   UNL     1      -7.412  12.906  17.708  0.00  0.00    +0.000 C 
ENDBRANCH  15  17
ENDBRANCH  14  15
ENDBRANCH  10  14
ENDBRANCH   9  12
ENDBRANCH   8   9
ENDBRANCH   7   8
ENDBRANCH   1   7
BRANCH   4  18
ATOM     18  C   UNL     1       2.987   6.163  19.478  0.00  0.00    +0.000 C 
BRANCH  18  19
ATOM     19  C   UNL     1       2.328   4.855  18.937  0.00  0.00    +0.000 C 
ATOM     20  C   UNL     1       1.353   4.251  19.982  0.00  0.00    +0.000 C 
ATOM     21  C   UNL     1       0.859   2.842  19.681  0.00  0.00    +0.000 C 
ATOM     22  C   UNL     1       1.964   1.930  19.176  0.00  0.00    +0.000 C 
ATOM     23  C   UNL     1       2.612   2.527  17.932  0.00  0.00    +0.000 C 
ATOM     24  C   UNL     1       3.310   3.859  18.236  0.00  0.00    +0.000 C 
ATOM     25  O   UNL     1       4.465   3.549  19.010  0.00  0.00    +0.000 OA
ATOM     26  C   UNL     1       5.582   4.184  18.405  0.00  0.00    +0.000 C 
ATOM     27  C   UNL     1       5.086   4.816  17.135  0.00  0.00    +0.000 C 
ATOM     28  O   UNL     1       3.729   4.419  16.983  0.00  0.00    +0.000 OA
ENDBRANCH  18  19
ENDBRANCH   4  18
TORSDOF 9
ENDMDL
MODEL 7
REMARK VINA RESULT:      -7.3      3.307      9.010
REMARK  Name = 
REMARK  10 active torsions:
REMARK  status: ('A' for Active; 'I' for Inactive)
REMARK    1  A    between atoms: C_1  and  C_2
REMARK    2  A    between atoms: C_2  and  C_3
REMARK    3  A    between atoms: C_3  and  O_4
REMARK    4  A    between atoms: O_4  and  C_5
REMARK    5  A    between atoms: N_7  and  C_8
REMARK    6  A    between atoms: C_8  and  C_9
REMARK    7  A    between atoms: C_9  and  O_10
REMARK    8  A    between atoms: O_10  and  C_11
REMARK    9  A    between atoms: C_14  and  C_15
REMARK   10  A    between atoms: C_15  and  C_16
REMARK                            x       y       z     vdW  Elec       q    Type
REMARK                         _______ _______ _______ _____ _____    ______ ____
ROOT
ATOM      1  C   UNL     1       2.883   6.797  19.128  0.00  0.00    +0.000 A 
ATOM      2  C   UNL     1       2.088   7.265  20.160  0.00  0.00    +0.000 A 
ATOM      3  C   UNL     1       1.334   8.421  20.002  0.00  0.00    +0.000 A 
ATOM      4  C   UNL     1       1.340   9.164  18.820  0.00  0.00    +0.000 A 
ATOM      5  C   UNL     1       2.095   8.652  17.753  0.00  0.00    +0.000 A 
ATOM      6  C   UNL     1       2.860   7.480  17.910  0.00  0.00    +0.000 A 
ENDROOT
BRANCH   1   7
ATOM      7  O   UNL     1       3.708   5.707  19.232  0.00  0.00    +0.000 OA
BRANCH   7   8
ATOM      8  C   UNL     1       3.932   5.003  18.000  0.00  0.00    +0.000 C 
BRANCH   8   9
ATOM      9  C   UNL     1       5.408   4.641  17.849  0.00  0.00    +0.000 C 
BRANCH   9  12
ATOM     10  C   UNL     1       5.895   4.537  15.440  0.00  0.00    +0.000 C 
ATOM     11  O   UNL     1       5.984   5.752  15.306  0.00  0.00    +0.000 OA
ATOM     12  N   UNL     1       5.680   3.900  16.627  0.00  0.00    +0.000 N 
ATOM     13  H   UNL     1       5.490   2.912  16.572  0.00  0.00    +0.000 HD
BRANCH  10  14
ATOM     14  O   UNL     1       5.923   3.629  14.433  0.00  0.00    +0.000 OA
BRANCH  14  15
ATOM     15  C   UNL     1       6.643   4.026  13.256  0.00  0.00    +0.000 C 
BRANCH  15  17
ATOM     16  C   UNL     1       4.657   3.374  11.878  0.00  0.00    +0.000 C 
ATOM     17  C   UNL     1       6.168   3.263  12.024  0.00  0.00    +0.000 C 
ENDBRANCH  15  17
ENDBRANCH  14  15
ENDBRANCH  10  14
ENDBRANCH   9  12
ENDBRANCH   8   9
ENDBRANCH   7   8
ENDBRANCH   1   7
BRANCH   4  18
ATOM     18  C   UNL     1       0.604  10.483  18.671  0.00  0.00    +0.000 C 
BRANCH  18  19
ATOM     19  C   UNL     1      -0.956  10.517  18.645  0.00  0.00    +0.000 C 
ATOM     20  C   UNL     1      -1.507   9.787  17.391  0.00  0.00    +0.000 C 
ATOM     21  C   UNL     1      -2.991   9.985  17.114  0.00  0.00    +0.000 C 
ATOM     22  C   UNL     1      -3.437  11.424  17.313  0.00  0.00    +0.000 C 
ATOM     23  C   UNL     1      -3.108  11.887  18.727  0.00  0.00    +0.000 C 
ATOM     24  C   UNL     1      -1.595  11.904  18.985  0.00  0.00    +0.000 C 
ATOM     25  O   UNL     1      -1.063  12.985  18.226  0.00  0.00    +0.000 OA
ATOM     26  C   UNL     1      -0.267  13.780  19.093  0.00  0.00    +0.000 C 
ATOM     27  C   UNL     1      -0.422  13.205  20.473  0.00  0.00    +0.000 C 
ATOM     28  O   UNL     1      -1.402  12.178  20.380  0.00  0.00    +0.000 OA
ENDBRANCH  18  19
ENDBRANCH   4  18
TORSDOF 9
ENDMDL
MODEL 8
REMARK VINA RESULT:      -7.3      2.920      8.999
REMARK  Name = 
REMARK  10 active torsions:
REMARK  status: ('A' for Active; 'I' for Inactive)
REMARK    1  A    between atoms: C_1  and  C_2
REMARK    2  A    between atoms: C_2  and  C_3
REMARK    3  A    between atoms: C_3  and  O_4
REMARK    4  A    between atoms: O_4  and  C_5
REMARK    5  A    between atoms: N_7  and  C_8
REMARK    6  A    between atoms: C_8  and  C_9
REMARK    7  A    between atoms: C_9  and  O_10
REMARK    8  A    between atoms: O_10  and  C_11
REMARK    9  A    between atoms: C_14  and  C_15
REMARK   10  A    between atoms: C_15  and  C_16
REMARK                            x       y       z     vdW  Elec       q    Type
REMARK                         _______ _______ _______ _____ _____    ______ ____
ROOT
ATOM      1  C   UNL     1       2.888   6.488  19.434  0.00  0.00    +0.000 A 
ATOM      2  C   UNL     1       2.098   7.119  20.379  0.00  0.00    +0.000 A 
ATOM      3  C   UNL     1       1.414   8.286  20.064  0.00  0.00    +0.000 A 
ATOM      4  C   UNL     1       1.489   8.880  18.802  0.00  0.00    +0.000 A 
ATOM      5  C   UNL     1       2.237   8.203  17.826  0.00  0.00    +0.000 A 
ATOM      6  C   UNL     1       2.931   7.020  18.143  0.00  0.00    +0.000 A 
ENDROOT
BRANCH   1   7
ATOM      7  O   UNL     1       3.648   5.376  19.691  0.00  0.00    +0.000 OA
BRANCH   7   8
ATOM      8  C   UNL     1       2.979   4.126  19.459  0.00  0.00    +0.000 C 
BRANCH   8   9
ATOM      9  C   UNL     1       3.903   3.150  18.732  0.00  0.00    +0.000 C 
BRANCH   9  12
ATOM     10  C   UNL     1       5.461   4.164  17.123  0.00  0.00    +0.000 C 
ATOM     11  O   UNL     1       4.653   4.181  16.202  0.00  0.00    +0.000 OA
ATOM     12  N   UNL     1       5.187   3.744  18.391  0.00  0.00    +0.000 N 
ATOM     13  H   UNL     1       5.977   3.652  19.009  0.00  0.00    +0.000 HD
BRANCH  10  14
ATOM     14  O   UNL     1       6.775   4.487  17.024  0.00  0.00    +0.000 OA
BRANCH  14  15
ATOM     15  C   UNL     1       7.058   5.801  16.518  0.00  0.00    +0.000 C 
BRANCH  15  17
ATOM     16  C   UNL     1       7.889   6.176  18.850  0.00  0.00    +0.000 C 
ATOM     17  C   UNL     1       7.211   6.815  17.646  0.00  0.00    +0.000 C 
ENDBRANCH  15  17
ENDBRANCH  14  15
ENDBRANCH  10  14
ENDBRANCH   9  12
ENDBRANCH   8   9
ENDBRANCH   7   8
ENDBRANCH   1   7
BRANCH   4  18
ATOM     18  C   UNL     1       0.832  10.209  18.476  0.00  0.00    +0.000 C 
BRANCH  18  19
ATOM     19  C   UNL     1      -0.717  10.370  18.581  0.00  0.00    +0.000 C 
ATOM     20  C   UNL     1      -1.429   9.694  17.378  0.00  0.00    +0.000 C 
ATOM     21  C   UNL     1      -2.910  10.013  17.228  0.00  0.00    +0.000 C 
ATOM     22  C   UNL     1      -3.219  11.483  17.461  0.00  0.00    +0.000 C 
ATOM     23  C   UNL     1      -2.736  11.909  18.843  0.00  0.00    +0.000 C 
ATOM     24  C   UNL     1      -1.210  11.802  18.972  0.00  0.00    +0.000 C 
ATOM     25  O   UNL     1      -0.658  12.840  18.170  0.00  0.00    +0.000 OA
ATOM     26  C   UNL     1       0.271  13.563  18.966  0.00  0.00    +0.000 C 
ATOM     27  C   UNL     1       0.186  12.995  20.355  0.00  0.00    +0.000 C 
ATOM     28  O   UNL     1      -0.879  12.052  20.346  0.00  0.00    +0.000 OA
ENDBRANCH  18  19
ENDBRANCH   4  18
TORSDOF 9
ENDMDL
MODEL 9
REMARK VINA RESULT:      -7.3      2.885      8.826
REMARK  Name = 
REMARK  10 active torsions:
REMARK  status: ('A' for Active; 'I' for Inactive)
REMARK    1  A    between atoms: C_1  and  C_2
REMARK    2  A    between atoms: C_2  and  C_3
REMARK    3  A    between atoms: C_3  and  O_4
REMARK    4  A    between atoms: O_4  and  C_5
REMARK    5  A    between atoms: N_7  and  C_8
REMARK    6  A    between atoms: C_8  and  C_9
REMARK    7  A    between atoms: C_9  and  O_10
REMARK    8  A    between atoms: O_10  and  C_11
REMARK    9  A    between atoms: C_14  and  C_15
REMARK   10  A    between atoms: C_15  and  C_16
REMARK                            x       y       z     vdW  Elec       q    Type
REMARK                         _______ _______ _______ _____ _____    ______ ____
ROOT
ATOM      1  C   UNL     1       2.990   6.830  19.178  0.00  0.00    +0.000 A 
ATOM      2  C   UNL     1       2.143   7.298  20.168  0.00  0.00    +0.000 A 
ATOM      3  C   UNL     1       1.374   8.436  19.959  0.00  0.00    +0.000 A 
ATOM      4  C   UNL     1       1.416   9.159  18.766  0.00  0.00    +0.000 A 
ATOM      5  C   UNL     1       2.225   8.646  17.740  0.00  0.00    +0.000 A 
ATOM      6  C   UNL     1       3.005   7.493  17.949  0.00  0.00    +0.000 A 
ENDROOT
BRANCH   1   7
ATOM      7  O   UNL     1       3.832   5.758  19.335  0.00  0.00    +0.000 OA
BRANCH   7   8
ATOM      8  C   UNL     1       5.002   5.787  18.502  0.00  0.00    +0.000 C 
BRANCH   8   9
ATOM      9  C   UNL     1       5.743   4.453  18.573  0.00  0.00    +0.000 C 
BRANCH   9  12
ATOM     10  C   UNL     1       4.020   2.699  18.560  0.00  0.00    +0.000 C 
ATOM     11  O   UNL     1       3.809   2.778  17.356  0.00  0.00    +0.000 OA
ATOM     12  N   UNL     1       4.965   3.415  19.233  0.00  0.00    +0.000 N 
ATOM     13  H   UNL     1       4.937   3.355  20.238  0.00  0.00    +0.000 HD
BRANCH  10  14
ATOM     14  O   UNL     1       3.308   1.947  19.438  0.00  0.00    +0.000 OA
BRANCH  14  15
ATOM     15  C   UNL     1       2.597   2.678  20.449  0.00  0.00    +0.000 C 
BRANCH  15  17
ATOM     16  C   UNL     1       0.622   2.382  18.939  0.00  0.00    +0.000 C 
ATOM     17  C   UNL     1       1.339   3.332  19.888  0.00  0.00    +0.000 C 
ENDBRANCH  15  17
ENDBRANCH  14  15
ENDBRANCH  10  14
ENDBRANCH   9  12
ENDBRANCH   8   9
ENDBRANCH   7   8
ENDBRANCH   1   7
BRANCH   4  18
ATOM     18  C   UNL     1       0.661  10.461  18.564  0.00  0.00    +0.000 C 
BRANCH  18  19
ATOM     19  C   UNL     1      -0.900  10.479  18.587  0.00  0.00    +0.000 C 
ATOM     20  C   UNL     1      -1.482   9.729  17.359  0.00  0.00    +0.000 C 
ATOM     21  C   UNL     1      -2.977   9.909  17.128  0.00  0.00    +0.000 C 
ATOM     22  C   UNL     1      -3.431  11.346  17.325  0.00  0.00    +0.000 C 
ATOM     23  C   UNL     1      -3.062  11.828  18.723  0.00  0.00    +0.000 C 
ATOM     24  C   UNL     1      -1.542  11.863  18.932  0.00  0.00    +0.000 C 
ATOM     25  O   UNL     1      -1.045  12.941  18.144  0.00  0.00    +0.000 OA
ATOM     26  C   UNL     1      -0.230  13.753  18.976  0.00  0.00    +0.000 C 
ATOM     27  C   UNL     1      -0.335  13.193  20.367  0.00  0.00    +0.000 C 
ATOM     28  O   UNL     1      -1.307  12.156  20.317  0.00  0.00    +0.000 OA
ENDBRANCH  18  19
ENDBRANCH   4  18
TORSDOF 9
ENDMDL
