MODEL 1
REMARK VINA RESULT:      -8.1      0.000      0.000
REMARK  Name = 
REMARK  11 active torsions:
REMARK  status: ('A' for Active; 'I' for Inactive)
REMARK    1  A    between atoms: C_1  and  C_2
REMARK    2  A    between atoms: N_4  and  C_5
REMARK    3  A    between atoms: C_9  and  C_10
REMARK    4  A    between atoms: C_10  and  C_11
REMARK    5  A    between atoms: C_14  and  S_15
REMARK    6  A    between atoms: S_15  and  C_16
REMARK    7  A    between atoms: C_16  and  C_17
REMARK    8  A    between atoms: C_20  and  S_21
REMARK    9  A    between atoms: N_22  and  N_23
REMARK   10  A    between atoms: N_24  and  N_25
REMARK   11  A    between atoms: C_26  and  C_27
REMARK                            x       y       z     vdW  Elec       q    Type
REMARK                         _______ _______ _______ _____ _____    ______ ____
ROOT
ATOM      1  C   UNL     1       2.146   8.206  19.048  0.00  0.00    +0.000 A 
ATOM      2  N   UNL     1       2.190   8.562  17.768  0.00  0.00    +0.000 NA
ATOM      3  N   UNL     1       1.174   9.450  17.508  0.00  0.00    +0.000 NA
ATOM      4  C   UNL     1       0.518   9.632  18.627  0.00  0.00    +0.000 A 
ATOM      5  N   UNL     1       1.133   8.927  19.650  0.00  0.00    +0.000 N 
ENDROOT
BRANCH   5   6
ATOM      6  N   UNL     1       0.561   8.781  20.888  0.00  0.00    +0.000 N 
ATOM      7  C   UNL     1       0.623   9.753  21.860  0.00  0.00    +0.000 C 
ATOM      8  C   UNL     1      -0.302   9.480  23.022  0.00  0.00    +0.000 C 
ATOM      9  O   UNL     1       1.363  10.729  21.855  0.00  0.00    +0.000 OA
ATOM     10  H   UNL     1      -0.275   8.206  20.853  0.00  0.00    +0.000 HD
ENDBRANCH   5   6
BRANCH   1  11
ATOM     11  C   UNL     1       3.016   7.125  19.616  0.00  0.00    +0.000 C 
BRANCH  11  16
ATOM     12  C   UNL     1       4.128   5.639  17.806  0.00  0.00    +0.000 A 
ATOM     13  S   UNL     1       3.973   4.126  17.054  0.00  0.00    +0.000 S 
ATOM     14  C   UNL     1       2.699   3.681  18.062  0.00  0.00    +0.000 A 
ATOM     15  C   UNL     1       2.327   4.688  18.931  0.00  0.00    +0.000 A 
ATOM     16  C   UNL     1       3.157   5.879  18.764  0.00  0.00    +0.000 A 
ATOM     17  C   UNL     1       1.203   4.471  19.909  0.00  0.00    +0.000 C 
ATOM     18  C   UNL     1       0.905   2.970  20.109  0.00  0.00    +0.000 C 
ATOM     19  C   UNL     1       0.814   2.226  18.770  0.00  0.00    +0.000 C 
ATOM     20  C   UNL     1       2.133   2.301  18.000  0.00  0.00    +0.000 C 
BRANCH  12  24
ATOM     21  C   UNL     1       7.364   7.441  17.469  0.00  0.00    +0.000 C 
ATOM     22  C   UNL     1       6.522   6.262  17.851  0.00  0.00    +0.000 C 
ATOM     23  O   UNL     1       7.012   5.327  18.460  0.00  0.00    +0.000 OA
ATOM     24  N   UNL     1       5.206   6.445  17.461  0.00  0.00    +0.000 N 
ATOM     25  H   UNL     1       5.018   7.214  16.829  0.00  0.00    +0.000 HD
ENDBRANCH  12  24
ENDBRANCH  11  16
ENDBRANCH   1  11
BRANCH   4  26
ATOM     26  S   UNL     1      -0.943  10.547  18.832  0.00  0.00    +0.000 S 
BRANCH  26  27
ATOM     27  C   UNL     1      -0.510  12.212  18.206  0.00  0.00    +0.000 C 
BRANCH  27  28
ATOM     28  C   UNL     1       0.523  12.935  18.996  0.00  0.00    +0.000 A 
ATOM     29  N   UNL     1       0.404  13.482  20.194  0.00  0.00    +0.000 NA
ATOM     30  N   UNL     1       1.602  14.084  20.516  0.00  0.00    +0.000 NA
ATOM     31  C   UNL     1       2.411  13.924  19.498  0.00  0.00    +0.000 A 
ATOM     32  N   UNL     1       1.835  13.077  18.589  0.00  0.00    +0.000 N 
BRANCH  32  33
ATOM     33  N   UNL     1       2.495  12.372  17.527  0.00  0.00    +0.000 N 
ATOM     34  H   UNL     1       2.697  11.415  17.830  0.00  0.00    +0.000 HD
ATOM     35  H   UNL     1       1.849  12.241  16.747  0.00  0.00    +0.000 HD
ENDBRANCH  32  33
BRANCH  31  36
ATOM     36  S   UNL     1       3.949  14.673  19.283  0.00  0.00    +0.000 S 
ATOM     37  H   UNL     1       3.949  15.374  20.429  0.00  0.00    +0.000 HD
ENDBRANCH  31  36
ENDBRANCH  27  28
ENDBRANCH  26  27
ENDBRANCH   4  26
TORSDOF 9
ENDMDL
MODEL 2
REMARK VINA RESULT:      -8.0      1.571      2.339
REMARK  Name = 
REMARK  11 active torsions:
REMARK  status: ('A' for Active; 'I' for Inactive)
REMARK    1  A    between atoms: C_1  and  C_2
REMARK    2  A    between atoms: N_4  and  C_5
REMARK    3  A    between atoms: C_9  and  C_10
REMARK    4  A    between atoms: C_10  and  C_11
REMARK    5  A    between atoms: C_14  and  S_15
REMARK    6  A    between atoms: S_15  and  C_16
REMARK    7  A    between atoms: C_16  and  C_17
REMARK    8  A    between atoms: C_20  and  S_21
REMARK    9  A    between atoms: N_22  and  N_23
REMARK   10  A    between atoms: N_24  and  N_25
REMARK   11  A    between atoms: C_26  and  C_27
REMARK                            x       y       z     vdW  Elec       q    Type
REMARK                         _______ _______ _______ _____ _____    ______ ____
ROOT
ATOM      1  C   UNL     1       2.232   8.194  19.097  0.00  0.00    +0.000 A 
ATOM      2  N   UNL     1       2.543   8.609  17.873  0.00  0.00    +0.000 NA
ATOM      3  N   UNL     1       1.663   9.593  17.490  0.00  0.00    +0.000 NA
ATOM      4  C   UNL     1       0.823   9.772  18.479  0.00  0.00    +0.000 A 
ATOM      5  N   UNL     1       1.180   8.966  19.549  0.00  0.00    +0.000 N 
ENDROOT
BRANCH   5   6
ATOM      6  N   UNL     1       0.374   8.806  20.647  0.00  0.00    +0.000 N 
ATOM      7  C   UNL     1       0.727   9.245  21.903  0.00  0.00    +0.000 C 
ATOM      8  C   UNL     1      -0.422   9.202  22.883  0.00  0.00    +0.000 C 
ATOM      9  O   UNL     1       1.846   9.599  22.254  0.00  0.00    +0.000 OA
ATOM     10  H   UNL     1      -0.611   8.829  20.402  0.00  0.00    +0.000 HD
ENDBRANCH   5   6
BRANCH   1  11
ATOM     11  C   UNL     1       2.896   7.015  19.742  0.00  0.00    +0.000 C 
BRANCH  11  16
ATOM     12  C   UNL     1       4.020   5.583  17.896  0.00  0.00    +0.000 A 
ATOM     13  S   UNL     1       3.886   4.081  17.117  0.00  0.00    +0.000 S 
ATOM     14  C   UNL     1       2.629   3.594  18.126  0.00  0.00    +0.000 A 
ATOM     15  C   UNL     1       2.246   4.578  19.018  0.00  0.00    +0.000 A 
ATOM     16  C   UNL     1       3.052   5.787  18.866  0.00  0.00    +0.000 A 
ATOM     17  C   UNL     1       1.135   4.322  20.001  0.00  0.00    +0.000 C 
ATOM     18  C   UNL     1       0.866   2.813  20.175  0.00  0.00    +0.000 C 
ATOM     19  C   UNL     1       0.778   2.091  18.822  0.00  0.00    +0.000 C 
ATOM     20  C   UNL     1       2.089   2.206  18.044  0.00  0.00    +0.000 C 
BRANCH  12  24
ATOM     21  C   UNL     1       7.251   7.380  17.492  0.00  0.00    +0.000 C 
ATOM     22  C   UNL     1       6.421   6.170  17.800  0.00  0.00    +0.000 C 
ATOM     23  O   UNL     1       6.943   5.161  18.239  0.00  0.00    +0.000 OA
ATOM     24  N   UNL     1       5.080   6.415  17.557  0.00  0.00    +0.000 N 
ATOM     25  H   UNL     1       4.853   7.260  17.046  0.00  0.00    +0.000 HD
ENDBRANCH  12  24
ENDBRANCH  11  16
ENDBRANCH   1  11
BRANCH   4  26
ATOM     26  S   UNL     1      -0.579  10.797  18.472  0.00  0.00    +0.000 S 
BRANCH  26  27
ATOM     27  C   UNL     1       0.011  12.352  19.237  0.00  0.00    +0.000 C 
BRANCH  27  28
ATOM     28  C   UNL     1      -0.423  12.569  20.644  0.00  0.00    +0.000 A 
ATOM     29  N   UNL     1       0.327  12.641  21.731  0.00  0.00    +0.000 NA
ATOM     30  N   UNL     1      -0.503  12.805  22.819  0.00  0.00    +0.000 NA
ATOM     31  C   UNL     1      -1.737  12.792  22.381  0.00  0.00    +0.000 A 
ATOM     32  N   UNL     1      -1.732  12.805  21.012  0.00  0.00    +0.000 N 
BRANCH  32  33
ATOM     33  N   UNL     1      -2.829  13.142  20.147  0.00  0.00    +0.000 N 
ATOM     34  H   UNL     1      -3.474  12.349  20.093  0.00  0.00    +0.000 HD
ATOM     35  H   UNL     1      -3.392  13.877  20.577  0.00  0.00    +0.000 HD
ENDBRANCH  32  33
BRANCH  31  36
ATOM     36  S   UNL     1      -3.167  12.732  23.343  0.00  0.00    +0.000 S 
ATOM     37  H   UNL     1      -3.132  11.414  23.602  0.00  0.00    +0.000 HD
ENDBRANCH  31  36
ENDBRANCH  27  28
ENDBRANCH  26  27
ENDBRANCH   4  26
TORSDOF 9
ENDMDL
MODEL 3
REMARK VINA RESULT:      -7.9      0.896      1.225
REMARK  Name = 
REMARK  11 active torsions:
REMARK  status: ('A' for Active; 'I' for Inactive)
REMARK    1  A    between atoms: C_1  and  C_2
REMARK    2  A    between atoms: N_4  and  C_5
REMARK    3  A    between atoms: C_9  and  C_10
REMARK    4  A    between atoms: C_10  and  C_11
REMARK    5  A    between atoms: C_14  and  S_15
REMARK    6  A    between atoms: S_15  and  C_16
REMARK    7  A    between atoms: C_16  and  C_17
REMARK    8  A    between atoms: C_20  and  S_21
REMARK    9  A    between atoms: N_22  and  N_23
REMARK   10  A    between atoms: N_24  and  N_25
REMARK   11  A    between atoms: C_26  and  C_27
REMARK                            x       y       z     vdW  Elec       q    Type
REMARK                         _______ _______ _______ _____ _____    ______ ____
ROOT
ATOM      1  C   UNL     1       2.230   8.188  19.143  0.00  0.00    +0.000 A 
ATOM      2  N   UNL     1       2.512   8.594  17.909  0.00  0.00    +0.000 NA
ATOM      3  N   UNL     1       1.646   9.599  17.552  0.00  0.00    +0.000 NA
ATOM      4  C   UNL     1       0.842   9.801  18.567  0.00  0.00    +0.000 A 
ATOM      5  N   UNL     1       1.213   8.988  19.626  0.00  0.00    +0.000 N 
ENDROOT
BRANCH   5   6
ATOM      6  N   UNL     1       0.439   8.849  20.750  0.00  0.00    +0.000 N 
ATOM      7  C   UNL     1       0.811   9.344  21.979  0.00  0.00    +0.000 C 
ATOM      8  C   UNL     1      -0.312   9.311  22.989  0.00  0.00    +0.000 C 
ATOM      9  O   UNL     1       1.929   9.739  22.288  0.00  0.00    +0.000 OA
ATOM     10  H   UNL     1      -0.552   8.839  20.530  0.00  0.00    +0.000 HD
ENDBRANCH   5   6
BRANCH   1  11
ATOM     11  C   UNL     1       2.885   6.994  19.769  0.00  0.00    +0.000 C 
BRANCH  11  16
ATOM     12  C   UNL     1       3.963   5.579  17.883  0.00  0.00    +0.000 A 
ATOM     13  S   UNL     1       3.808   4.084  17.094  0.00  0.00    +0.000 S 
ATOM     14  C   UNL     1       2.575   3.589  18.128  0.00  0.00    +0.000 A 
ATOM     15  C   UNL     1       2.215   4.565  19.037  0.00  0.00    +0.000 A 
ATOM     16  C   UNL     1       3.018   5.774  18.878  0.00  0.00    +0.000 A 
ATOM     17  C   UNL     1       1.127   4.300  20.044  0.00  0.00    +0.000 C 
ATOM     18  C   UNL     1       0.860   2.790  20.210  0.00  0.00    +0.000 C 
ATOM     19  C   UNL     1       0.738   2.082  18.853  0.00  0.00    +0.000 C 
ATOM     20  C   UNL     1       2.031   2.202  18.045  0.00  0.00    +0.000 C 
BRANCH  12  24
ATOM     21  C   UNL     1       7.150   7.455  17.505  0.00  0.00    +0.000 C 
ATOM     22  C   UNL     1       6.342   6.253  17.888  0.00  0.00    +0.000 C 
ATOM     23  O   UNL     1       6.866   5.321  18.472  0.00  0.00    +0.000 OA
ATOM     24  N   UNL     1       5.015   6.412  17.527  0.00  0.00    +0.000 N 
ATOM     25  H   UNL     1       4.798   7.186  16.911  0.00  0.00    +0.000 HD
ENDBRANCH  12  24
ENDBRANCH  11  16
ENDBRANCH   1  11
BRANCH   4  26
ATOM     26  S   UNL     1      -0.533  10.861  18.602  0.00  0.00    +0.000 S 
BRANCH  26  27
ATOM     27  C   UNL     1      -0.026  12.198  19.745  0.00  0.00    +0.000 C 
BRANCH  27  28
ATOM     28  C   UNL     1       1.005  13.129  19.211  0.00  0.00    +0.000 A 
ATOM     29  N   UNL     1       2.270  12.873  18.926  0.00  0.00    +0.000 NA
ATOM     30  N   UNL     1       2.863  14.043  18.501  0.00  0.00    +0.000 NA
ATOM     31  C   UNL     1       1.962  14.990  18.570  0.00  0.00    +0.000 A 
ATOM     32  N   UNL     1       0.743  14.438  18.859  0.00  0.00    +0.000 N 
BRANCH  32  33
ATOM     33  N   UNL     1      -0.545  15.048  18.686  0.00  0.00    +0.000 N 
ATOM     34  H   UNL     1      -0.454  16.064  18.780  0.00  0.00    +0.000 HD
ATOM     35  H   UNL     1      -0.856  14.928  17.721  0.00  0.00    +0.000 HD
ENDBRANCH  32  33
BRANCH  31  36
ATOM     36  S   UNL     1       2.236  16.682  18.372  0.00  0.00    +0.000 S 
ATOM     37  H   UNL     1       1.276  16.895  17.456  0.00  0.00    +0.000 HD
ENDBRANCH  31  36
ENDBRANCH  27  28
ENDBRANCH  26  27
ENDBRANCH   4  26
TORSDOF 9
ENDMDL
MODEL 4
REMARK VINA RESULT:      -7.7      0.999      1.036
REMARK  Name = 
REMARK  11 active torsions:
REMARK  status: ('A' for Active; 'I' for Inactive)
REMARK    1  A    between atoms: C_1  and  C_2
REMARK    2  A    between atoms: N_4  and  C_5
REMARK    3  A    between atoms: C_9  and  C_10
REMARK    4  A    between atoms: C_10  and  C_11
REMARK    5  A    between atoms: C_14  and  S_15
REMARK    6  A    between atoms: S_15  and  C_16
REMARK    7  A    between atoms: C_16  and  C_17
REMARK    8  A    between atoms: C_20  and  S_21
REMARK    9  A    between atoms: N_22  and  N_23
REMARK   10  A    between atoms: N_24  and  N_25
REMARK   11  A    between atoms: C_26  and  C_27
REMARK                            x       y       z     vdW  Elec       q    Type
REMARK                         _______ _______ _______ _____ _____    ______ ____
ROOT
ATOM      1  C   UNL     1       1.953   8.301  19.150  0.00  0.00    +0.000 A 
ATOM      2  N   UNL     1       1.729   8.350  17.841  0.00  0.00    +0.000 NA
ATOM      3  N   UNL     1       0.914   9.421  17.560  0.00  0.00    +0.000 NA
ATOM      4  C   UNL     1       0.646  10.017  18.695  0.00  0.00    +0.000 A 
ATOM      5  N   UNL     1       1.336   9.395  19.725  0.00  0.00    +0.000 N 
ENDROOT
BRANCH   5   6
ATOM      6  N   UNL     1       1.103   9.686  21.044  0.00  0.00    +0.000 N 
ATOM      7  C   UNL     1       0.196   8.993  21.813  0.00  0.00    +0.000 C 
ATOM      8  C   UNL     1       0.311   9.310  23.285  0.00  0.00    +0.000 C 
ATOM      9  O   UNL     1      -0.665   8.227  21.397  0.00  0.00    +0.000 OA
ATOM     10  H   UNL     1       1.934  10.041  21.507  0.00  0.00    +0.000 HD
ENDBRANCH   5   6
BRANCH   1  11
ATOM     11  C   UNL     1       2.671   7.158  19.804  0.00  0.00    +0.000 C 
BRANCH  11  16
ATOM     12  C   UNL     1       3.850   5.770  17.959  0.00  0.00    +0.000 A 
ATOM     13  S   UNL     1       3.787   4.256  17.194  0.00  0.00    +0.000 S 
ATOM     14  C   UNL     1       2.566   3.714  18.220  0.00  0.00    +0.000 A 
ATOM     15  C   UNL     1       2.141   4.684  19.106  0.00  0.00    +0.000 A 
ATOM     16  C   UNL     1       2.882   5.932  18.936  0.00  0.00    +0.000 A 
ATOM     17  C   UNL     1       1.053   4.380  20.102  0.00  0.00    +0.000 C 
ATOM     18  C   UNL     1       0.865   2.861  20.291  0.00  0.00    +0.000 C 
ATOM     19  C   UNL     1       0.801   2.124  18.946  0.00  0.00    +0.000 C 
ATOM     20  C   UNL     1       2.097   2.299  18.154  0.00  0.00    +0.000 C 
BRANCH  12  24
ATOM     21  C   UNL     1       7.004   7.667  17.429  0.00  0.00    +0.000 C 
ATOM     22  C   UNL     1       6.223   6.416  17.698  0.00  0.00    +0.000 C 
ATOM     23  O   UNL     1       6.798   5.383  17.991  0.00  0.00    +0.000 OA
ATOM     24  N   UNL     1       4.862   6.652  17.603  0.00  0.00    +0.000 N 
ATOM     25  H   UNL     1       4.577   7.535  17.196  0.00  0.00    +0.000 HD
ENDBRANCH  12  24
ENDBRANCH  11  16
ENDBRANCH   1  11
BRANCH   4  26
ATOM     26  S   UNL     1      -0.452  11.340  18.935  0.00  0.00    +0.000 S 
BRANCH  26  27
ATOM     27  C   UNL     1       0.557  12.821  18.560  0.00  0.00    +0.000 C 
BRANCH  27  28
ATOM     28  C   UNL     1       1.593  13.154  19.576  0.00  0.00    +0.000 A 
ATOM     29  N   UNL     1       1.601  12.857  20.864  0.00  0.00    +0.000 NA
ATOM     30  N   UNL     1       2.735  13.404  21.427  0.00  0.00    +0.000 NA
ATOM     31  C   UNL     1       3.372  14.051  20.483  0.00  0.00    +0.000 A 
ATOM     32  N   UNL     1       2.780  13.792  19.276  0.00  0.00    +0.000 N 
BRANCH  32  33
ATOM     33  N   UNL     1       3.345  14.005  17.973  0.00  0.00    +0.000 N 
ATOM     34  H   UNL     1       2.620  13.867  17.262  0.00  0.00    +0.000 HD
ATOM     35  H   UNL     1       3.599  14.988  17.865  0.00  0.00    +0.000 HD
ENDBRANCH  32  33
BRANCH  31  36
ATOM     36  S   UNL     1       4.724  15.101  20.692  0.00  0.00    +0.000 S 
ATOM     37  H   UNL     1       5.663  14.244  20.259  0.00  0.00    +0.000 HD
ENDBRANCH  31  36
ENDBRANCH  27  28
ENDBRANCH  26  27
ENDBRANCH   4  26
TORSDOF 9
ENDMDL
MODEL 5
REMARK VINA RESULT:      -7.7      2.351      3.321
REMARK  Name = 
REMARK  11 active torsions:
REMARK  status: ('A' for Active; 'I' for Inactive)
REMARK    1  A    between atoms: C_1  and  C_2
REMARK    2  A    between atoms: N_4  and  C_5
REMARK    3  A    between atoms: C_9  and  C_10
REMARK    4  A    between atoms: C_10  and  C_11
REMARK    5  A    between atoms: C_14  and  S_15
REMARK    6  A    between atoms: S_15  and  C_16
REMARK    7  A    between atoms: C_16  and  C_17
REMARK    8  A    between atoms: C_20  and  S_21
REMARK    9  A    between atoms: N_22  and  N_23
REMARK   10  A    between atoms: N_24  and  N_25
REMARK   11  A    between atoms: C_26  and  C_27
REMARK                            x       y       z     vdW  Elec       q    Type
REMARK                         _______ _______ _______ _____ _____    ______ ____
ROOT
ATOM      1  C   UNL     1       2.164   8.233  19.235  0.00  0.00    +0.000 A 
ATOM      2  N   UNL     1       2.557   8.585  18.014  0.00  0.00    +0.000 NA
ATOM      3  N   UNL     1       1.880   9.716  17.627  0.00  0.00    +0.000 NA
ATOM      4  C   UNL     1       1.080  10.048  18.610  0.00  0.00    +0.000 A 
ATOM      5  N   UNL     1       1.271   9.189  19.681  0.00  0.00    +0.000 N 
ENDROOT
BRANCH   5   6
ATOM      6  N   UNL     1       0.442   9.181  20.773  0.00  0.00    +0.000 N 
ATOM      7  C   UNL     1       0.875   9.487  22.043  0.00  0.00    +0.000 C 
ATOM      8  C   UNL     1      -0.260   9.676  23.020  0.00  0.00    +0.000 C 
ATOM      9  O   UNL     1       2.042   9.565  22.406  0.00  0.00    +0.000 OA
ATOM     10  H   UNL     1      -0.510   9.436  20.529  0.00  0.00    +0.000 HD
ENDBRANCH   5   6
BRANCH   1  11
ATOM     11  C   UNL     1       2.591   6.950  19.882  0.00  0.00    +0.000 C 
BRANCH  11  16
ATOM     12  C   UNL     1       3.740   5.669  17.943  0.00  0.00    +0.000 A 
ATOM     13  S   UNL     1       3.665   4.200  17.097  0.00  0.00    +0.000 S 
ATOM     14  C   UNL     1       2.464   3.599  18.112  0.00  0.00    +0.000 A 
ATOM     15  C   UNL     1       2.053   4.518  19.058  0.00  0.00    +0.000 A 
ATOM     16  C   UNL     1       2.789   5.775  18.945  0.00  0.00    +0.000 A 
ATOM     17  C   UNL     1       0.983   4.156  20.054  0.00  0.00    +0.000 C 
ATOM     18  C   UNL     1       0.800   2.629  20.163  0.00  0.00    +0.000 C 
ATOM     19  C   UNL     1       0.714   1.967  18.780  0.00  0.00    +0.000 C 
ATOM     20  C   UNL     1       1.995   2.189  17.976  0.00  0.00    +0.000 C 
BRANCH  12  24
ATOM     21  C   UNL     1       6.877   7.613  17.486  0.00  0.00    +0.000 C 
ATOM     22  C   UNL     1       6.107   6.347  17.712  0.00  0.00    +0.000 C 
ATOM     23  O   UNL     1       6.691   5.311  17.977  0.00  0.00    +0.000 OA
ATOM     24  N   UNL     1       4.745   6.572  17.619  0.00  0.00    +0.000 N 
ATOM     25  H   UNL     1       4.452   7.464  17.238  0.00  0.00    +0.000 HD
ENDBRANCH  12  24
ENDBRANCH  11  16
ENDBRANCH   1  11
BRANCH   4  26
ATOM     26  S   UNL     1      -0.106  11.317  18.596  0.00  0.00    +0.000 S 
BRANCH  26  27
ATOM     27  C   UNL     1      -1.638  10.479  18.045  0.00  0.00    +0.000 C 
BRANCH  27  28
ATOM     28  C   UNL     1      -2.902  11.191  18.378  0.00  0.00    +0.000 A 
ATOM     29  N   UNL     1      -3.169  11.932  19.440  0.00  0.00    +0.000 NA
ATOM     30  N   UNL     1      -4.478  12.354  19.355  0.00  0.00    +0.000 NA
ATOM     31  C   UNL     1      -4.991  11.835  18.268  0.00  0.00    +0.000 A 
ATOM     32  N   UNL     1      -4.000  11.229  17.543  0.00  0.00    +0.000 N 
BRANCH  32  33
ATOM     33  N   UNL     1      -4.051  10.850  16.159  0.00  0.00    +0.000 N 
ATOM     34  H   UNL     1      -4.875  10.264  15.998  0.00  0.00    +0.000 HD
ATOM     35  H   UNL     1      -4.230  11.674  15.583  0.00  0.00    +0.000 HD
ENDBRANCH  32  33
BRANCH  31  36
ATOM     36  S   UNL     1      -6.652  11.857  17.806  0.00  0.00    +0.000 S 
ATOM     37  H   UNL     1      -7.114  11.115  18.826  0.00  0.00    +0.000 HD
ENDBRANCH  31  36
ENDBRANCH  27  28
ENDBRANCH  26  27
ENDBRANCH   4  26
TORSDOF 9
ENDMDL
MODEL 6
REMARK VINA RESULT:      -7.5      0.950      1.069
REMARK  Name = 
REMARK  11 active torsions:
REMARK  status: ('A' for Active; 'I' for Inactive)
REMARK    1  A    between atoms: C_1  and  C_2
REMARK    2  A    between atoms: N_4  and  C_5
REMARK    3  A    between atoms: C_9  and  C_10
REMARK    4  A    between atoms: C_10  and  C_11
REMARK    5  A    between atoms: C_14  and  S_15
REMARK    6  A    between atoms: S_15  and  C_16
REMARK    7  A    between atoms: C_16  and  C_17
REMARK    8  A    between atoms: C_20  and  S_21
REMARK    9  A    between atoms: N_22  and  N_23
REMARK   10  A    between atoms: N_24  and  N_25
REMARK   11  A    between atoms: C_26  and  C_27
REMARK                            x       y       z     vdW  Elec       q    Type
REMARK                         _______ _______ _______ _____ _____    ______ ____
ROOT
ATOM      1  C   UNL     1       2.172   8.242  19.202  0.00  0.00    +0.000 A 
ATOM      2  N   UNL     1       2.476   8.645  17.972  0.00  0.00    +0.000 NA
ATOM      3  N   UNL     1       1.642   9.677  17.613  0.00  0.00    +0.000 NA
ATOM      4  C   UNL     1       0.836   9.898  18.623  0.00  0.00    +0.000 A 
ATOM      5  N   UNL     1       1.175   9.069  19.681  0.00  0.00    +0.000 N 
ENDROOT
BRANCH   5   6
ATOM      6  N   UNL     1       0.388   8.948  20.799  0.00  0.00    +0.000 N 
ATOM      7  C   UNL     1       0.806   9.335  22.052  0.00  0.00    +0.000 C 
ATOM      8  C   UNL     1      -0.316   9.359  23.062  0.00  0.00    +0.000 C 
ATOM      9  O   UNL     1       1.957   9.595  22.378  0.00  0.00    +0.000 OA
ATOM     10  H   UNL     1      -0.598   9.051  20.581  0.00  0.00    +0.000 HD
ENDBRANCH   5   6
BRANCH   1  11
ATOM     11  C   UNL     1       2.787   7.026  19.828  0.00  0.00    +0.000 C 
BRANCH  11  16
ATOM     12  C   UNL     1       3.891   5.669  17.915  0.00  0.00    +0.000 A 
ATOM     13  S   UNL     1       3.768   4.186  17.100  0.00  0.00    +0.000 S 
ATOM     14  C   UNL     1       2.549   3.645  18.128  0.00  0.00    +0.000 A 
ATOM     15  C   UNL     1       2.169   4.596  19.055  0.00  0.00    +0.000 A 
ATOM     16  C   UNL     1       2.945   5.825  18.915  0.00  0.00    +0.000 A 
ATOM     17  C   UNL     1       1.089   4.290  20.059  0.00  0.00    +0.000 C 
ATOM     18  C   UNL     1       0.857   2.772  20.198  0.00  0.00    +0.000 C 
ATOM     19  C   UNL     1       0.748   2.085  18.830  0.00  0.00    +0.000 C 
ATOM     20  C   UNL     1       2.035   2.248  18.021  0.00  0.00    +0.000 C 
BRANCH  12  24
ATOM     21  C   UNL     1       7.076   7.534  17.465  0.00  0.00    +0.000 C 
ATOM     22  C   UNL     1       6.277   6.299  17.750  0.00  0.00    +0.000 C 
ATOM     23  O   UNL     1       6.832   5.280  18.123  0.00  0.00    +0.000 OA
ATOM     24  N   UNL     1       4.924   6.531  17.572  0.00  0.00    +0.000 N 
ATOM     25  H   UNL     1       4.665   7.394  17.109  0.00  0.00    +0.000 HD
ENDBRANCH  12  24
ENDBRANCH  11  16
ENDBRANCH   1  11
BRANCH   4  26
ATOM     26  S   UNL     1      -0.507  10.997  18.653  0.00  0.00    +0.000 S 
BRANCH  26  27
ATOM     27  C   UNL     1      -0.064  12.196  19.963  0.00  0.00    +0.000 C 
BRANCH  27  28
ATOM     28  C   UNL     1       0.263  13.566  19.482  0.00  0.00    +0.000 A 
ATOM     29  N   UNL     1      -0.569  14.523  19.110  0.00  0.00    +0.000 NA
ATOM     30  N   UNL     1       0.176  15.607  18.696  0.00  0.00    +0.000 NA
ATOM     31  C   UNL     1       1.439  15.277  18.791  0.00  0.00    +0.000 A 
ATOM     32  N   UNL     1       1.547  14.069  19.425  0.00  0.00    +0.000 N 
BRANCH  32  33
ATOM     33  N   UNL     1       2.724  13.514  20.032  0.00  0.00    +0.000 N 
ATOM     34  H   UNL     1       3.501  14.173  19.931  0.00  0.00    +0.000 HD
ATOM     35  H   UNL     1       2.594  13.455  21.043  0.00  0.00    +0.000 HD
ENDBRANCH  32  33
BRANCH  31  36
ATOM     36  S   UNL     1       2.782  16.178  18.189  0.00  0.00    +0.000 S 
ATOM     37  H   UNL     1       3.510  16.155  19.318  0.00  0.00    +0.000 HD
ENDBRANCH  31  36
ENDBRANCH  27  28
ENDBRANCH  26  27
ENDBRANCH   4  26
TORSDOF 9
ENDMDL
MODEL 7
REMARK VINA RESULT:      -7.4      1.426      1.766
REMARK  Name = 
REMARK  11 active torsions:
REMARK  status: ('A' for Active; 'I' for Inactive)
REMARK    1  A    between atoms: C_1  and  C_2
REMARK    2  A    between atoms: N_4  and  C_5
REMARK    3  A    between atoms: C_9  and  C_10
REMARK    4  A    between atoms: C_10  and  C_11
REMARK    5  A    between atoms: C_14  and  S_15
REMARK    6  A    between atoms: S_15  and  C_16
REMARK    7  A    between atoms: C_16  and  C_17
REMARK    8  A    between atoms: C_20  and  S_21
REMARK    9  A    between atoms: N_22  and  N_23
REMARK   10  A    between atoms: N_24  and  N_25
REMARK   11  A    between atoms: C_26  and  C_27
REMARK                            x       y       z     vdW  Elec       q    Type
REMARK                         _______ _______ _______ _____ _____    ______ ____
ROOT
ATOM      1  C   UNL     1       2.276   8.107  19.044  0.00  0.00    +0.000 A 
ATOM      2  N   UNL     1       2.425   8.454  17.770  0.00  0.00    +0.000 NA
ATOM      3  N   UNL     1       1.465   9.378  17.435  0.00  0.00    +0.000 NA
ATOM      4  C   UNL     1       0.738   9.590  18.504  0.00  0.00    +0.000 A 
ATOM      5  N   UNL     1       1.250   8.868  19.570  0.00  0.00    +0.000 N 
ENDROOT
BRANCH   5   6
ATOM      6  N   UNL     1       0.585   8.750  20.764  0.00  0.00    +0.000 N 
ATOM      7  C   UNL     1       0.652   9.704  21.754  0.00  0.00    +0.000 C 
ATOM      8  C   UNL     1      -0.368   9.486  22.847  0.00  0.00    +0.000 C 
ATOM      9  O   UNL     1       1.460  10.622  21.816  0.00  0.00    +0.000 OA
ATOM     10  H   UNL     1      -0.286   8.239  20.663  0.00  0.00    +0.000 HD
ENDBRANCH   5   6
BRANCH   1  11
ATOM     11  C   UNL     1       3.061   6.997  19.676  0.00  0.00    +0.000 C 
BRANCH  11  16
ATOM     12  C   UNL     1       4.214   5.456  17.938  0.00  0.00    +0.000 A 
ATOM     13  S   UNL     1       4.048   3.940  17.195  0.00  0.00    +0.000 S 
ATOM     14  C   UNL     1       2.714   3.546  18.143  0.00  0.00    +0.000 A 
ATOM     15  C   UNL     1       2.331   4.574  18.983  0.00  0.00    +0.000 A 
ATOM     16  C   UNL     1       3.204   5.736  18.845  0.00  0.00    +0.000 A 
ATOM     17  C   UNL     1       1.155   4.402  19.907  0.00  0.00    +0.000 C 
ATOM     18  C   UNL     1       0.801   2.914  20.107  0.00  0.00    +0.000 C 
ATOM     19  C   UNL     1       0.752   2.157  18.772  0.00  0.00    +0.000 C 
ATOM     20  C   UNL     1       2.109   2.183  18.068  0.00  0.00    +0.000 C 
BRANCH  12  24
ATOM     21  C   UNL     1       7.520   7.147  17.736  0.00  0.00    +0.000 C 
ATOM     22  C   UNL     1       6.623   5.997  18.082  0.00  0.00    +0.000 C 
ATOM     23  O   UNL     1       7.056   5.047  18.709  0.00  0.00    +0.000 OA
ATOM     24  N   UNL     1       5.332   6.224  17.638  0.00  0.00    +0.000 N 
ATOM     25  H   UNL     1       5.196   7.000  17.000  0.00  0.00    +0.000 HD
ENDBRANCH  12  24
ENDBRANCH  11  16
ENDBRANCH   1  11
BRANCH   4  26
ATOM     26  S   UNL     1      -0.699  10.561  18.601  0.00  0.00    +0.000 S 
BRANCH  26  27
ATOM     27  C   UNL     1      -0.066  12.251  18.911  0.00  0.00    +0.000 C 
BRANCH  27  28
ATOM     28  C   UNL     1      -0.662  12.944  20.086  0.00  0.00    +0.000 A 
ATOM     29  N   UNL     1      -1.926  12.955  20.475  0.00  0.00    +0.000 NA
ATOM     30  N   UNL     1      -2.029  13.763  21.587  0.00  0.00    +0.000 NA
ATOM     31  C   UNL     1      -0.840  14.254  21.830  0.00  0.00    +0.000 A 
ATOM     32  N   UNL     1       0.077  13.647  21.014  0.00  0.00    +0.000 N 
BRANCH  32  33
ATOM     33  N   UNL     1       1.503  13.628  21.182  0.00  0.00    +0.000 N 
ATOM     34  H   UNL     1       1.873  14.573  21.050  0.00  0.00    +0.000 HD
ATOM     35  H   UNL     1       1.732  13.419  22.155  0.00  0.00    +0.000 HD
ENDBRANCH  32  33
BRANCH  31  36
ATOM     36  S   UNL     1      -0.455  15.495  22.964  0.00  0.00    +0.000 S 
ATOM     37  H   UNL     1       0.389  16.180  22.175  0.00  0.00    +0.000 HD
ENDBRANCH  31  36
ENDBRANCH  27  28
ENDBRANCH  26  27
ENDBRANCH   4  26
TORSDOF 9
ENDMDL
MODEL 8
REMARK VINA RESULT:      -7.4      1.830      2.434
REMARK  Name = 
REMARK  11 active torsions:
REMARK  status: ('A' for Active; 'I' for Inactive)
REMARK    1  A    between atoms: C_1  and  C_2
REMARK    2  A    between atoms: N_4  and  C_5
REMARK    3  A    between atoms: C_9  and  C_10
REMARK    4  A    between atoms: C_10  and  C_11
REMARK    5  A    between atoms: C_14  and  S_15
REMARK    6  A    between atoms: S_15  and  C_16
REMARK    7  A    between atoms: C_16  and  C_17
REMARK    8  A    between atoms: C_20  and  S_21
REMARK    9  A    between atoms: N_22  and  N_23
REMARK   10  A    between atoms: N_24  and  N_25
REMARK   11  A    between atoms: C_26  and  C_27
REMARK                            x       y       z     vdW  Elec       q    Type
REMARK                         _______ _______ _______ _____ _____    ______ ____
ROOT
ATOM      1  C   UNL     1       2.242   8.053  19.281  0.00  0.00    +0.000 A 
ATOM      2  N   UNL     1       2.531   8.379  18.025  0.00  0.00    +0.000 NA
ATOM      3  N   UNL     1       1.659   9.351  17.597  0.00  0.00    +0.000 NA
ATOM      4  C   UNL     1       0.845   9.611  18.590  0.00  0.00    +0.000 A 
ATOM      5  N   UNL     1       1.214   8.873  19.703  0.00  0.00    +0.000 N 
ENDROOT
BRANCH   5   6
ATOM      6  N   UNL     1       0.432   8.801  20.828  0.00  0.00    +0.000 N 
ATOM      7  C   UNL     1       0.829   9.300  22.047  0.00  0.00    +0.000 C 
ATOM      8  C   UNL     1      -0.295   9.350  23.055  0.00  0.00    +0.000 C 
ATOM      9  O   UNL     1       1.967   9.637  22.351  0.00  0.00    +0.000 OA
ATOM     10  H   UNL     1      -0.558   8.842  20.605  0.00  0.00    +0.000 HD
ENDBRANCH   5   6
BRANCH   1  11
ATOM     11  C   UNL     1       2.902   6.908  19.990  0.00  0.00    +0.000 C 
BRANCH  11  16
ATOM     12  C   UNL     1       4.305   5.447  18.371  0.00  0.00    +0.000 A 
ATOM     13  S   UNL     1       4.268   3.957  17.560  0.00  0.00    +0.000 S 
ATOM     14  C   UNL     1       2.825   3.511  18.305  0.00  0.00    +0.000 A 
ATOM     15  C   UNL     1       2.314   4.503  19.120  0.00  0.00    +0.000 A 
ATOM     16  C   UNL     1       3.178   5.681  19.142  0.00  0.00    +0.000 A 
ATOM     17  C   UNL     1       1.027   4.283  19.870  0.00  0.00    +0.000 C 
ATOM     18  C   UNL     1       0.676   2.784  19.968  0.00  0.00    +0.000 C 
ATOM     19  C   UNL     1       0.821   2.076  18.614  0.00  0.00    +0.000 C 
ATOM     20  C   UNL     1       2.259   2.145  18.101  0.00  0.00    +0.000 C 
BRANCH  12  24
ATOM     21  C   UNL     1       7.273   7.416  17.303  0.00  0.00    +0.000 C 
ATOM     22  C   UNL     1       5.917   6.815  17.088  0.00  0.00    +0.000 C 
ATOM     23  O   UNL     1       5.400   6.843  15.985  0.00  0.00    +0.000 OA
ATOM     24  N   UNL     1       5.439   6.240  18.253  0.00  0.00    +0.000 N 
ATOM     25  H   UNL     1       5.940   6.452  19.108  0.00  0.00    +0.000 HD
ENDBRANCH  12  24
ENDBRANCH  11  16
ENDBRANCH   1  11
BRANCH   4  26
ATOM     26  S   UNL     1      -0.539  10.658  18.545  0.00  0.00    +0.000 S 
BRANCH  26  27
ATOM     27  C   UNL     1      -0.059  12.067  19.611  0.00  0.00    +0.000 C 
BRANCH  27  28
ATOM     28  C   UNL     1      -1.154  12.631  20.445  0.00  0.00    +0.000 A 
ATOM     29  N   UNL     1      -1.746  12.089  21.496  0.00  0.00    +0.000 NA
ATOM     30  N   UNL     1      -2.736  12.947  21.926  0.00  0.00    +0.000 NA
ATOM     31  C   UNL     1      -2.753  13.971  21.110  0.00  0.00    +0.000 A 
ATOM     32  N   UNL     1      -1.680  13.894  20.263  0.00  0.00    +0.000 N 
BRANCH  32  33
ATOM     33  N   UNL     1      -1.131  14.955  19.466  0.00  0.00    +0.000 N 
ATOM     34  H   UNL     1      -1.797  15.732  19.429  0.00  0.00    +0.000 HD
ATOM     35  H   UNL     1      -0.323  15.360  19.943  0.00  0.00    +0.000 HD
ENDBRANCH  32  33
BRANCH  31  36
ATOM     36  S   UNL     1      -3.942  15.219  21.055  0.00  0.00    +0.000 S 
ATOM     37  H   UNL     1      -3.566  15.750  19.880  0.00  0.00    +0.000 HD
ENDBRANCH  31  36
ENDBRANCH  27  28
ENDBRANCH  26  27
ENDBRANCH   4  26
TORSDOF 9
ENDMDL
MODEL 9
REMARK VINA RESULT:      -7.4      1.715      2.005
REMARK  Name = 
REMARK  11 active torsions:
REMARK  status: ('A' for Active; 'I' for Inactive)
REMARK    1  A    between atoms: C_1  and  C_2
REMARK    2  A    between atoms: N_4  and  C_5
REMARK    3  A    between atoms: C_9  and  C_10
REMARK    4  A    between atoms: C_10  and  C_11
REMARK    5  A    between atoms: C_14  and  S_15
REMARK    6  A    between atoms: S_15  and  C_16
REMARK    7  A    between atoms: C_16  and  C_17
REMARK    8  A    between atoms: C_20  and  S_21
REMARK    9  A    between atoms: N_22  and  N_23
REMARK   10  A    between atoms: N_24  and  N_25
REMARK   11  A    between atoms: C_26  and  C_27
REMARK                            x       y       z     vdW  Elec       q    Type
REMARK                         _______ _______ _______ _____ _____    ______ ____
ROOT
ATOM      1  C   UNL     1       2.119   8.089  19.139  0.00  0.00    +0.000 A 
ATOM      2  N   UNL     1       1.958   8.028  17.821  0.00  0.00    +0.000 NA
ATOM      3  N   UNL     1       1.131   9.048  17.417  0.00  0.00    +0.000 NA
ATOM      4  C   UNL     1       0.793   9.724  18.487  0.00  0.00    +0.000 A 
ATOM      5  N   UNL     1       1.447   9.207  19.594  0.00  0.00    +0.000 N 
ENDROOT
BRANCH   5   6
ATOM      6  N   UNL     1       1.142   9.594  20.874  0.00  0.00    +0.000 N 
ATOM      7  C   UNL     1       0.236   8.922  21.662  0.00  0.00    +0.000 C 
ATOM      8  C   UNL     1       0.271   9.366  23.105  0.00  0.00    +0.000 C 
ATOM      9  O   UNL     1      -0.568   8.081  21.278  0.00  0.00    +0.000 OA
ATOM     10  H   UNL     1       1.934  10.029  21.337  0.00  0.00    +0.000 HD
ENDBRANCH   5   6
BRANCH   1  11
ATOM     11  C   UNL     1       2.832   7.022  19.916  0.00  0.00    +0.000 C 
BRANCH  11  16
ATOM     12  C   UNL     1       4.315   5.500  18.431  0.00  0.00    +0.000 A 
ATOM     13  S   UNL     1       4.330   3.967  17.703  0.00  0.00    +0.000 S 
ATOM     14  C   UNL     1       2.869   3.538  18.420  0.00  0.00    +0.000 A 
ATOM     15  C   UNL     1       2.314   4.563  19.161  0.00  0.00    +0.000 A 
ATOM     16  C   UNL     1       3.157   5.756  19.147  0.00  0.00    +0.000 A 
ATOM     17  C   UNL     1       1.004   4.362  19.876  0.00  0.00    +0.000 C 
ATOM     18  C   UNL     1       0.673   2.865  20.045  0.00  0.00    +0.000 C 
ATOM     19  C   UNL     1       0.878   2.086  18.738  0.00  0.00    +0.000 C 
ATOM     20  C   UNL     1       2.332   2.153  18.272  0.00  0.00    +0.000 C 
BRANCH  12  24
ATOM     21  C   UNL     1       7.275   7.477  17.356  0.00  0.00    +0.000 C 
ATOM     22  C   UNL     1       5.932   6.850  17.134  0.00  0.00    +0.000 C 
ATOM     23  O   UNL     1       5.435   6.836  16.022  0.00  0.00    +0.000 OA
ATOM     24  N   UNL     1       5.441   6.305  18.308  0.00  0.00    +0.000 N 
ATOM     25  H   UNL     1       5.922   6.550  19.165  0.00  0.00    +0.000 HD
ENDBRANCH  12  24
ENDBRANCH  11  16
ENDBRANCH   1  11
BRANCH   4  26
ATOM     26  S   UNL     1      -0.349  11.030  18.567  0.00  0.00    +0.000 S 
BRANCH  26  27
ATOM     27  C   UNL     1       0.688  12.499  18.912  0.00  0.00    +0.000 C 
BRANCH  27  28
ATOM     28  C   UNL     1       0.428  13.164  20.218  0.00  0.00    +0.000 A 
ATOM     29  N   UNL     1       0.996  12.923  21.387  0.00  0.00    +0.000 NA
ATOM     30  N   UNL     1       0.415  13.745  22.328  0.00  0.00    +0.000 NA
ATOM     31  C   UNL     1      -0.517  14.440  21.725  0.00  0.00    +0.000 A 
ATOM     32  N   UNL     1      -0.440  14.226  20.375  0.00  0.00    +0.000 N 
BRANCH  32  33
ATOM     33  N   UNL     1      -1.022  15.031  19.338  0.00  0.00    +0.000 N 
ATOM     34  H   UNL     1      -1.815  15.554  19.719  0.00  0.00    +0.000 HD
ATOM     35  H   UNL     1      -0.366  15.763  19.062  0.00  0.00    +0.000 HD
ENDBRANCH  32  33
BRANCH  31  36
ATOM     36  S   UNL     1      -1.696  15.448  22.479  0.00  0.00    +0.000 S 
ATOM     37  H   UNL     1      -0.863  16.052  23.343  0.00  0.00    +0.000 HD
ENDBRANCH  31  36
ENDBRANCH  27  28
ENDBRANCH  26  27
ENDBRANCH   4  26
TORSDOF 9
ENDMDL
