MODEL 1
REMARK VINA RESULT:      -8.2      0.000      0.000
REMARK  Name = 
REMARK  6 active torsions:
REMARK  status: ('A' for Active; 'I' for Inactive)
REMARK    1  A    between atoms: C_2  and  C_3
REMARK    2  A    between atoms: C_3  and  C_4
REMARK    3  A    between atoms: C_7  and  N_8
REMARK    4  A    between atoms: N_13  and  O_14
REMARK    5  A    between atoms: O_14  and  C_15
REMARK    6  A    between atoms: C_15  and  C_17
REMARK                            x       y       z     vdW  Elec       q    Type
REMARK                         _______ _______ _______ _____ _____    ______ ____
ROOT
ATOM      1  N   UNL     1       0.338   4.240  20.354  0.00  0.00    +0.000 N 
ATOM      2  C   UNL     1       1.688   4.001  20.328  0.00  0.00    +0.000 C 
ATOM      3  N   UNL     1       2.053   2.766  20.114  0.00  0.00    +0.000 NA
ATOM      4  H   UNL     1       0.005   4.920  21.029  0.00  0.00    +0.000 HD
ATOM      5  H   UNL     1      -0.201   3.378  20.358  0.00  0.00    +0.000 HD
ENDROOT
BRANCH   2   6
ATOM      6  C   UNL     1       2.639   5.162  20.551  0.00  0.00    +0.000 C 
BRANCH   6   7
ATOM      7  C   UNL     1       2.167   6.502  20.017  0.00  0.00    +0.000 A 
ATOM      8  C   UNL     1       1.562   7.467  20.836  0.00  0.00    +0.000 A 
ATOM      9  C   UNL     1       1.238   8.731  20.332  0.00  0.00    +0.000 A 
ATOM     10  C   UNL     1       1.524   9.041  18.998  0.00  0.00    +0.000 A 
ATOM     11  C   UNL     1       2.123   8.091  18.164  0.00  0.00    +0.000 A 
ATOM     12  C   UNL     1       2.447   6.832  18.678  0.00  0.00    +0.000 A 
BRANCH  10  13
ATOM     13  N   UNL     1       1.212  10.376  18.472  0.00  0.00    +0.000 N 
ATOM     14  O   UNL     1       0.027  10.738  18.489  0.00  0.00    +0.000 OA
ATOM     15  O   UNL     1       2.152  11.064  18.047  0.00  0.00    +0.000 OA
ENDBRANCH  10  13
ENDBRANCH   6   7
ENDBRANCH   2   6
BRANCH   3  16
ATOM     16  O   UNL     1       3.447   2.549  20.085  0.00  0.00    +0.000 OA
BRANCH  16  17
ATOM     17  C   UNL     1       3.810   2.437  18.769  0.00  0.00    +0.000 C 
ATOM     18  O   UNL     1       3.491   1.532  18.002  0.00  0.00    +0.000 OA
BRANCH  17  19
ATOM     19  C   UNL     1       4.636   3.573  18.283  0.00  0.00    +0.000 A 
ATOM     20  C   UNL     1       4.247   4.141  17.061  0.00  0.00    +0.000 A 
ATOM     21  C   UNL     1       4.891   5.265  16.558  0.00  0.00    +0.000 A 
ATOM     22  C   UNL     1       5.944   5.850  17.265  0.00  0.00    +0.000 A 
ATOM     23  C   UNL     1       6.499   7.060  16.830  0.00  0.00    +0.000 A 
ATOM     24  C   UNL     1       7.546   7.650  17.531  0.00  0.00    +0.000 A 
ATOM     25  C   UNL     1       8.104   6.990  18.622  0.00  0.00    +0.000 A 
ATOM     26  C   UNL     1       7.552   5.786  19.073  0.00  0.00    +0.000 A 
ATOM     27  C   UNL     1       6.424   5.229  18.445  0.00  0.00    +0.000 A 
ATOM     28  C   UNL     1       5.749   4.098  18.958  0.00  0.00    +0.000 A 
ENDBRANCH  17  19
ENDBRANCH  16  17
ENDBRANCH   3  16
TORSDOF 6
ENDMDL
MODEL 2
REMARK VINA RESULT:      -8.1      3.059      6.062
REMARK  Name = 
REMARK  6 active torsions:
REMARK  status: ('A' for Active; 'I' for Inactive)
REMARK    1  A    between atoms: C_2  and  C_3
REMARK    2  A    between atoms: C_3  and  C_4
REMARK    3  A    between atoms: C_7  and  N_8
REMARK    4  A    between atoms: N_13  and  O_14
REMARK    5  A    between atoms: O_14  and  C_15
REMARK    6  A    between atoms: C_15  and  C_17
REMARK                            x       y       z     vdW  Elec       q    Type
REMARK                         _______ _______ _______ _____ _____    ______ ____
ROOT
ATOM      1  N   UNL     1       4.709   1.823  19.362  0.00  0.00    +0.000 N 
ATOM      2  C   UNL     1       4.294   3.033  19.858  0.00  0.00    +0.000 C 
ATOM      3  N   UNL     1       3.252   3.009  20.643  0.00  0.00    +0.000 NA
ATOM      4  H   UNL     1       5.052   1.813  18.407  0.00  0.00    +0.000 HD
ATOM      5  H   UNL     1       4.039   1.084  19.553  0.00  0.00    +0.000 HD
ENDROOT
BRANCH   2   6
ATOM      6  C   UNL     1       5.058   4.283  19.465  0.00  0.00    +0.000 C 
BRANCH   6   7
ATOM      7  C   UNL     1       5.571   4.310  18.037  0.00  0.00    +0.000 A 
ATOM      8  C   UNL     1       4.719   4.193  16.928  0.00  0.00    +0.000 A 
ATOM      9  C   UNL     1       5.214   4.330  15.627  0.00  0.00    +0.000 A 
ATOM     10  C   UNL     1       6.574   4.593  15.426  0.00  0.00    +0.000 A 
ATOM     11  C   UNL     1       7.441   4.709  16.518  0.00  0.00    +0.000 A 
ATOM     12  C   UNL     1       6.935   4.575  17.814  0.00  0.00    +0.000 A 
BRANCH  10  13
ATOM     13  N   UNL     1       7.093   4.766  14.064  0.00  0.00    +0.000 N 
ATOM     14  O   UNL     1       6.616   4.051  13.171  0.00  0.00    +0.000 OA
ATOM     15  O   UNL     1       7.976   5.620  13.886  0.00  0.00    +0.000 OA
ENDBRANCH  10  13
ENDBRANCH   6   7
ENDBRANCH   2   6
BRANCH   3  16
ATOM     16  O   UNL     1       2.850   4.265  21.145  0.00  0.00    +0.000 OA
BRANCH  16  17
ATOM     17  C   UNL     1       1.742   4.647  20.438  0.00  0.00    +0.000 C 
ATOM     18  O   UNL     1       0.749   3.958  20.215  0.00  0.00    +0.000 OA
BRANCH  17  19
ATOM     19  C   UNL     1       1.800   6.053  19.956  0.00  0.00    +0.000 A 
ATOM     20  C   UNL     1       2.361   6.248  18.686  0.00  0.00    +0.000 A 
ATOM     21  C   UNL     1       2.383   7.507  18.100  0.00  0.00    +0.000 A 
ATOM     22  C   UNL     1       1.844   8.606  18.770  0.00  0.00    +0.000 A 
ATOM     23  C   UNL     1       1.738   9.845  18.125  0.00  0.00    +0.000 A 
ATOM     24  C   UNL     1       1.200  10.944  18.787  0.00  0.00    +0.000 A 
ATOM     25  C   UNL     1       0.843  10.835  20.128  0.00  0.00    +0.000 A 
ATOM     26  C   UNL     1       0.933   9.601  20.781  0.00  0.00    +0.000 A 
ATOM     27  C   UNL     1       1.371   8.452  20.098  0.00  0.00    +0.000 A 
ATOM     28  C   UNL     1       1.335   7.164  20.677  0.00  0.00    +0.000 A 
ENDBRANCH  17  19
ENDBRANCH  16  17
ENDBRANCH   3  16
TORSDOF 6
ENDMDL
MODEL 3
REMARK VINA RESULT:      -7.9      2.630      5.699
REMARK  Name = 
REMARK  6 active torsions:
REMARK  status: ('A' for Active; 'I' for Inactive)
REMARK    1  A    between atoms: C_2  and  C_3
REMARK    2  A    between atoms: C_3  and  C_4
REMARK    3  A    between atoms: C_7  and  N_8
REMARK    4  A    between atoms: N_13  and  O_14
REMARK    5  A    between atoms: O_14  and  C_15
REMARK    6  A    between atoms: C_15  and  C_17
REMARK                            x       y       z     vdW  Elec       q    Type
REMARK                         _______ _______ _______ _____ _____    ______ ____
ROOT
ATOM      1  N   UNL     1       3.589   1.232  18.354  0.00  0.00    +0.000 N 
ATOM      2  C   UNL     1       3.131   2.505  18.129  0.00  0.00    +0.000 C 
ATOM      3  N   UNL     1       2.333   3.001  19.035  0.00  0.00    +0.000 NA
ATOM      4  H   UNL     1       3.681   0.628  17.544  0.00  0.00    +0.000 HD
ATOM      5  H   UNL     1       3.110   0.787  19.132  0.00  0.00    +0.000 HD
ENDROOT
BRANCH   2   6
ATOM      6  C   UNL     1       3.571   3.227  16.869  0.00  0.00    +0.000 C 
BRANCH   6   7
ATOM      7  C   UNL     1       4.676   4.250  17.057  0.00  0.00    +0.000 A 
ATOM      8  C   UNL     1       4.841   5.345  16.196  0.00  0.00    +0.000 A 
ATOM      9  C   UNL     1       5.803   6.326  16.462  0.00  0.00    +0.000 A 
ATOM     10  C   UNL     1       6.606   6.219  17.602  0.00  0.00    +0.000 A 
ATOM     11  C   UNL     1       6.460   5.132  18.471  0.00  0.00    +0.000 A 
ATOM     12  C   UNL     1       5.494   4.160  18.198  0.00  0.00    +0.000 A 
BRANCH  10  13
ATOM     13  N   UNL     1       7.598   7.260  17.901  0.00  0.00    +0.000 N 
ATOM     14  O   UNL     1       7.600   8.274  17.188  0.00  0.00    +0.000 OA
ATOM     15  O   UNL     1       8.371   7.065  18.851  0.00  0.00    +0.000 OA
ENDBRANCH  10  13
ENDBRANCH   6   7
ENDBRANCH   2   6
BRANCH   3  16
ATOM     16  O   UNL     1       1.881   4.314  18.783  0.00  0.00    +0.000 OA
BRANCH  16  17
ATOM     17  C   UNL     1       2.399   5.113  19.767  0.00  0.00    +0.000 C 
ATOM     18  O   UNL     1       3.047   4.739  20.742  0.00  0.00    +0.000 OA
BRANCH  17  19
ATOM     19  C   UNL     1       2.147   6.562  19.549  0.00  0.00    +0.000 A 
ATOM     20  C   UNL     1       2.477   7.062  18.281  0.00  0.00    +0.000 A 
ATOM     21  C   UNL     1       2.199   8.379  17.937  0.00  0.00    +0.000 A 
ATOM     22  C   UNL     1       1.582   9.232  18.854  0.00  0.00    +0.000 A 
ATOM     23  C   UNL     1       1.175  10.514  18.464  0.00  0.00    +0.000 A 
ATOM     24  C   UNL     1       0.559  11.368  19.372  0.00  0.00    +0.000 A 
ATOM     25  C   UNL     1       0.423  10.980  20.701  0.00  0.00    +0.000 A 
ATOM     26  C   UNL     1       0.815   9.698  21.103  0.00  0.00    +0.000 A 
ATOM     27  C   UNL     1       1.340   8.780  20.176  0.00  0.00    +0.000 A 
ATOM     28  C   UNL     1       1.609   7.433  20.509  0.00  0.00    +0.000 A 
ENDBRANCH  17  19
ENDBRANCH  16  17
ENDBRANCH   3  16
TORSDOF 6
ENDMDL
MODEL 4
REMARK VINA RESULT:      -7.7      3.250      6.427
REMARK  Name = 
REMARK  6 active torsions:
REMARK  status: ('A' for Active; 'I' for Inactive)
REMARK    1  A    between atoms: C_2  and  C_3
REMARK    2  A    between atoms: C_3  and  C_4
REMARK    3  A    between atoms: C_7  and  N_8
REMARK    4  A    between atoms: N_13  and  O_14
REMARK    5  A    between atoms: O_14  and  C_15
REMARK    6  A    between atoms: C_15  and  C_17
REMARK                            x       y       z     vdW  Elec       q    Type
REMARK                         _______ _______ _______ _____ _____    ______ ____
ROOT
ATOM      1  N   UNL     1       7.841   5.522  19.891  0.00  0.00    +0.000 N 
ATOM      2  C   UNL     1       6.702   5.351  19.147  0.00  0.00    +0.000 C 
ATOM      3  N   UNL     1       5.932   4.353  19.488  0.00  0.00    +0.000 NA
ATOM      4  H   UNL     1       8.674   5.818  19.394  0.00  0.00    +0.000 HD
ATOM      5  H   UNL     1       8.007   4.739  20.517  0.00  0.00    +0.000 HD
ENDROOT
BRANCH   2   6
ATOM      6  C   UNL     1       6.428   6.309  18.003  0.00  0.00    +0.000 C 
BRANCH   6   7
ATOM      7  C   UNL     1       6.356   5.674  16.626  0.00  0.00    +0.000 A 
ATOM      8  C   UNL     1       7.182   4.605  16.246  0.00  0.00    +0.000 A 
ATOM      9  C   UNL     1       7.014   3.976  15.008  0.00  0.00    +0.000 A 
ATOM     10  C   UNL     1       6.009   4.413  14.138  0.00  0.00    +0.000 A 
ATOM     11  C   UNL     1       5.178   5.481  14.495  0.00  0.00    +0.000 A 
ATOM     12  C   UNL     1       5.351   6.100  15.737  0.00  0.00    +0.000 A 
BRANCH  10  13
ATOM     13  N   UNL     1       5.811   3.739  12.849  0.00  0.00    +0.000 N 
ATOM     14  O   UNL     1       6.821   3.403  12.213  0.00  0.00    +0.000 OA
ATOM     15  O   UNL     1       4.645   3.540  12.475  0.00  0.00    +0.000 OA
ENDBRANCH  10  13
ENDBRANCH   6   7
ENDBRANCH   2   6
BRANCH   3  16
ATOM     16  O   UNL     1       4.764   4.204  18.711  0.00  0.00    +0.000 OA
BRANCH  16  17
ATOM     17  C   UNL     1       3.702   4.205  19.576  0.00  0.00    +0.000 C 
ATOM     18  O   UNL     1       3.371   3.286  20.321  0.00  0.00    +0.000 OA
BRANCH  17  19
ATOM     19  C   UNL     1       2.947   5.486  19.587  0.00  0.00    +0.000 A 
ATOM     20  C   UNL     1       2.123   5.707  20.700  0.00  0.00    +0.000 A 
ATOM     21  C   UNL     1       1.443   6.908  20.859  0.00  0.00    +0.000 A 
ATOM     22  C   UNL     1       1.570   7.921  19.906  0.00  0.00    +0.000 A 
ATOM     23  C   UNL     1       0.999   9.180  20.133  0.00  0.00    +0.000 A 
ATOM     24  C   UNL     1       1.123  10.194  19.190  0.00  0.00    +0.000 A 
ATOM     25  C   UNL     1       1.744   9.931  17.972  0.00  0.00    +0.000 A 
ATOM     26  C   UNL     1       2.327   8.681  17.736  0.00  0.00    +0.000 A 
ATOM     27  C   UNL     1       2.309   7.678  18.721  0.00  0.00    +0.000 A 
ATOM     28  C   UNL     1       3.012   6.460  18.579  0.00  0.00    +0.000 A 
ENDBRANCH  17  19
ENDBRANCH  16  17
ENDBRANCH   3  16
TORSDOF 6
ENDMDL
MODEL 5
REMARK VINA RESULT:      -7.6      3.156      6.583
REMARK  Name = 
REMARK  6 active torsions:
REMARK  status: ('A' for Active; 'I' for Inactive)
REMARK    1  A    between atoms: C_2  and  C_3
REMARK    2  A    between atoms: C_3  and  C_4
REMARK    3  A    between atoms: C_7  and  N_8
REMARK    4  A    between atoms: N_13  and  O_14
REMARK    5  A    between atoms: O_14  and  C_15
REMARK    6  A    between atoms: C_15  and  C_17
REMARK                            x       y       z     vdW  Elec       q    Type
REMARK                         _______ _______ _______ _____ _____    ______ ____
ROOT
ATOM      1  N   UNL     1       7.745   5.433  20.006  0.00  0.00    +0.000 N 
ATOM      2  C   UNL     1       6.605   5.466  19.245  0.00  0.00    +0.000 C 
ATOM      3  N   UNL     1       5.643   4.662  19.607  0.00  0.00    +0.000 NA
ATOM      4  H   UNL     1       8.627   5.531  19.515  0.00  0.00    +0.000 HD
ATOM      5  H   UNL     1       7.739   4.659  20.665  0.00  0.00    +0.000 HD
ENDROOT
BRANCH   2   6
ATOM      6  C   UNL     1       6.547   6.410  18.058  0.00  0.00    +0.000 C 
BRANCH   6   7
ATOM      7  C   UNL     1       6.440   5.743  16.699  0.00  0.00    +0.000 A 
ATOM      8  C   UNL     1       7.137   4.567  16.382  0.00  0.00    +0.000 A 
ATOM      9  C   UNL     1       6.931   3.921  15.158  0.00  0.00    +0.000 A 
ATOM     10  C   UNL     1       6.017   4.450  14.240  0.00  0.00    +0.000 A 
ATOM     11  C   UNL     1       5.316   5.624  14.535  0.00  0.00    +0.000 A 
ATOM     12  C   UNL     1       5.526   6.259  15.763  0.00  0.00    +0.000 A 
BRANCH  10  13
ATOM     13  N   UNL     1       5.777   3.761  12.966  0.00  0.00    +0.000 N 
ATOM     14  O   UNL     1       4.600   3.590  12.617  0.00  0.00    +0.000 OA
ATOM     15  O   UNL     1       6.766   3.395  12.312  0.00  0.00    +0.000 OA
ENDBRANCH  10  13
ENDBRANCH   6   7
ENDBRANCH   2   6
BRANCH   3  16
ATOM     16  O   UNL     1       4.479   4.721  18.812  0.00  0.00    +0.000 OA
BRANCH  16  17
ATOM     17  C   UNL     1       3.430   4.987  19.652  0.00  0.00    +0.000 C 
ATOM     18  O   UNL     1       3.002   4.250  20.536  0.00  0.00    +0.000 OA
BRANCH  17  19
ATOM     19  C   UNL     1       2.826   6.329  19.439  0.00  0.00    +0.000 A 
ATOM     20  C   UNL     1       3.024   6.903  18.175  0.00  0.00    +0.000 A 
ATOM     21  C   UNL     1       2.429   8.111  17.836  0.00  0.00    +0.000 A 
ATOM     22  C   UNL     1       1.617   8.779  18.756  0.00  0.00    +0.000 A 
ATOM     23  C   UNL     1       0.905   9.922  18.370  0.00  0.00    +0.000 A 
ATOM     24  C   UNL     1       0.094  10.591  19.280  0.00  0.00    +0.000 A 
ATOM     25  C   UNL     1       0.055  10.173  20.607  0.00  0.00    +0.000 A 
ATOM     26  C   UNL     1       0.753   9.028  21.004  0.00  0.00    +0.000 A 
ATOM     27  C   UNL     1       1.492   8.273  20.074  0.00  0.00    +0.000 A 
ATOM     28  C   UNL     1       2.086   7.034  20.401  0.00  0.00    +0.000 A 
ENDBRANCH  17  19
ENDBRANCH  16  17
ENDBRANCH   3  16
TORSDOF 6
ENDMDL
MODEL 6
REMARK VINA RESULT:      -7.6      3.205      6.696
REMARK  Name = 
REMARK  6 active torsions:
REMARK  status: ('A' for Active; 'I' for Inactive)
REMARK    1  A    between atoms: C_2  and  C_3
REMARK    2  A    between atoms: C_3  and  C_4
REMARK    3  A    between atoms: C_7  and  N_8
REMARK    4  A    between atoms: N_13  and  O_14
REMARK    5  A    between atoms: O_14  and  C_15
REMARK    6  A    between atoms: C_15  and  C_17
REMARK                            x       y       z     vdW  Elec       q    Type
REMARK                         _______ _______ _______ _____ _____    ______ ____
ROOT
ATOM      1  N   UNL     1       7.872   5.522  19.950  0.00  0.00    +0.000 N 
ATOM      2  C   UNL     1       6.725   5.582  19.200  0.00  0.00    +0.000 C 
ATOM      3  N   UNL     1       5.713   4.882  19.635  0.00  0.00    +0.000 NA
ATOM      4  H   UNL     1       8.751   5.517  19.444  0.00  0.00    +0.000 HD
ATOM      5  H   UNL     1       7.820   4.805  20.668  0.00  0.00    +0.000 HD
ENDROOT
BRANCH   2   6
ATOM      6  C   UNL     1       6.718   6.433  17.945  0.00  0.00    +0.000 C 
BRANCH   6   7
ATOM      7  C   UNL     1       6.386   5.696  16.660  0.00  0.00    +0.000 A 
ATOM      8  C   UNL     1       5.434   6.172  15.745  0.00  0.00    +0.000 A 
ATOM      9  C   UNL     1       5.232   5.523  14.522  0.00  0.00    +0.000 A 
ATOM     10  C   UNL     1       5.989   4.391  14.203  0.00  0.00    +0.000 A 
ATOM     11  C   UNL     1       6.939   3.897  15.104  0.00  0.00    +0.000 A 
ATOM     12  C   UNL     1       7.137   4.555  16.321  0.00  0.00    +0.000 A 
BRANCH  10  13
ATOM     13  N   UNL     1       5.800   3.723  12.909  0.00  0.00    +0.000 N 
ATOM     14  O   UNL     1       6.809   3.302  12.325  0.00  0.00    +0.000 OA
ATOM     15  O   UNL     1       4.641   3.615  12.479  0.00  0.00    +0.000 OA
ENDBRANCH  10  13
ENDBRANCH   6   7
ENDBRANCH   2   6
BRANCH   3  16
ATOM     16  O   UNL     1       4.544   4.966  18.849  0.00  0.00    +0.000 OA
BRANCH  16  17
ATOM     17  C   UNL     1       3.505   5.235  19.701  0.00  0.00    +0.000 C 
ATOM     18  O   UNL     1       3.127   4.528  20.632  0.00  0.00    +0.000 OA
BRANCH  17  19
ATOM     19  C   UNL     1       2.842   6.539  19.436  0.00  0.00    +0.000 A 
ATOM     20  C   UNL     1       3.052   7.091  18.164  0.00  0.00    +0.000 A 
ATOM     21  C   UNL     1       2.408   8.259  17.776  0.00  0.00    +0.000 A 
ATOM     22  C   UNL     1       1.536   8.908  18.652  0.00  0.00    +0.000 A 
ATOM     23  C   UNL     1       0.781  10.004  18.215  0.00  0.00    +0.000 A 
ATOM     24  C   UNL     1      -0.091  10.653  19.083  0.00  0.00    +0.000 A 
ATOM     25  C   UNL     1      -0.151  10.266  20.418  0.00  0.00    +0.000 A 
ATOM     26  C   UNL     1       0.590   9.167  20.866  0.00  0.00    +0.000 A 
ATOM     27  C   UNL     1       1.394   8.428  19.979  0.00  0.00    +0.000 A 
ATOM     28  C   UNL     1       2.038   7.229  20.356  0.00  0.00    +0.000 A 
ENDBRANCH  17  19
ENDBRANCH  16  17
ENDBRANCH   3  16
TORSDOF 6
ENDMDL
MODEL 7
REMARK VINA RESULT:      -7.4      3.009      6.928
REMARK  Name = 
REMARK  6 active torsions:
REMARK  status: ('A' for Active; 'I' for Inactive)
REMARK    1  A    between atoms: C_2  and  C_3
REMARK    2  A    between atoms: C_3  and  C_4
REMARK    3  A    between atoms: C_7  and  N_8
REMARK    4  A    between atoms: N_13  and  O_14
REMARK    5  A    between atoms: O_14  and  C_15
REMARK    6  A    between atoms: C_15  and  C_17
REMARK                            x       y       z     vdW  Elec       q    Type
REMARK                         _______ _______ _______ _____ _____    ______ ____
ROOT
ATOM      1  N   UNL     1       0.710   3.127  19.746  0.00  0.00    +0.000 N 
ATOM      2  C   UNL     1       1.624   4.061  20.161  0.00  0.00    +0.000 C 
ATOM      3  N   UNL     1       1.161   5.258  20.398  0.00  0.00    +0.000 NA
ATOM      4  H   UNL     1       1.020   2.461  19.046  0.00  0.00    +0.000 HD
ATOM      5  H   UNL     1      -0.189   3.546  19.527  0.00  0.00    +0.000 HD
ENDROOT
BRANCH   2   6
ATOM      6  C   UNL     1       3.076   3.647  20.307  0.00  0.00    +0.000 C 
BRANCH   6   7
ATOM      7  C   UNL     1       3.988   4.055  19.164  0.00  0.00    +0.000 A 
ATOM      8  C   UNL     1       5.251   4.628  19.377  0.00  0.00    +0.000 A 
ATOM      9  C   UNL     1       6.107   4.892  18.303  0.00  0.00    +0.000 A 
ATOM     10  C   UNL     1       5.705   4.576  17.001  0.00  0.00    +0.000 A 
ATOM     11  C   UNL     1       4.447   4.008  16.766  0.00  0.00    +0.000 A 
ATOM     12  C   UNL     1       3.601   3.745  17.847  0.00  0.00    +0.000 A 
BRANCH  10  13
ATOM     13  N   UNL     1       6.611   4.825  15.873  0.00  0.00    +0.000 N 
ATOM     14  O   UNL     1       6.692   3.953  14.996  0.00  0.00    +0.000 OA
ATOM     15  O   UNL     1       7.238   5.895  15.861  0.00  0.00    +0.000 OA
ENDBRANCH  10  13
ENDBRANCH   6   7
ENDBRANCH   2   6
BRANCH   3  16
ATOM     16  O   UNL     1       2.121   6.198  20.830  0.00  0.00    +0.000 OA
BRANCH  16  17
ATOM     17  C   UNL     1       2.162   7.193  19.890  0.00  0.00    +0.000 C 
ATOM     18  O   UNL     1       2.737   7.144  18.805  0.00  0.00    +0.000 OA
BRANCH  17  19
ATOM     19  C   UNL     1       1.385   8.402  20.271  0.00  0.00    +0.000 A 
ATOM     20  C   UNL     1       1.208   9.365  19.266  0.00  0.00    +0.000 A 
ATOM     21  C   UNL     1       0.423  10.490  19.483  0.00  0.00    +0.000 A 
ATOM     22  C   UNL     1      -0.207  10.682  20.715  0.00  0.00    +0.000 A 
ATOM     23  C   UNL     1      -1.109  11.740  20.889  0.00  0.00    +0.000 A 
ATOM     24  C   UNL     1      -1.741  11.936  22.112  0.00  0.00    +0.000 A 
ATOM     25  C   UNL     1      -1.411  11.129  23.197  0.00  0.00    +0.000 A 
ATOM     26  C   UNL     1      -0.520  10.063  23.034  0.00  0.00    +0.000 A 
ATOM     27  C   UNL     1       0.046   9.780  21.778  0.00  0.00    +0.000 A 
ATOM     28  C   UNL     1       0.831   8.629  21.540  0.00  0.00    +0.000 A 
ENDBRANCH  17  19
ENDBRANCH  16  17
ENDBRANCH   3  16
TORSDOF 6
ENDMDL
MODEL 8
REMARK VINA RESULT:      -7.4      1.036      1.475
REMARK  Name = 
REMARK  6 active torsions:
REMARK  status: ('A' for Active; 'I' for Inactive)
REMARK    1  A    between atoms: C_2  and  C_3
REMARK    2  A    between atoms: C_3  and  C_4
REMARK    3  A    between atoms: C_7  and  N_8
REMARK    4  A    between atoms: N_13  and  O_14
REMARK    5  A    between atoms: O_14  and  C_15
REMARK    6  A    between atoms: C_15  and  C_17
REMARK                            x       y       z     vdW  Elec       q    Type
REMARK                         _______ _______ _______ _____ _____    ______ ____
ROOT
ATOM      1  N   UNL     1       0.445   3.673  20.045  0.00  0.00    +0.000 N 
ATOM      2  C   UNL     1       1.676   3.661  20.648  0.00  0.00    +0.000 C 
ATOM      3  N   UNL     1       2.319   2.526  20.628  0.00  0.00    +0.000 NA
ATOM      4  H   UNL     1      -0.278   4.230  20.488  0.00  0.00    +0.000 HD
ATOM      5  H   UNL     1       0.133   2.738  19.799  0.00  0.00    +0.000 HD
ENDROOT
BRANCH   2   6
ATOM      6  C   UNL     1       2.188   4.939  21.286  0.00  0.00    +0.000 C 
BRANCH   6   7
ATOM      7  C   UNL     1       1.945   6.208  20.489  0.00  0.00    +0.000 A 
ATOM      8  C   UNL     1       1.340   7.343  21.048  0.00  0.00    +0.000 A 
ATOM      9  C   UNL     1       1.230   8.530  20.315  0.00  0.00    +0.000 A 
ATOM     10  C   UNL     1       1.732   8.589  19.011  0.00  0.00    +0.000 A 
ATOM     11  C   UNL     1       2.334   7.466  18.432  0.00  0.00    +0.000 A 
ATOM     12  C   UNL     1       2.443   6.287  19.175  0.00  0.00    +0.000 A 
BRANCH  10  13
ATOM     13  N   UNL     1       1.643   9.840  18.247  0.00  0.00    +0.000 N 
ATOM     14  O   UNL     1       2.476  10.026  17.349  0.00  0.00    +0.000 OA
ATOM     15  O   UNL     1       0.737  10.634  18.543  0.00  0.00    +0.000 OA
ENDBRANCH  10  13
ENDBRANCH   6   7
ENDBRANCH   2   6
BRANCH   3  16
ATOM     16  O   UNL     1       3.586   2.543  21.250  0.00  0.00    +0.000 OA
BRANCH  16  17
ATOM     17  C   UNL     1       4.493   2.093  20.327  0.00  0.00    +0.000 C 
ATOM     18  O   UNL     1       5.071   1.009  20.345  0.00  0.00    +0.000 OA
BRANCH  17  19
ATOM     19  C   UNL     1       4.721   3.044  19.207  0.00  0.00    +0.000 A 
ATOM     20  C   UNL     1       4.037   2.768  18.014  0.00  0.00    +0.000 A 
ATOM     21  C   UNL     1       4.105   3.639  16.934  0.00  0.00    +0.000 A 
ATOM     22  C   UNL     1       4.860   4.810  17.018  0.00  0.00    +0.000 A 
ATOM     23  C   UNL     1       4.816   5.755  15.985  0.00  0.00    +0.000 A 
ATOM     24  C   UNL     1       5.565   6.925  16.064  0.00  0.00    +0.000 A 
ATOM     25  C   UNL     1       6.430   7.119  17.137  0.00  0.00    +0.000 A 
ATOM     26  C   UNL     1       6.476   6.189  18.181  0.00  0.00    +0.000 A 
ATOM     27  C   UNL     1       5.645   5.054  18.173  0.00  0.00    +0.000 A 
ATOM     28  C   UNL     1       5.554   4.171  19.273  0.00  0.00    +0.000 A 
ENDBRANCH  17  19
ENDBRANCH  16  17
ENDBRANCH   3  16
TORSDOF 6
ENDMDL
MODEL 9
REMARK VINA RESULT:      -7.3      3.867      8.037
REMARK  Name = 
REMARK  6 active torsions:
REMARK  status: ('A' for Active; 'I' for Inactive)
REMARK    1  A    between atoms: C_2  and  C_3
REMARK    2  A    between atoms: C_3  and  C_4
REMARK    3  A    between atoms: C_7  and  N_8
REMARK    4  A    between atoms: N_13  and  O_14
REMARK    5  A    between atoms: O_14  and  C_15
REMARK    6  A    between atoms: C_15  and  C_17
REMARK                            x       y       z     vdW  Elec       q    Type
REMARK                         _______ _______ _______ _____ _____    ______ ____
ROOT
ATOM      1  N   UNL     1       2.391   5.664  20.975  0.00  0.00    +0.000 N 
ATOM      2  C   UNL     1       2.070   6.526  19.958  0.00  0.00    +0.000 C 
ATOM      3  N   UNL     1       1.932   7.782  20.286  0.00  0.00    +0.000 NA
ATOM      4  H   UNL     1       1.965   4.743  20.947  0.00  0.00    +0.000 HD
ATOM      5  H   UNL     1       2.321   6.108  21.886  0.00  0.00    +0.000 HD
ENDROOT
BRANCH   2   6
ATOM      6  C   UNL     1       1.898   5.970  18.557  0.00  0.00    +0.000 C 
BRANCH   6   7
ATOM      7  C   UNL     1       3.187   5.674  17.811  0.00  0.00    +0.000 A 
ATOM      8  C   UNL     1       3.565   4.372  17.451  0.00  0.00    +0.000 A 
ATOM      9  C   UNL     1       4.705   4.148  16.670  0.00  0.00    +0.000 A 
ATOM     10  C   UNL     1       5.474   5.234  16.238  0.00  0.00    +0.000 A 
ATOM     11  C   UNL     1       5.116   6.540  16.591  0.00  0.00    +0.000 A 
ATOM     12  C   UNL     1       3.974   6.753  17.367  0.00  0.00    +0.000 A 
BRANCH  10  13
ATOM     13  N   UNL     1       6.655   5.007  15.396  0.00  0.00    +0.000 N 
ATOM     14  O   UNL     1       6.570   4.150  14.504  0.00  0.00    +0.000 OA
ATOM     15  O   UNL     1       7.666   5.688  15.623  0.00  0.00    +0.000 OA
ENDBRANCH  10  13
ENDBRANCH   6   7
ENDBRANCH   2   6
BRANCH   3  16
ATOM     16  O   UNL     1       1.610   8.649  19.220  0.00  0.00    +0.000 OA
BRANCH  16  17
ATOM     17  C   UNL     1       0.996   9.746  19.764  0.00  0.00    +0.000 C 
ATOM     18  O   UNL     1       1.421  10.432  20.690  0.00  0.00    +0.000 OA
BRANCH  17  19
ATOM     19  C   UNL     1      -0.284  10.102  19.096  0.00  0.00    +0.000 A 
ATOM     20  C   UNL     1      -1.126  10.974  19.800  0.00  0.00    +0.000 A 
ATOM     21  C   UNL     1      -2.303  11.445  19.233  0.00  0.00    +0.000 A 
ATOM     22  C   UNL     1      -2.670  11.055  17.943  0.00  0.00    +0.000 A 
ATOM     23  C   UNL     1      -3.780  11.636  17.318  0.00  0.00    +0.000 A 
ATOM     24  C   UNL     1      -4.150  11.253  16.033  0.00  0.00    +0.000 A 
ATOM     25  C   UNL     1      -3.464  10.222  15.396  0.00  0.00    +0.000 A 
ATOM     26  C   UNL     1      -2.347   9.640  16.005  0.00  0.00    +0.000 A 
ATOM     27  C   UNL     1      -1.890  10.089  17.257  0.00  0.00    +0.000 A 
ATOM     28  C   UNL     1      -0.685   9.632  17.836  0.00  0.00    +0.000 A 
ENDBRANCH  17  19
ENDBRANCH  16  17
ENDBRANCH   3  16
TORSDOF 6
ENDMDL
