MODEL 1
REMARK VINA RESULT:      -6.8      0.000      0.000
REMARK  Name = 
REMARK  8 active torsions:
REMARK  status: ('A' for Active; 'I' for Inactive)
REMARK    1  A    between atoms: C_1  and  C_2
REMARK    2  A    between atoms: C_6  and  C_7
REMARK    3  A    between atoms: N_8  and  C_9
REMARK    4  A    between atoms: C_9  and  C_10
REMARK    5  A    between atoms: C_10  and  O_11
REMARK    6  A    between atoms: C_10  and  C_12
REMARK    7  A    between atoms: C_12  and  O_13
REMARK    8  A    between atoms: O_13  and  C_14
REMARK                            x       y       z     vdW  Elec       q    Type
REMARK                         _______ _______ _______ _____ _____    ______ ____
ROOT
ATOM      1  C   UNL     1       3.162   5.992  18.968  0.00  0.00    +0.000 C 
ENDROOT
BRANCH   1   2
ATOM      2  O   UNL     1       2.849   6.974  19.923  0.00  0.00    +0.000 OA
ATOM      3  H   UNL     1       3.361   6.776  20.750  0.00  0.00    +0.000 HD
ENDBRANCH   1   2
BRANCH   1   4
ATOM      4  C   UNL     1       3.710   4.662  19.577  0.00  0.00    +0.000 C 
BRANCH   4  12
ATOM      5  C   UNL     1       0.777   2.408  18.495  0.00  0.00    +0.000 C 
ATOM      6  C   UNL     1       1.481   3.586  19.191  0.00  0.00    +0.000 C 
ATOM      7  C   UNL     1       0.867   3.893  20.580  0.00  0.00    +0.000 C 
ATOM      8  C   UNL     1       1.191   2.778  21.577  0.00  0.00    +0.000 C 
ATOM      9  C   UNL     1       2.704   2.572  21.659  0.00  0.00    +0.000 C 
ATOM     10  C   UNL     1       3.296   2.301  20.252  0.00  0.00    +0.000 C 
ATOM     11  C   UNL     1       4.807   2.007  20.369  0.00  0.00    +0.000 C 
ATOM     12  N   UNL     1       2.963   3.401  19.275  0.00  0.00    +0.000 NA
ENDBRANCH   4  12
ENDBRANCH   1   4
BRANCH   1  13
ATOM     13  C   UNL     1       4.215   6.589  18.021  0.00  0.00    +0.000 C 
BRANCH  13  14
ATOM     14  O   UNL     1       5.146   5.608  17.739  0.00  0.00    +0.000 OA
BRANCH  14  15
ATOM     15  C   UNL     1       5.601   5.203  16.529  0.00  0.00    +0.000 A 
ATOM     16  C   UNL     1       6.816   5.653  15.966  0.00  0.00    +0.000 A 
ATOM     17  F   UNL     1       7.618   6.531  16.616  0.00  0.00    +0.000 F 
ATOM     18  C   UNL     1       7.214   5.188  14.710  0.00  0.00    +0.000 A 
ATOM     19  C   UNL     1       6.417   4.282  14.006  0.00  0.00    +0.000 A 
ATOM     20 BR   UNL     1       6.972   3.659  12.289  0.00  0.00    +0.000 Br
ATOM     21  C   UNL     1       5.211   3.834  14.556  0.00  0.00    +0.000 A 
ATOM     22  C   UNL     1       4.809   4.291  15.813  0.00  0.00    +0.000 A 
ATOM     23  F   UNL     1       3.637   3.851  16.338  0.00  0.00    +0.000 F 
ENDBRANCH  14  15
ENDBRANCH  13  14
ENDBRANCH   1  13
TORSDOF 6
ENDMDL
MODEL 2
REMARK VINA RESULT:      -6.7      1.530      2.250
REMARK  Name = 
REMARK  8 active torsions:
REMARK  status: ('A' for Active; 'I' for Inactive)
REMARK    1  A    between atoms: C_1  and  C_2
REMARK    2  A    between atoms: C_6  and  C_7
REMARK    3  A    between atoms: N_8  and  C_9
REMARK    4  A    between atoms: C_9  and  C_10
REMARK    5  A    between atoms: C_10  and  O_11
REMARK    6  A    between atoms: C_10  and  C_12
REMARK    7  A    between atoms: C_12  and  O_13
REMARK    8  A    between atoms: O_13  and  C_14
REMARK                            x       y       z     vdW  Elec       q    Type
REMARK                         _______ _______ _______ _____ _____    ______ ____
ROOT
ATOM      1  C   UNL     1       4.186   5.549  19.019  0.00  0.00    +0.000 C 
ENDROOT
BRANCH   1   2
ATOM      2  O   UNL     1       3.604   6.823  18.908  0.00  0.00    +0.000 OA
ATOM      3  H   UNL     1       3.050   6.982  19.716  0.00  0.00    +0.000 HD
ENDBRANCH   1   2
BRANCH   1   4
ATOM      4  C   UNL     1       3.578   4.668  20.157  0.00  0.00    +0.000 C 
BRANCH   4  12
ATOM      5  C   UNL     1       3.560   1.377  18.150  0.00  0.00    +0.000 C 
ATOM      6  C   UNL     1       3.357   2.879  18.417  0.00  0.00    +0.000 C 
ATOM      7  C   UNL     1       2.081   3.425  17.729  0.00  0.00    +0.000 C 
ATOM      8  C   UNL     1       0.822   2.875  18.401  0.00  0.00    +0.000 C 
ATOM      9  C   UNL     1       0.842   3.198  19.896  0.00  0.00    +0.000 C 
ATOM     10  C   UNL     1       2.144   2.670  20.551  0.00  0.00    +0.000 C 
ATOM     11  C   UNL     1       2.103   2.926  22.073  0.00  0.00    +0.000 C 
ATOM     12  N   UNL     1       3.378   3.211  19.875  0.00  0.00    +0.000 NA
ENDBRANCH   4  12
ENDBRANCH   1   4
BRANCH   1  13
ATOM     13  C   UNL     1       5.687   5.749  19.278  0.00  0.00    +0.000 C 
BRANCH  13  14
ATOM     14  O   UNL     1       6.270   6.198  18.109  0.00  0.00    +0.000 OA
BRANCH  14  15
ATOM     15  C   UNL     1       6.204   5.650  16.871  0.00  0.00    +0.000 A 
ATOM     16  C   UNL     1       5.316   6.100  15.869  0.00  0.00    +0.000 A 
ATOM     17  F   UNL     1       4.463   7.130  16.087  0.00  0.00    +0.000 F 
ATOM     18  C   UNL     1       5.309   5.479  14.618  0.00  0.00    +0.000 A 
ATOM     19  C   UNL     1       6.172   4.414  14.352  0.00  0.00    +0.000 A 
ATOM     20 BR   UNL     1       6.148   3.572  12.638  0.00  0.00    +0.000 Br
ATOM     21  C   UNL     1       7.053   3.961  15.341  0.00  0.00    +0.000 A 
ATOM     22  C   UNL     1       7.069   4.580  16.592  0.00  0.00    +0.000 A 
ATOM     23  F   UNL     1       7.926   4.133  17.545  0.00  0.00    +0.000 F 
ENDBRANCH  14  15
ENDBRANCH  13  14
ENDBRANCH   1  13
TORSDOF 6
ENDMDL
MODEL 3
REMARK VINA RESULT:      -6.5      4.075      6.482
REMARK  Name = 
REMARK  8 active torsions:
REMARK  status: ('A' for Active; 'I' for Inactive)
REMARK    1  A    between atoms: C_1  and  C_2
REMARK    2  A    between atoms: C_6  and  C_7
REMARK    3  A    between atoms: N_8  and  C_9
REMARK    4  A    between atoms: C_9  and  C_10
REMARK    5  A    between atoms: C_10  and  O_11
REMARK    6  A    between atoms: C_10  and  C_12
REMARK    7  A    between atoms: C_12  and  O_13
REMARK    8  A    between atoms: O_13  and  C_14
REMARK                            x       y       z     vdW  Elec       q    Type
REMARK                         _______ _______ _______ _____ _____    ______ ____
ROOT
ATOM      1  C   UNL     1       3.803   4.487  18.777  0.00  0.00    +0.000 C 
ENDROOT
BRANCH   1   2
ATOM      2  O   UNL     1       3.778   3.398  19.664  0.00  0.00    +0.000 OA
ATOM      3  H   UNL     1       3.106   3.587  20.368  0.00  0.00    +0.000 HD
ENDBRANCH   1   2
BRANCH   1   4
ATOM      4  C   UNL     1       5.041   5.423  18.951  0.00  0.00    +0.000 C 
BRANCH   4  12
ATOM      5  C   UNL     1       5.141   6.670  15.306  0.00  0.00    +0.000 C 
ATOM      6  C   UNL     1       4.897   5.687  16.464  0.00  0.00    +0.000 C 
ATOM      7  C   UNL     1       5.283   4.235  16.086  0.00  0.00    +0.000 C 
ATOM      8  C   UNL     1       6.800   4.093  15.946  0.00  0.00    +0.000 C 
ATOM      9  C   UNL     1       7.489   4.545  17.234  0.00  0.00    +0.000 C 
ATOM     10  C   UNL     1       7.059   5.987  17.606  0.00  0.00    +0.000 C 
ATOM     11  C   UNL     1       7.835   6.456  18.856  0.00  0.00    +0.000 C 
ATOM     12  N   UNL     1       5.563   6.118  17.733  0.00  0.00    +0.000 NA
ENDBRANCH   4  12
ENDBRANCH   1   4
BRANCH   1  13
ATOM     13  C   UNL     1       2.517   5.297  19.006  0.00  0.00    +0.000 C 
BRANCH  13  14
ATOM     14  O   UNL     1       2.874   6.550  19.467  0.00  0.00    +0.000 OA
BRANCH  14  15
ATOM     15  C   UNL     1       2.196   7.716  19.345  0.00  0.00    +0.000 A 
ATOM     16  C   UNL     1       2.194   8.494  18.166  0.00  0.00    +0.000 A 
ATOM     17  F   UNL     1       2.880   8.110  17.062  0.00  0.00    +0.000 F 
ATOM     18  C   UNL     1       1.470   9.688  18.121  0.00  0.00    +0.000 A 
ATOM     19  C   UNL     1       0.749  10.119  19.238  0.00  0.00    +0.000 A 
ATOM     20 BR   UNL     1      -0.232  11.755  19.164  0.00  0.00    +0.000 Br
ATOM     21  C   UNL     1       0.749   9.355  20.410  0.00  0.00    +0.000 A 
ATOM     22  C   UNL     1       1.466   8.159  20.460  0.00  0.00    +0.000 A 
ATOM     23  F   UNL     1       1.459   7.425  21.602  0.00  0.00    +0.000 F 
ENDBRANCH  14  15
ENDBRANCH  13  14
ENDBRANCH   1  13
TORSDOF 6
ENDMDL
MODEL 4
REMARK VINA RESULT:      -6.4      4.364      6.043
REMARK  Name = 
REMARK  8 active torsions:
REMARK  status: ('A' for Active; 'I' for Inactive)
REMARK    1  A    between atoms: C_1  and  C_2
REMARK    2  A    between atoms: C_6  and  C_7
REMARK    3  A    between atoms: N_8  and  C_9
REMARK    4  A    between atoms: C_9  and  C_10
REMARK    5  A    between atoms: C_10  and  O_11
REMARK    6  A    between atoms: C_10  and  C_12
REMARK    7  A    between atoms: C_12  and  O_13
REMARK    8  A    between atoms: O_13  and  C_14
REMARK                            x       y       z     vdW  Elec       q    Type
REMARK                         _______ _______ _______ _____ _____    ______ ____
ROOT
ATOM      1  C   UNL     1       3.750   5.729  18.251  0.00  0.00    +0.000 C 
ENDROOT
BRANCH   1   2
ATOM      2  O   UNL     1       4.033   5.124  17.014  0.00  0.00    +0.000 OA
ATOM      3  H   UNL     1       4.632   5.728  16.504  0.00  0.00    +0.000 HD
ENDBRANCH   1   2
BRANCH   1   4
ATOM      4  C   UNL     1       3.620   4.721  19.438  0.00  0.00    +0.000 C 
BRANCH   4  12
ATOM      5  C   UNL     1       0.731   2.354  18.492  0.00  0.00    +0.000 C 
ATOM      6  C   UNL     1       1.418   3.564  19.147  0.00  0.00    +0.000 C 
ATOM      7  C   UNL     1       0.846   3.867  20.555  0.00  0.00    +0.000 C 
ATOM      8  C   UNL     1       1.245   2.777  21.551  0.00  0.00    +0.000 C 
ATOM      9  C   UNL     1       2.767   2.624  21.579  0.00  0.00    +0.000 C 
ATOM     10  C   UNL     1       3.314   2.356  20.154  0.00  0.00    +0.000 C 
ATOM     11  C   UNL     1       4.838   2.116  20.218  0.00  0.00    +0.000 C 
ATOM     12  N   UNL     1       2.908   3.431  19.178  0.00  0.00    +0.000 NA
ENDBRANCH   4  12
ENDBRANCH   1   4
BRANCH   1  13
ATOM     13  C   UNL     1       2.432   6.502  18.094  0.00  0.00    +0.000 C 
BRANCH  13  14
ATOM     14  O   UNL     1       2.630   7.789  18.556  0.00  0.00    +0.000 OA
BRANCH  14  15
ATOM     15  C   UNL     1       1.839   8.520  19.378  0.00  0.00    +0.000 A 
ATOM     16  C   UNL     1       1.437   8.083  20.659  0.00  0.00    +0.000 A 
ATOM     17  F   UNL     1       1.829   6.885  21.156  0.00  0.00    +0.000 F 
ATOM     18  C   UNL     1       0.617   8.897  21.445  0.00  0.00    +0.000 A 
ATOM     19  C   UNL     1       0.191  10.140  20.971  0.00  0.00    +0.000 A 
ATOM     20 BR   UNL     1      -0.932  11.239  22.055  0.00  0.00    +0.000 Br
ATOM     21  C   UNL     1       0.584  10.578  19.701  0.00  0.00    +0.000 A 
ATOM     22  C   UNL     1       1.407   9.772  18.912  0.00  0.00    +0.000 A 
ATOM     23  F   UNL     1       1.782  10.206  17.682  0.00  0.00    +0.000 F 
ENDBRANCH  14  15
ENDBRANCH  13  14
ENDBRANCH   1  13
TORSDOF 6
ENDMDL
MODEL 5
REMARK VINA RESULT:      -6.4      5.957      7.937
REMARK  Name = 
REMARK  8 active torsions:
REMARK  status: ('A' for Active; 'I' for Inactive)
REMARK    1  A    between atoms: C_1  and  C_2
REMARK    2  A    between atoms: C_6  and  C_7
REMARK    3  A    between atoms: N_8  and  C_9
REMARK    4  A    between atoms: C_9  and  C_10
REMARK    5  A    between atoms: C_10  and  O_11
REMARK    6  A    between atoms: C_10  and  C_12
REMARK    7  A    between atoms: C_12  and  O_13
REMARK    8  A    between atoms: O_13  and  C_14
REMARK                            x       y       z     vdW  Elec       q    Type
REMARK                         _______ _______ _______ _____ _____    ______ ____
ROOT
ATOM      1  C   UNL     1       2.166   6.959  20.218  0.00  0.00    +0.000 C 
ENDROOT
BRANCH   1   2
ATOM      2  O   UNL     1       2.130   7.718  19.036  0.00  0.00    +0.000 OA
ATOM      3  H   UNL     1       2.428   7.140  18.287  0.00  0.00    +0.000 HD
ENDBRANCH   1   2
BRANCH   1   4
ATOM      4  C   UNL     1       1.896   5.436  20.005  0.00  0.00    +0.000 C 
BRANCH   4  12
ATOM      5  C   UNL     1       5.208   4.001  18.656  0.00  0.00    +0.000 C 
ATOM      6  C   UNL     1       3.797   4.611  18.598  0.00  0.00    +0.000 C 
ATOM      7  C   UNL     1       2.950   4.011  17.448  0.00  0.00    +0.000 C 
ATOM      8  C   UNL     1       2.585   2.554  17.744  0.00  0.00    +0.000 C 
ATOM      9  C   UNL     1       1.865   2.457  19.089  0.00  0.00    +0.000 C 
ATOM     10  C   UNL     1       2.720   3.095  20.214  0.00  0.00    +0.000 C 
ATOM     11  C   UNL     1       2.017   2.905  21.575  0.00  0.00    +0.000 C 
ATOM     12  N   UNL     1       3.081   4.527  19.909  0.00  0.00    +0.000 NA
ENDBRANCH   4  12
ENDBRANCH   1   4
BRANCH   1  13
ATOM     13  C   UNL     1       1.106   7.536  21.169  0.00  0.00    +0.000 C 
BRANCH  13  14
ATOM     14  O   UNL     1       1.256   8.909  21.200  0.00  0.00    +0.000 OA
BRANCH  14  15
ATOM     15  C   UNL     1       0.329   9.851  21.496  0.00  0.00    +0.000 A 
ATOM     16  C   UNL     1      -0.211  10.029  22.789  0.00  0.00    +0.000 A 
ATOM     17  F   UNL     1       0.176   9.256  23.833  0.00  0.00    +0.000 F 
ATOM     18  C   UNL     1      -1.167  11.023  23.012  0.00  0.00    +0.000 A 
ATOM     19  C   UNL     1      -1.593  11.842  21.963  0.00  0.00    +0.000 A 
ATOM     20 BR   UNL     1      -2.903  13.194  22.282  0.00  0.00    +0.000 Br
ATOM     21  C   UNL     1      -1.064  11.669  20.679  0.00  0.00    +0.000 A 
ATOM     22  C   UNL     1      -0.106  10.681  20.450  0.00  0.00    +0.000 A 
ATOM     23  F   UNL     1       0.401  10.521  19.201  0.00  0.00    +0.000 F 
ENDBRANCH  14  15
ENDBRANCH  13  14
ENDBRANCH   1  13
TORSDOF 6
ENDMDL
MODEL 6
REMARK VINA RESULT:      -6.4      5.781      8.382
REMARK  Name = 
REMARK  8 active torsions:
REMARK  status: ('A' for Active; 'I' for Inactive)
REMARK    1  A    between atoms: C_1  and  C_2
REMARK    2  A    between atoms: C_6  and  C_7
REMARK    3  A    between atoms: N_8  and  C_9
REMARK    4  A    between atoms: C_9  and  C_10
REMARK    5  A    between atoms: C_10  and  O_11
REMARK    6  A    between atoms: C_10  and  C_12
REMARK    7  A    between atoms: C_12  and  O_13
REMARK    8  A    between atoms: O_13  and  C_14
REMARK                            x       y       z     vdW  Elec       q    Type
REMARK                         _______ _______ _______ _____ _____    ______ ____
ROOT
ATOM      1  C   UNL     1       8.506   8.919  18.081  0.00  0.00    +0.000 C 
ENDROOT
BRANCH   1   2
ATOM      2  O   UNL     1       8.829   8.088  19.167  0.00  0.00    +0.000 OA
ATOM      3  H   UNL     1       9.638   8.454  19.608  0.00  0.00    +0.000 HD
ENDBRANCH   1   2
BRANCH   1   4
ATOM      4  C   UNL     1       8.359  10.428  18.456  0.00  0.00    +0.000 C 
BRANCH   4  12
ATOM      5  C   UNL     1      11.941  11.835  18.243  0.00  0.00    +0.000 C 
ATOM      6  C   UNL     1      10.704  11.194  18.896  0.00  0.00    +0.000 C 
ATOM      7  C   UNL     1      10.481  11.699  20.343  0.00  0.00    +0.000 C 
ATOM      8  C   UNL     1      10.041  13.165  20.347  0.00  0.00    +0.000 C 
ATOM      9  C   UNL     1       8.788  13.338  19.488  0.00  0.00    +0.000 C 
ATOM     10  C   UNL     1       9.028  12.793  18.057  0.00  0.00    +0.000 C 
ATOM     11  C   UNL     1       7.784  13.060  17.182  0.00  0.00    +0.000 C 
ATOM     12  N   UNL     1       9.469  11.352  18.064  0.00  0.00    +0.000 NA
ENDBRANCH   4  12
ENDBRANCH   1   4
BRANCH   1  13
ATOM     13  C   UNL     1       7.182   8.411  17.490  0.00  0.00    +0.000 C 
BRANCH  13  14
ATOM     14  O   UNL     1       7.331   7.072  17.186  0.00  0.00    +0.000 OA
BRANCH  14  15
ATOM     15  C   UNL     1       6.431   6.070  17.331  0.00  0.00    +0.000 A 
ATOM     16  C   UNL     1       5.471   5.741  16.349  0.00  0.00    +0.000 A 
ATOM     17  F   UNL     1       5.393   6.418  15.177  0.00  0.00    +0.000 F 
ATOM     18  C   UNL     1       4.575   4.694  16.576  0.00  0.00    +0.000 A 
ATOM     19  C   UNL     1       4.621   3.971  17.770  0.00  0.00    +0.000 A 
ATOM     20 BR   UNL     1       3.387   2.544  18.069  0.00  0.00    +0.000 Br
ATOM     21  C   UNL     1       5.568   4.292  18.749  0.00  0.00    +0.000 A 
ATOM     22  C   UNL     1       6.470   5.335  18.526  0.00  0.00    +0.000 A 
ATOM     23  F   UNL     1       7.385   5.639  19.482  0.00  0.00    +0.000 F 
ENDBRANCH  14  15
ENDBRANCH  13  14
ENDBRANCH   1  13
TORSDOF 6
ENDMDL
MODEL 7
REMARK VINA RESULT:      -6.3      4.137      6.599
REMARK  Name = 
REMARK  8 active torsions:
REMARK  status: ('A' for Active; 'I' for Inactive)
REMARK    1  A    between atoms: C_1  and  C_2
REMARK    2  A    between atoms: C_6  and  C_7
REMARK    3  A    between atoms: N_8  and  C_9
REMARK    4  A    between atoms: C_9  and  C_10
REMARK    5  A    between atoms: C_10  and  O_11
REMARK    6  A    between atoms: C_10  and  C_12
REMARK    7  A    between atoms: C_12  and  O_13
REMARK    8  A    between atoms: O_13  and  C_14
REMARK                            x       y       z     vdW  Elec       q    Type
REMARK                         _______ _______ _______ _____ _____    ______ ____
ROOT
ATOM      1  C   UNL     1       3.489   4.671  19.267  0.00  0.00    +0.000 C 
ENDROOT
BRANCH   1   2
ATOM      2  O   UNL     1       3.103   3.650  20.153  0.00  0.00    +0.000 OA
ATOM      3  H   UNL     1       3.872   3.035  20.270  0.00  0.00    +0.000 HD
ENDBRANCH   1   2
BRANCH   1   4
ATOM      4  C   UNL     1       4.973   4.574  18.792  0.00  0.00    +0.000 C 
BRANCH   4  12
ATOM      5  C   UNL     1       5.104   6.765  15.624  0.00  0.00    +0.000 C 
ATOM      6  C   UNL     1       4.921   5.486  16.459  0.00  0.00    +0.000 C 
ATOM      7  C   UNL     1       5.493   4.236  15.743  0.00  0.00    +0.000 C 
ATOM      8  C   UNL     1       7.021   4.290  15.690  0.00  0.00    +0.000 C 
ATOM      9  C   UNL     1       7.589   4.443  17.102  0.00  0.00    +0.000 C 
ATOM     10  C   UNL     1       6.974   5.680  17.806  0.00  0.00    +0.000 C 
ATOM     11  C   UNL     1       7.627   5.869  19.193  0.00  0.00    +0.000 C 
ATOM     12  N   UNL     1       5.469   5.622  17.845  0.00  0.00    +0.000 NA
ENDBRANCH   4  12
ENDBRANCH   1   4
BRANCH   1  13
ATOM     13  C   UNL     1       3.272   6.012  19.987  0.00  0.00    +0.000 C 
BRANCH  13  14
ATOM     14  O   UNL     1       2.114   6.582  19.495  0.00  0.00    +0.000 OA
BRANCH  14  15
ATOM     15  C   UNL     1       1.789   7.895  19.418  0.00  0.00    +0.000 A 
ATOM     16  C   UNL     1       1.170   8.605  20.469  0.00  0.00    +0.000 A 
ATOM     17  F   UNL     1       0.861   8.006  21.645  0.00  0.00    +0.000 F 
ATOM     18  C   UNL     1       0.865   9.959  20.310  0.00  0.00    +0.000 A 
ATOM     19  C   UNL     1       1.168  10.615  19.114  0.00  0.00    +0.000 A 
ATOM     20 BR   UNL     1       0.742  12.465  18.908  0.00  0.00    +0.000 Br
ATOM     21  C   UNL     1       1.779   9.917  18.066  0.00  0.00    +0.000 A 
ATOM     22  C   UNL     1       2.091   8.565  18.221  0.00  0.00    +0.000 A 
ATOM     23  F   UNL     1       2.684   7.897  17.199  0.00  0.00    +0.000 F 
ENDBRANCH  14  15
ENDBRANCH  13  14
ENDBRANCH   1  13
TORSDOF 6
ENDMDL
MODEL 8
REMARK VINA RESULT:      -6.3      1.129      2.001
REMARK  Name = 
REMARK  8 active torsions:
REMARK  status: ('A' for Active; 'I' for Inactive)
REMARK    1  A    between atoms: C_1  and  C_2
REMARK    2  A    between atoms: C_6  and  C_7
REMARK    3  A    between atoms: N_8  and  C_9
REMARK    4  A    between atoms: C_9  and  C_10
REMARK    5  A    between atoms: C_10  and  O_11
REMARK    6  A    between atoms: C_10  and  C_12
REMARK    7  A    between atoms: C_12  and  O_13
REMARK    8  A    between atoms: O_13  and  C_14
REMARK                            x       y       z     vdW  Elec       q    Type
REMARK                         _______ _______ _______ _____ _____    ______ ____
ROOT
ATOM      1  C   UNL     1       3.848   6.177  17.727  0.00  0.00    +0.000 C 
ENDROOT
BRANCH   1   2
ATOM      2  O   UNL     1       3.446   7.518  17.849  0.00  0.00    +0.000 OA
ATOM      3  H   UNL     1       2.473   7.568  17.664  0.00  0.00    +0.000 HD
ENDBRANCH   1   2
BRANCH   1   4
ATOM      4  C   UNL     1       2.798   5.147  18.252  0.00  0.00    +0.000 C 
BRANCH   4  12
ATOM      5  C   UNL     1       4.042   2.371  20.619  0.00  0.00    +0.000 C 
ATOM      6  C   UNL     1       3.352   2.984  19.388  0.00  0.00    +0.000 C 
ATOM      7  C   UNL     1       2.061   2.219  19.003  0.00  0.00    +0.000 C 
ATOM      8  C   UNL     1       0.964   2.443  20.046  0.00  0.00    +0.000 C 
ATOM      9  C   UNL     1       0.705   3.940  20.221  0.00  0.00    +0.000 C 
ATOM     10  C   UNL     1       2.020   4.684  20.572  0.00  0.00    +0.000 C 
ATOM     11  C   UNL     1       1.720   6.176  20.833  0.00  0.00    +0.000 C 
ATOM     12  N   UNL     1       3.096   4.450  19.543  0.00  0.00    +0.000 NA
ENDBRANCH   4  12
ENDBRANCH   1   4
BRANCH   1  13
ATOM     13  C   UNL     1       5.158   6.015  18.514  0.00  0.00    +0.000 C 
BRANCH  13  14
ATOM     14  O   UNL     1       5.881   4.988  17.940  0.00  0.00    +0.000 OA
BRANCH  14  15
ATOM     15  C   UNL     1       6.155   4.781  16.629  0.00  0.00    +0.000 A 
ATOM     16  C   UNL     1       7.063   5.571  15.891  0.00  0.00    +0.000 A 
ATOM     17  F   UNL     1       7.734   6.601  16.461  0.00  0.00    +0.000 F 
ATOM     18  C   UNL     1       7.288   5.294  14.540  0.00  0.00    +0.000 A 
ATOM     19  C   UNL     1       6.616   4.240  13.914  0.00  0.00    +0.000 A 
ATOM     20 BR   UNL     1       6.930   3.875  12.066  0.00  0.00    +0.000 Br
ATOM     21  C   UNL     1       5.713   3.455  14.639  0.00  0.00    +0.000 A 
ATOM     22  C   UNL     1       5.487   3.724  15.990  0.00  0.00    +0.000 A 
ATOM     23  F   UNL     1       4.608   2.957  16.684  0.00  0.00    +0.000 F 
ENDBRANCH  14  15
ENDBRANCH  13  14
ENDBRANCH   1  13
TORSDOF 6
ENDMDL
MODEL 9
REMARK VINA RESULT:      -6.3      1.157      2.664
REMARK  Name = 
REMARK  8 active torsions:
REMARK  status: ('A' for Active; 'I' for Inactive)
REMARK    1  A    between atoms: C_1  and  C_2
REMARK    2  A    between atoms: C_6  and  C_7
REMARK    3  A    between atoms: N_8  and  C_9
REMARK    4  A    between atoms: C_9  and  C_10
REMARK    5  A    between atoms: C_10  and  O_11
REMARK    6  A    between atoms: C_10  and  C_12
REMARK    7  A    between atoms: C_12  and  O_13
REMARK    8  A    between atoms: O_13  and  C_14
REMARK                            x       y       z     vdW  Elec       q    Type
REMARK                         _______ _______ _______ _____ _____    ______ ____
ROOT
ATOM      1  C   UNL     1       3.915   6.119  17.699  0.00  0.00    +0.000 C 
ENDROOT
BRANCH   1   2
ATOM      2  O   UNL     1       3.541   7.473  17.667  0.00  0.00    +0.000 OA
ATOM      3  H   UNL     1       4.261   7.982  17.212  0.00  0.00    +0.000 HD
ENDBRANCH   1   2
BRANCH   1   4
ATOM      4  C   UNL     1       2.819   5.169  18.279  0.00  0.00    +0.000 C 
BRANCH   4  12
ATOM      5  C   UNL     1       4.069   2.372  20.616  0.00  0.00    +0.000 C 
ATOM      6  C   UNL     1       3.374   2.995  19.394  0.00  0.00    +0.000 C 
ATOM      7  C   UNL     1       2.079   2.237  19.010  0.00  0.00    +0.000 C 
ATOM      8  C   UNL     1       0.989   2.455  20.061  0.00  0.00    +0.000 C 
ATOM      9  C   UNL     1       0.734   3.951  20.250  0.00  0.00    +0.000 C 
ATOM     10  C   UNL     1       2.052   4.689  20.599  0.00  0.00    +0.000 C 
ATOM     11  C   UNL     1       1.758   6.179  20.874  0.00  0.00    +0.000 C 
ATOM     12  N   UNL     1       3.122   4.460  19.562  0.00  0.00    +0.000 NA
ENDBRANCH   4  12
ENDBRANCH   1   4
BRANCH   1  13
ATOM     13  C   UNL     1       5.186   6.012  18.556  0.00  0.00    +0.000 C 
BRANCH  13  14
ATOM     14  O   UNL     1       6.009   5.059  17.988  0.00  0.00    +0.000 OA
BRANCH  14  15
ATOM     15  C   UNL     1       6.171   4.760  16.676  0.00  0.00    +0.000 A 
ATOM     16  C   UNL     1       5.490   3.706  16.029  0.00  0.00    +0.000 A 
ATOM     17  F   UNL     1       4.611   2.916  16.693  0.00  0.00    +0.000 F 
ATOM     18  C   UNL     1       5.715   3.462  14.672  0.00  0.00    +0.000 A 
ATOM     19  C   UNL     1       6.613   4.253  13.952  0.00  0.00    +0.000 A 
ATOM     20 BR   UNL     1       6.914   3.905  12.098  0.00  0.00    +0.000 Br
ATOM     21  C   UNL     1       7.294   5.298  14.586  0.00  0.00    +0.000 A 
ATOM     22  C   UNL     1       7.070   5.550  15.941  0.00  0.00    +0.000 A 
ATOM     23  F   UNL     1       7.735   6.566  16.548  0.00  0.00    +0.000 F 
ENDBRANCH  14  15
ENDBRANCH  13  14
ENDBRANCH   1  13
TORSDOF 6
ENDMDL
