MODEL 1
REMARK VINA RESULT:      -7.4      0.000      0.000
REMARK  Name = 
REMARK  3 active torsions:
REMARK  status: ('A' for Active; 'I' for Inactive)
REMARK    1  A    between atoms: C_1  and  C_2
REMARK    2  A    between atoms: C_4  and  N_5
REMARK    3  A    between atoms: C_8  and  C_9
REMARK                            x       y       z     vdW  Elec       q    Type
REMARK                         _______ _______ _______ _____ _____    ______ ____
ROOT
ATOM      1  C   UNL     1       0.679  10.779  18.813  0.00  0.00    +0.000 C 
ATOM      2  C   UNL     1       1.500  10.373  17.587  0.00  0.00    +0.000 C 
ATOM      3  N   UNL     1       2.250   9.127  17.689  0.00  0.00    +0.000 NA
ATOM      4  C   UNL     1       2.168   8.337  18.695  0.00  0.00    +0.000 C 
ATOM      5  C   UNL     1       2.892   7.044  18.658  0.00  0.00    +0.000 A 
ATOM      6  C   UNL     1       3.796   6.734  17.635  0.00  0.00    +0.000 A 
ATOM      7  C   UNL     1       4.435   5.492  17.626  0.00  0.00    +0.000 A 
ATOM      8  C   UNL     1       4.157   4.557  18.624  0.00  0.00    +0.000 A 
ATOM      9  C   UNL     1       3.264   4.872  19.652  0.00  0.00    +0.000 A 
ATOM     10  C   UNL     1       2.650   6.125  19.672  0.00  0.00    +0.000 A 
ATOM     11  N   UNL     1       1.828   6.474  20.737  0.00  0.00    +0.000 N 
ATOM     12  C   UNL     1       1.290   7.722  20.898  0.00  0.00    +0.000 C 
ATOM     13  O   UNL     1       0.743   8.001  21.964  0.00  0.00    +0.000 OA
ATOM     14  N   UNL     1       1.426   8.609  19.834  0.00  0.00    +0.000 N 
ATOM     15  C   UNL     1       1.015   9.977  20.066  0.00  0.00    +0.000 C 
ATOM     16  H   UNL     1       1.704   5.849  21.522  0.00  0.00    +0.000 HD
ENDROOT
BRANCH   1  23
ATOM     17  C   UNL     1      -1.188  12.784  20.141  0.00  0.00    +0.000 C 
ATOM     18  C   UNL     1      -1.679  11.767  19.143  0.00  0.00    +0.000 A 
ATOM     19  C   UNL     1      -3.042  11.801  18.787  0.00  0.00    +0.000 A 
ATOM     20  C   UNL     1      -3.590  10.889  17.884  0.00  0.00    +0.000 A 
ATOM     21  C   UNL     1      -2.736   9.978  17.267  0.00  0.00    +0.000 A 
ATOM     22  C   UNL     1      -1.378   9.928  17.598  0.00  0.00    +0.000 A 
ATOM     23  C   UNL     1      -0.824  10.825  18.528  0.00  0.00    +0.000 A 
BRANCH  20  24
ATOM     24  N   UNL     1      -4.903  11.050  17.431  0.00  0.00    +0.000 N 
ATOM     25  H   UNL     1      -5.442  11.727  17.964  0.00  0.00    +0.000 HD
ATOM     26  H   UNL     1      -5.401  10.177  17.298  0.00  0.00    +0.000 HD
ENDBRANCH  20  24
ENDBRANCH   1  23
TORSDOF 2
ENDMDL
MODEL 2
REMARK VINA RESULT:      -6.8      2.356      3.428
REMARK  Name = 
REMARK  3 active torsions:
REMARK  status: ('A' for Active; 'I' for Inactive)
REMARK    1  A    between atoms: C_1  and  C_2
REMARK    2  A    between atoms: C_4  and  N_5
REMARK    3  A    between atoms: C_8  and  C_9
REMARK                            x       y       z     vdW  Elec       q    Type
REMARK                         _______ _______ _______ _____ _____    ______ ____
ROOT
ATOM      1  C   UNL     1      -1.244  12.904  20.648  0.00  0.00    +0.000 C 
ATOM      2  C   UNL     1      -0.849  12.664  19.189  0.00  0.00    +0.000 C 
ATOM      3  N   UNL     1       0.015  11.520  18.927  0.00  0.00    +0.000 NA
ATOM      4  C   UNL     1       0.359  10.677  19.830  0.00  0.00    +0.000 C 
ATOM      5  C   UNL     1       1.156   9.489  19.442  0.00  0.00    +0.000 A 
ATOM      6  C   UNL     1       1.689   9.346  18.155  0.00  0.00    +0.000 A 
ATOM      7  C   UNL     1       2.410   8.197  17.826  0.00  0.00    +0.000 A 
ATOM      8  C   UNL     1       2.583   7.186  18.773  0.00  0.00    +0.000 A 
ATOM      9  C   UNL     1       2.063   7.336  20.061  0.00  0.00    +0.000 A 
ATOM     10  C   UNL     1       1.367   8.499  20.394  0.00  0.00    +0.000 A 
ATOM     11  N   UNL     1       0.923   8.690  21.697  0.00  0.00    +0.000 N 
ATOM     12  C   UNL     1       0.346   9.851  22.136  0.00  0.00    +0.000 C 
ATOM     13  O   UNL     1       0.166  10.006  23.343  0.00  0.00    +0.000 OA
ATOM     14  N   UNL     1       0.022  10.798  21.169  0.00  0.00    +0.000 N 
ATOM     15  C   UNL     1      -0.423  12.090  21.644  0.00  0.00    +0.000 C 
ATOM     16  H   UNL     1       1.136   8.016  22.420  0.00  0.00    +0.000 HD
ENDROOT
BRANCH   1  23
ATOM     17  C   UNL     1      -2.569  13.617  23.294  0.00  0.00    +0.000 C 
ATOM     18  C   UNL     1      -3.355  13.118  22.110  0.00  0.00    +0.000 A 
ATOM     19  C   UNL     1      -4.757  13.040  22.238  0.00  0.00    +0.000 A 
ATOM     20  C   UNL     1      -5.566  12.574  21.201  0.00  0.00    +0.000 A 
ATOM     21  C   UNL     1      -4.963  12.256  19.986  0.00  0.00    +0.000 A 
ATOM     22  C   UNL     1      -3.575  12.332  19.831  0.00  0.00    +0.000 A 
ATOM     23  C   UNL     1      -2.750  12.774  20.880  0.00  0.00    +0.000 A 
BRANCH  20  24
ATOM     24  N   UNL     1      -6.958  12.660  21.302  0.00  0.00    +0.000 N 
ATOM     25  H   UNL     1      -7.282  13.447  21.856  0.00  0.00    +0.000 HD
ATOM     26  H   UNL     1      -7.404  11.789  21.568  0.00  0.00    +0.000 HD
ENDBRANCH  20  24
ENDBRANCH   1  23
TORSDOF 2
ENDMDL
MODEL 3
REMARK VINA RESULT:      -6.5      3.548      5.478
REMARK  Name = 
REMARK  3 active torsions:
REMARK  status: ('A' for Active; 'I' for Inactive)
REMARK    1  A    between atoms: C_1  and  C_2
REMARK    2  A    between atoms: C_4  and  N_5
REMARK    3  A    between atoms: C_8  and  C_9
REMARK                            x       y       z     vdW  Elec       q    Type
REMARK                         _______ _______ _______ _____ _____    ______ ____
ROOT
ATOM      1  C   UNL     1      -1.689  12.082  22.247  0.00  0.00    +0.000 C 
ATOM      2  C   UNL     1      -0.888  10.959  22.911  0.00  0.00    +0.000 C 
ATOM      3  N   UNL     1      -0.145  10.075  22.021  0.00  0.00    +0.000 NA
ATOM      4  C   UNL     1      -0.059  10.260  20.756  0.00  0.00    +0.000 C 
ATOM      5  C   UNL     1       0.805   9.363  19.952  0.00  0.00    +0.000 A 
ATOM      6  C   UNL     1       1.395   8.219  20.503  0.00  0.00    +0.000 A 
ATOM      7  C   UNL     1       2.225   7.419  19.715  0.00  0.00    +0.000 A 
ATOM      8  C   UNL     1       2.479   7.769  18.388  0.00  0.00    +0.000 A 
ATOM      9  C   UNL     1       1.879   8.904  17.835  0.00  0.00    +0.000 A 
ATOM     10  C   UNL     1       1.028   9.685  18.619  0.00  0.00    +0.000 A 
ATOM     11  N   UNL     1       0.362  10.764  18.050  0.00  0.00    +0.000 N 
ATOM     12  C   UNL     1      -0.582  11.503  18.711  0.00  0.00    +0.000 C 
ATOM     13  O   UNL     1      -1.261  12.307  18.074  0.00  0.00    +0.000 OA
ATOM     14  N   UNL     1      -0.725  11.267  20.075  0.00  0.00    +0.000 N 
ATOM     15  C   UNL     1      -1.836  11.917  20.737  0.00  0.00    +0.000 C 
ATOM     16  H   UNL     1       0.451  10.966  17.063  0.00  0.00    +0.000 HD
ENDROOT
BRANCH   1  23
ATOM     17  C   UNL     1      -3.133  13.830  24.278  0.00  0.00    +0.000 C 
ATOM     18  C   UNL     1      -1.865  14.272  23.594  0.00  0.00    +0.000 A 
ATOM     19  C   UNL     1      -1.319  15.517  23.964  0.00  0.00    +0.000 A 
ATOM     20  C   UNL     1      -0.158  16.016  23.374  0.00  0.00    +0.000 A 
ATOM     21  C   UNL     1       0.511  15.214  22.452  0.00  0.00    +0.000 A 
ATOM     22  C   UNL     1      -0.007  13.971  22.072  0.00  0.00    +0.000 A 
ATOM     23  C   UNL     1      -1.192  13.474  22.642  0.00  0.00    +0.000 A 
BRANCH  20  24
ATOM     24  N   UNL     1       0.445  17.174  23.875  0.00  0.00    +0.000 N 
ATOM     25  H   UNL     1      -0.199  17.950  24.003  0.00  0.00    +0.000 HD
ATOM     26  H   UNL     1       1.286  17.447  23.379  0.00  0.00    +0.000 HD
ENDBRANCH  20  24
ENDBRANCH   1  23
TORSDOF 2
ENDMDL
MODEL 4
REMARK VINA RESULT:      -6.5      2.677      7.817
REMARK  Name = 
REMARK  3 active torsions:
REMARK  status: ('A' for Active; 'I' for Inactive)
REMARK    1  A    between atoms: C_1  and  C_2
REMARK    2  A    between atoms: C_4  and  N_5
REMARK    3  A    between atoms: C_8  and  C_9
REMARK                            x       y       z     vdW  Elec       q    Type
REMARK                         _______ _______ _______ _____ _____    ______ ____
ROOT
ATOM      1  C   UNL     1      -0.408  11.718  19.570  0.00  0.00    +0.000 C 
ATOM      2  C   UNL     1      -1.253  12.260  20.725  0.00  0.00    +0.000 C 
ATOM      3  N   UNL     1      -2.672  12.462  20.456  0.00  0.00    +0.000 NA
ATOM      4  C   UNL     1      -3.235  12.116  19.358  0.00  0.00    +0.000 C 
ATOM      5  C   UNL     1      -4.703  12.270  19.221  0.00  0.00    +0.000 A 
ATOM      6  C   UNL     1      -5.468  12.935  20.186  0.00  0.00    +0.000 A 
ATOM      7  C   UNL     1      -6.853  13.031  20.029  0.00  0.00    +0.000 A 
ATOM      8  C   UNL     1      -7.472  12.449  18.922  0.00  0.00    +0.000 A 
ATOM      9  C   UNL     1      -6.706  11.796  17.952  0.00  0.00    +0.000 A 
ATOM     10  C   UNL     1      -5.319  11.728  18.100  0.00  0.00    +0.000 A 
ATOM     11  N   UNL     1      -4.546  11.156  17.097  0.00  0.00    +0.000 N 
ATOM     12  C   UNL     1      -3.177  11.160  17.103  0.00  0.00    +0.000 C 
ATOM     13  O   UNL     1      -2.576  10.813  16.088  0.00  0.00    +0.000 OA
ATOM     14  N   UNL     1      -2.554  11.591  18.271  0.00  0.00    +0.000 N 
ATOM     15  C   UNL     1      -1.118  11.762  18.220  0.00  0.00    +0.000 C 
ATOM     16  H   UNL     1      -4.969  10.828  16.240  0.00  0.00    +0.000 HD
ENDROOT
BRANCH   1  23
ATOM     17  C   UNL     1       1.840  10.504  17.915  0.00  0.00    +0.000 C 
ATOM     18  C   UNL     1       1.246   9.797  19.104  0.00  0.00    +0.000 A 
ATOM     19  C   UNL     1       1.803   8.557  19.477  0.00  0.00    +0.000 A 
ATOM     20  C   UNL     1       1.307   7.821  20.554  0.00  0.00    +0.000 A 
ATOM     21  C   UNL     1       0.285   8.378  21.319  0.00  0.00    +0.000 A 
ATOM     22  C   UNL     1      -0.280   9.610  20.974  0.00  0.00    +0.000 A 
ATOM     23  C   UNL     1       0.195  10.345  19.874  0.00  0.00    +0.000 A 
BRANCH  20  24
ATOM     24  N   UNL     1       1.982   6.678  20.995  0.00  0.00    +0.000 N 
ATOM     25  H   UNL     1       1.520   5.807  20.748  0.00  0.00    +0.000 HD
ATOM     26  H   UNL     1       2.249   6.711  21.972  0.00  0.00    +0.000 HD
ENDBRANCH  20  24
ENDBRANCH   1  23
TORSDOF 2
ENDMDL
MODEL 5
REMARK VINA RESULT:      -6.4      2.925      7.596
REMARK  Name = 
REMARK  3 active torsions:
REMARK  status: ('A' for Active; 'I' for Inactive)
REMARK    1  A    between atoms: C_1  and  C_2
REMARK    2  A    between atoms: C_4  and  N_5
REMARK    3  A    between atoms: C_8  and  C_9
REMARK                            x       y       z     vdW  Elec       q    Type
REMARK                         _______ _______ _______ _____ _____    ______ ____
ROOT
ATOM      1  C   UNL     1       3.503   5.878  17.235  0.00  0.00    +0.000 C 
ATOM      2  C   UNL     1       3.437   7.375  16.921  0.00  0.00    +0.000 C 
ATOM      3  N   UNL     1       2.683   8.204  17.854  0.00  0.00    +0.000 NA
ATOM      4  C   UNL     1       2.177   7.756  18.943  0.00  0.00    +0.000 C 
ATOM      5  C   UNL     1       1.517   8.700  19.874  0.00  0.00    +0.000 A 
ATOM      6  C   UNL     1       1.278  10.035  19.524  0.00  0.00    +0.000 A 
ATOM      7  C   UNL     1       0.677  10.897  20.445  0.00  0.00    +0.000 A 
ATOM      8  C   UNL     1       0.333  10.433  21.715  0.00  0.00    +0.000 A 
ATOM      9  C   UNL     1       0.560   9.097  22.059  0.00  0.00    +0.000 A 
ATOM     10  C   UNL     1       1.135   8.233  21.125  0.00  0.00    +0.000 A 
ATOM     11  N   UNL     1       1.283   6.885  21.432  0.00  0.00    +0.000 N 
ATOM     12  C   UNL     1       1.719   5.950  20.533  0.00  0.00    +0.000 C 
ATOM     13  O   UNL     1       1.630   4.758  20.825  0.00  0.00    +0.000 OA
ATOM     14  N   UNL     1       2.215   6.423  19.322  0.00  0.00    +0.000 N 
ATOM     15  C   UNL     1       2.511   5.435  18.306  0.00  0.00    +0.000 C 
ATOM     16  H   UNL     1       0.939   6.512  22.306  0.00  0.00    +0.000 HD
ENDROOT
BRANCH   1  23
ATOM     17  C   UNL     1       5.305   4.724  15.070  0.00  0.00    +0.000 C 
ATOM     18  C   UNL     1       5.758   4.872  16.499  0.00  0.00    +0.000 A 
ATOM     19  C   UNL     1       7.084   4.508  16.808  0.00  0.00    +0.000 A 
ATOM     20  C   UNL     1       7.587   4.595  18.107  0.00  0.00    +0.000 A 
ATOM     21  C   UNL     1       6.768   5.132  19.097  0.00  0.00    +0.000 A 
ATOM     22  C   UNL     1       5.451   5.507  18.815  0.00  0.00    +0.000 A 
ATOM     23  C   UNL     1       4.927   5.396  17.515  0.00  0.00    +0.000 A 
BRANCH  20  24
ATOM     24  N   UNL     1       8.948   4.381  18.350  0.00  0.00    +0.000 N 
ATOM     25  H   UNL     1       9.173   3.427  18.616  0.00  0.00    +0.000 HD
ATOM     26  H   UNL     1       9.366   5.065  18.971  0.00  0.00    +0.000 HD
ENDBRANCH  20  24
ENDBRANCH   1  23
TORSDOF 2
ENDMDL
MODEL 6
REMARK VINA RESULT:      -6.4      2.208      7.319
REMARK  Name = 
REMARK  3 active torsions:
REMARK  status: ('A' for Active; 'I' for Inactive)
REMARK    1  A    between atoms: C_1  and  C_2
REMARK    2  A    between atoms: C_4  and  N_5
REMARK    3  A    between atoms: C_8  and  C_9
REMARK                            x       y       z     vdW  Elec       q    Type
REMARK                         _______ _______ _______ _____ _____    ______ ____
ROOT
ATOM      1  C   UNL     1       1.125  10.348  19.085  0.00  0.00    +0.000 C 
ATOM      2  C   UNL     1       0.876  11.329  20.233  0.00  0.00    +0.000 C 
ATOM      3  N   UNL     1      -0.440  11.954  20.283  0.00  0.00    +0.000 NA
ATOM      4  C   UNL     1      -1.396  11.644  19.488  0.00  0.00    +0.000 C 
ATOM      5  C   UNL     1      -2.729  12.263  19.686  0.00  0.00    +0.000 A 
ATOM      6  C   UNL     1      -2.931  13.300  20.605  0.00  0.00    +0.000 A 
ATOM      7  C   UNL     1      -4.210  13.833  20.778  0.00  0.00    +0.000 A 
ATOM      8  C   UNL     1      -5.285  13.321  20.050  0.00  0.00    +0.000 A 
ATOM      9  C   UNL     1      -5.079  12.296  19.123  0.00  0.00    +0.000 A 
ATOM     10  C   UNL     1      -3.795  11.785  18.933  0.00  0.00    +0.000 A 
ATOM     11  N   UNL     1      -3.571  10.825  17.953  0.00  0.00    +0.000 N 
ATOM     12  C   UNL     1      -2.326  10.365  17.617  0.00  0.00    +0.000 C 
ATOM     13  O   UNL     1      -2.201   9.670  16.610  0.00  0.00    +0.000 OA
ATOM     14  N   UNL     1      -1.270  10.745  18.440  0.00  0.00    +0.000 N 
ATOM     15  C   UNL     1       0.063  10.407  17.991  0.00  0.00    +0.000 C 
ATOM     16  H   UNL     1      -4.318  10.524  17.343  0.00  0.00    +0.000 HD
ENDROOT
BRANCH   1  23
ATOM     17  C   UNL     1       2.840   8.367  17.536  0.00  0.00    +0.000 C 
ATOM     18  C   UNL     1       2.196   8.016  18.851  0.00  0.00    +0.000 A 
ATOM     19  C   UNL     1       2.455   6.739  19.389  0.00  0.00    +0.000 A 
ATOM     20  C   UNL     1       1.889   6.319  20.593  0.00  0.00    +0.000 A 
ATOM     21  C   UNL     1       1.112   7.226  21.309  0.00  0.00    +0.000 A 
ATOM     22  C   UNL     1       0.845   8.502  20.800  0.00  0.00    +0.000 A 
ATOM     23  C   UNL     1       1.388   8.923  19.574  0.00  0.00    +0.000 A 
BRANCH  20  24
ATOM     24  N   UNL     1       2.292   5.114  21.177  0.00  0.00    +0.000 N 
ATOM     25  H   UNL     1       3.295   5.043  21.324  0.00  0.00    +0.000 HD
ATOM     26  H   UNL     1       1.908   4.291  20.726  0.00  0.00    +0.000 HD
ENDBRANCH  20  24
ENDBRANCH   1  23
TORSDOF 2
ENDMDL
MODEL 7
REMARK VINA RESULT:      -6.3      3.878      8.555
REMARK  Name = 
REMARK  3 active torsions:
REMARK  status: ('A' for Active; 'I' for Inactive)
REMARK    1  A    between atoms: C_1  and  C_2
REMARK    2  A    between atoms: C_4  and  N_5
REMARK    3  A    between atoms: C_8  and  C_9
REMARK                            x       y       z     vdW  Elec       q    Type
REMARK                         _______ _______ _______ _____ _____    ______ ____
ROOT
ATOM      1  C   UNL     1      -1.009  12.540  21.335  0.00  0.00    +0.000 C 
ATOM      2  C   UNL     1      -1.445  12.764  22.785  0.00  0.00    +0.000 C 
ATOM      3  N   UNL     1      -2.878  12.894  23.021  0.00  0.00    +0.000 NA
ATOM      4  C   UNL     1      -3.760  12.730  22.106  0.00  0.00    +0.000 C 
ATOM      5  C   UNL     1      -5.196  12.782  22.469  0.00  0.00    +0.000 A 
ATOM      6  C   UNL     1      -5.620  13.172  23.746  0.00  0.00    +0.000 A 
ATOM      7  C   UNL     1      -6.982  13.178  24.052  0.00  0.00    +0.000 A 
ATOM      8  C   UNL     1      -7.916  12.780  23.094  0.00  0.00    +0.000 A 
ATOM      9  C   UNL     1      -7.492  12.404  21.816  0.00  0.00    +0.000 A 
ATOM     10  C   UNL     1      -6.132  12.426  21.506  0.00  0.00    +0.000 A 
ATOM     11  N   UNL     1      -5.713  12.135  20.213  0.00  0.00    +0.000 N 
ATOM     12  C   UNL     1      -4.416  12.255  19.794  0.00  0.00    +0.000 C 
ATOM     13  O   UNL     1      -4.169  12.172  18.592  0.00  0.00    +0.000 OA
ATOM     14  N   UNL     1      -3.457  12.493  20.774  0.00  0.00    +0.000 N 
ATOM     15  C   UNL     1      -2.117  12.794  20.317  0.00  0.00    +0.000 C 
ATOM     16  H   UNL     1      -6.385  11.951  19.480  0.00  0.00    +0.000 HD
ENDROOT
BRANCH   1  23
ATOM     17  C   UNL     1       0.747  11.940  18.922  0.00  0.00    +0.000 C 
ATOM     18  C   UNL     1       0.504  10.927  20.010  0.00  0.00    +0.000 A 
ATOM     19  C   UNL     1       1.166   9.687  19.913  0.00  0.00    +0.000 A 
ATOM     20  C   UNL     1       0.988   8.682  20.864  0.00  0.00    +0.000 A 
ATOM     21  C   UNL     1       0.193   8.957  21.974  0.00  0.00    +0.000 A 
ATOM     22  C   UNL     1      -0.469  10.182  22.098  0.00  0.00    +0.000 A 
ATOM     23  C   UNL     1      -0.318  11.190  21.129  0.00  0.00    +0.000 A 
BRANCH  20  24
ATOM     24  N   UNL     1       1.780   7.529  20.826  0.00  0.00    +0.000 N 
ATOM     25  H   UNL     1       2.401   7.484  20.023  0.00  0.00    +0.000 HD
ATOM     26  H   UNL     1       1.259   6.670  20.961  0.00  0.00    +0.000 HD
ENDBRANCH  20  24
ENDBRANCH   1  23
TORSDOF 2
ENDMDL
MODEL 8
REMARK VINA RESULT:      -6.3      3.617      7.662
REMARK  Name = 
REMARK  3 active torsions:
REMARK  status: ('A' for Active; 'I' for Inactive)
REMARK    1  A    between atoms: C_1  and  C_2
REMARK    2  A    between atoms: C_4  and  N_5
REMARK    3  A    between atoms: C_8  and  C_9
REMARK                            x       y       z     vdW  Elec       q    Type
REMARK                         _______ _______ _______ _____ _____    ______ ____
ROOT
ATOM      1  C   UNL     1      -0.681  11.317  19.089  0.00  0.00    +0.000 C 
ATOM      2  C   UNL     1      -1.970  11.979  18.597  0.00  0.00    +0.000 C 
ATOM      3  N   UNL     1      -2.951  12.331  19.617  0.00  0.00    +0.000 NA
ATOM      4  C   UNL     1      -2.736  12.205  20.873  0.00  0.00    +0.000 C 
ATOM      5  C   UNL     1      -3.757  12.688  21.833  0.00  0.00    +0.000 A 
ATOM      6  C   UNL     1      -5.020  13.121  21.410  0.00  0.00    +0.000 A 
ATOM      7  C   UNL     1      -5.941  13.594  22.347  0.00  0.00    +0.000 A 
ATOM      8  C   UNL     1      -5.596  13.651  23.698  0.00  0.00    +0.000 A 
ATOM      9  C   UNL     1      -4.341  13.205  24.121  0.00  0.00    +0.000 A 
ATOM     10  C   UNL     1      -3.434  12.707  23.184  0.00  0.00    +0.000 A 
ATOM     11  N   UNL     1      -2.219  12.184  23.610  0.00  0.00    +0.000 N 
ATOM     12  C   UNL     1      -1.329  11.564  22.774  0.00  0.00    +0.000 C 
ATOM     13  O   UNL     1      -0.378  10.957  23.263  0.00  0.00    +0.000 OA
ATOM     14  N   UNL     1      -1.587  11.645  21.409  0.00  0.00    +0.000 N 
ATOM     15  C   UNL     1      -0.750  10.846  20.538  0.00  0.00    +0.000 C 
ATOM     16  H   UNL     1      -2.000  12.118  24.594  0.00  0.00    +0.000 HD
ENDROOT
BRANCH   1  23
ATOM     17  C   UNL     1       1.916  10.123  18.041  0.00  0.00    +0.000 C 
ATOM     18  C   UNL     1       1.759  11.597  18.306  0.00  0.00    +0.000 A 
ATOM     19  C   UNL     1       2.847  12.439  17.999  0.00  0.00    +0.000 A 
ATOM     20  C   UNL     1       2.799  13.815  18.226  0.00  0.00    +0.000 A 
ATOM     21  C   UNL     1       1.609  14.366  18.696  0.00  0.00    +0.000 A 
ATOM     22  C   UNL     1       0.513  13.553  19.002  0.00  0.00    +0.000 A 
ATOM     23  C   UNL     1       0.562  12.162  18.803  0.00  0.00    +0.000 A 
BRANCH  20  24
ATOM     24  N   UNL     1       3.829  14.640  17.763  0.00  0.00    +0.000 N 
ATOM     25  H   UNL     1       3.852  15.555  18.203  0.00  0.00    +0.000 HD
ATOM     26  H   UNL     1       3.887  14.695  16.752  0.00  0.00    +0.000 HD
ENDBRANCH  20  24
ENDBRANCH   1  23
TORSDOF 2
ENDMDL
MODEL 9
REMARK VINA RESULT:      -6.2      3.704      7.485
REMARK  Name = 
REMARK  3 active torsions:
REMARK  status: ('A' for Active; 'I' for Inactive)
REMARK    1  A    between atoms: C_1  and  C_2
REMARK    2  A    between atoms: C_4  and  N_5
REMARK    3  A    between atoms: C_8  and  C_9
REMARK                            x       y       z     vdW  Elec       q    Type
REMARK                         _______ _______ _______ _____ _____    ______ ____
ROOT
ATOM      1  C   UNL     1       0.029  11.257  20.408  0.00  0.00    +0.000 C 
ATOM      2  C   UNL     1      -0.904  11.924  19.394  0.00  0.00    +0.000 C 
ATOM      3  N   UNL     1      -0.643  13.327  19.093  0.00  0.00    +0.000 NA
ATOM      4  C   UNL     1       0.366  13.969  19.553  0.00  0.00    +0.000 C 
ATOM      5  C   UNL     1       0.600  15.362  19.107  0.00  0.00    +0.000 A 
ATOM      6  C   UNL     1      -0.339  16.056  18.331  0.00  0.00    +0.000 A 
ATOM      7  C   UNL     1      -0.063  17.358  17.910  0.00  0.00    +0.000 A 
ATOM      8  C   UNL     1       1.151  17.959  18.245  0.00  0.00    +0.000 A 
ATOM      9  C   UNL     1       2.081  17.272  19.030  0.00  0.00    +0.000 A 
ATOM     10  C   UNL     1       1.789  15.981  19.473  0.00  0.00    +0.000 A 
ATOM     11  N   UNL     1       2.672  15.326  20.323  0.00  0.00    +0.000 N 
ATOM     12  C   UNL     1       2.406  14.115  20.902  0.00  0.00    +0.000 C 
ATOM     13  O   UNL     1       3.150  13.705  21.792  0.00  0.00    +0.000 OA
ATOM     14  N   UNL     1       1.278  13.436  20.451  0.00  0.00    +0.000 N 
ATOM     15  C   UNL     1       0.898  12.245  21.180  0.00  0.00    +0.000 C 
ATOM     16  H   UNL     1       3.504  15.790  20.663  0.00  0.00    +0.000 HD
ENDROOT
BRANCH   1  23
ATOM     17  C   UNL     1       0.733   8.733  21.957  0.00  0.00    +0.000 C 
ATOM     18  C   UNL     1       1.150   8.939  20.525  0.00  0.00    +0.000 A 
ATOM     19  C   UNL     1       1.841   7.891  19.885  0.00  0.00    +0.000 A 
ATOM     20  C   UNL     1       2.282   7.997  18.565  0.00  0.00    +0.000 A 
ATOM     21  C   UNL     1       1.953   9.147  17.851  0.00  0.00    +0.000 A 
ATOM     22  C   UNL     1       1.262  10.199  18.460  0.00  0.00    +0.000 A 
ATOM     23  C   UNL     1       0.839  10.111  19.798  0.00  0.00    +0.000 A 
BRANCH  20  24
ATOM     24  N   UNL     1       2.820   6.884  17.911  0.00  0.00    +0.000 N 
ATOM     25  H   UNL     1       3.832   6.906  17.827  0.00  0.00    +0.000 HD
ATOM     26  H   UNL     1       2.362   6.664  17.034  0.00  0.00    +0.000 HD
ENDBRANCH  20  24
ENDBRANCH   1  23
TORSDOF 2
ENDMDL
