MODEL 1
REMARK VINA RESULT:      -8.0      0.000      0.000
REMARK  Name = 
REMARK  8 active torsions:
REMARK  status: ('A' for Active; 'I' for Inactive)
REMARK    1  A    between atoms: C_2  and  C_3
REMARK    2  A    between atoms: C_6  and  C_7
REMARK    3  A    between atoms: C_7  and  N_8
REMARK    4  A    between atoms: C_12  and  C_13
REMARK    5  A    between atoms: C_13  and  N_14
REMARK    6  A    between atoms: N_14  and  C_15
REMARK    7  A    between atoms: N_18  and  C_19
REMARK    8  A    between atoms: C_19  and  C_20
REMARK                            x       y       z     vdW  Elec       q    Type
REMARK                         _______ _______ _______ _____ _____    ______ ____
ROOT
ATOM      1  C   UNL     1       4.474   3.438  19.437  0.00  0.00    +0.000 C 
ENDROOT
BRANCH   1   6
ATOM      2  N   UNL     1       1.986   3.941  19.714  0.00  0.00    +0.000 N 
ATOM      3  C   UNL     1       0.818   3.406  19.234  0.00  0.00    +0.000 A 
ATOM      4  N   UNL     1       1.037   2.424  18.395  0.00  0.00    +0.000 NA
ATOM      5  C   UNL     1       2.399   2.299  18.343  0.00  0.00    +0.000 A 
ATOM      6  C   UNL     1       3.027   3.240  19.139  0.00  0.00    +0.000 A 
BRANCH   2   7
ATOM      7  C   UNL     1       2.039   4.923  20.785  0.00  0.00    +0.000 C 
BRANCH   7  11
ATOM      8  C   UNL     1       1.516   8.970  19.332  0.00  0.00    +0.000 A 
ATOM      9  C   UNL     1       2.103   8.001  18.514  0.00  0.00    +0.000 A 
ATOM     10  C   UNL     1       2.301   6.700  18.993  0.00  0.00    +0.000 A 
ATOM     11  C   UNL     1       1.909   6.347  20.294  0.00  0.00    +0.000 A 
ATOM     12  C   UNL     1       1.346   7.335  21.116  0.00  0.00    +0.000 A 
ATOM     13  C   UNL     1       1.149   8.636  20.639  0.00  0.00    +0.000 A 
BRANCH   8  15
ATOM     14  N   UNL     1       1.091  11.359  18.422  0.00  0.00    +0.000 NA
ATOM     15  C   UNL     1       1.271  10.292  18.829  0.00  0.00    +0.000 C 
ENDBRANCH   8  15
ENDBRANCH   7  11
ENDBRANCH   2   7
ENDBRANCH   1   6
BRANCH   1  16
ATOM     16  N   UNL     1       5.226   3.677  18.202  0.00  0.00    +0.000 NA
ATOM     17  H   UNL     1       4.561   3.836  17.448  0.00  0.00    +0.000 HD
BRANCH  16  18
ATOM     18  C   UNL     1       6.130   4.838  18.324  0.00  0.00    +0.000 C 
ATOM     19  C   UNL     1       5.445   6.132  17.867  0.00  0.00    +0.000 C 
ATOM     20  C   UNL     1       5.655   6.155  16.362  0.00  0.00    +0.000 C 
ATOM     21  N   UNL     1       6.932   5.509  16.197  0.00  0.00    +0.000 N 
ATOM     22  C   UNL     1       7.279   4.752  17.309  0.00  0.00    +0.000 C 
ATOM     23  O   UNL     1       8.296   4.088  17.452  0.00  0.00    +0.000 OA
BRANCH  21  24
ATOM     24  C   UNL     1       7.624   5.444  14.925  0.00  0.00    +0.000 C 
BRANCH  24  25
ATOM     25  C   UNL     1       6.874   4.697  13.843  0.00  0.00    +0.000 A 
ATOM     26  C   UNL     1       7.480   4.418  12.608  0.00  0.00    +0.000 A 
ATOM     27  C   UNL     1       6.819   3.647  11.647  0.00  0.00    +0.000 A 
ATOM     28  C   UNL     1       5.544   3.149  11.904  0.00  0.00    +0.000 A 
ATOM     29  C   UNL     1       4.923   3.430  13.116  0.00  0.00    +0.000 A 
ATOM     30  C   UNL     1       5.583   4.198  14.080  0.00  0.00    +0.000 A 
ENDBRANCH  24  25
ENDBRANCH  21  24
ENDBRANCH  16  18
ENDBRANCH   1  16
TORSDOF 8
ENDMDL
MODEL 2
REMARK VINA RESULT:      -8.0      0.882      1.545
REMARK  Name = 
REMARK  8 active torsions:
REMARK  status: ('A' for Active; 'I' for Inactive)
REMARK    1  A    between atoms: C_2  and  C_3
REMARK    2  A    between atoms: C_6  and  C_7
REMARK    3  A    between atoms: C_7  and  N_8
REMARK    4  A    between atoms: C_12  and  C_13
REMARK    5  A    between atoms: C_13  and  N_14
REMARK    6  A    between atoms: N_14  and  C_15
REMARK    7  A    between atoms: N_18  and  C_19
REMARK    8  A    between atoms: C_19  and  C_20
REMARK                            x       y       z     vdW  Elec       q    Type
REMARK                         _______ _______ _______ _____ _____    ______ ____
ROOT
ATOM      1  C   UNL     1       4.568   3.234  18.858  0.00  0.00    +0.000 C 
ENDROOT
BRANCH   1   6
ATOM      2  N   UNL     1       2.476   4.515  19.571  0.00  0.00    +0.000 N 
ATOM      3  C   UNL     1       1.138   4.232  19.664  0.00  0.00    +0.000 A 
ATOM      4  N   UNL     1       0.862   3.021  19.246  0.00  0.00    +0.000 NA
ATOM      5  C   UNL     1       2.069   2.487  18.886  0.00  0.00    +0.000 A 
ATOM      6  C   UNL     1       3.099   3.394  19.057  0.00  0.00    +0.000 A 
BRANCH   2   7
ATOM      7  C   UNL     1       3.085   5.715  20.121  0.00  0.00    +0.000 C 
BRANCH   7  11
ATOM      8  C   UNL     1       1.063   9.419  19.144  0.00  0.00    +0.000 A 
ATOM      9  C   UNL     1       0.983   8.896  20.437  0.00  0.00    +0.000 A 
ATOM     10  C   UNL     1       1.610   7.683  20.747  0.00  0.00    +0.000 A 
ATOM     11  C   UNL     1       2.333   6.979  19.770  0.00  0.00    +0.000 A 
ATOM     12  C   UNL     1       2.383   7.500  18.468  0.00  0.00    +0.000 A 
ATOM     13  C   UNL     1       1.756   8.711  18.157  0.00  0.00    +0.000 A 
BRANCH   8  15
ATOM     14  N   UNL     1      -0.043  11.698  18.593  0.00  0.00    +0.000 NA
ATOM     15  C   UNL     1       0.459  10.684  18.835  0.00  0.00    +0.000 C 
ENDBRANCH   8  15
ENDBRANCH   7  11
ENDBRANCH   2   7
ENDBRANCH   1   6
BRANCH   1  16
ATOM     16  N   UNL     1       4.947   3.620  17.497  0.00  0.00    +0.000 NA
ATOM     17  H   UNL     1       4.098   3.803  16.966  0.00  0.00    +0.000 HD
BRANCH  16  18
ATOM     18  C   UNL     1       5.810   4.819  17.484  0.00  0.00    +0.000 C 
ATOM     19  C   UNL     1       5.071   6.036  16.916  0.00  0.00    +0.000 C 
ATOM     20  C   UNL     1       5.254   5.918  15.412  0.00  0.00    +0.000 C 
ATOM     21  N   UNL     1       6.551   5.303  15.286  0.00  0.00    +0.000 N 
ATOM     22  C   UNL     1       6.945   4.673  16.460  0.00  0.00    +0.000 C 
ATOM     23  O   UNL     1       7.987   4.063  16.646  0.00  0.00    +0.000 OA
BRANCH  21  24
ATOM     24  C   UNL     1       7.223   5.137  14.012  0.00  0.00    +0.000 C 
BRANCH  24  25
ATOM     25  C   UNL     1       6.586   4.111  13.099  0.00  0.00    +0.000 A 
ATOM     26  C   UNL     1       5.190   4.018  12.985  0.00  0.00    +0.000 A 
ATOM     27  C   UNL     1       4.607   3.135  12.071  0.00  0.00    +0.000 A 
ATOM     28  C   UNL     1       5.408   2.331  11.263  0.00  0.00    +0.000 A 
ATOM     29  C   UNL     1       6.793   2.400  11.376  0.00  0.00    +0.000 A 
ATOM     30  C   UNL     1       7.379   3.284  12.287  0.00  0.00    +0.000 A 
ENDBRANCH  24  25
ENDBRANCH  21  24
ENDBRANCH  16  18
ENDBRANCH   1  16
TORSDOF 8
ENDMDL
MODEL 3
REMARK VINA RESULT:      -7.9      0.637      1.140
REMARK  Name = 
REMARK  8 active torsions:
REMARK  status: ('A' for Active; 'I' for Inactive)
REMARK    1  A    between atoms: C_2  and  C_3
REMARK    2  A    between atoms: C_6  and  C_7
REMARK    3  A    between atoms: C_7  and  N_8
REMARK    4  A    between atoms: C_12  and  C_13
REMARK    5  A    between atoms: C_13  and  N_14
REMARK    6  A    between atoms: N_14  and  C_15
REMARK    7  A    between atoms: N_18  and  C_19
REMARK    8  A    between atoms: C_19  and  C_20
REMARK                            x       y       z     vdW  Elec       q    Type
REMARK                         _______ _______ _______ _____ _____    ______ ____
ROOT
ATOM      1  C   UNL     1       4.528   3.491  18.943  0.00  0.00    +0.000 C 
ENDROOT
BRANCH   1   6
ATOM      2  N   UNL     1       2.110   3.978  19.608  0.00  0.00    +0.000 N 
ATOM      3  C   UNL     1       0.888   3.418  19.340  0.00  0.00    +0.000 A 
ATOM      4  N   UNL     1       0.983   2.412  18.505  0.00  0.00    +0.000 NA
ATOM      5  C   UNL     1       2.319   2.299  18.235  0.00  0.00    +0.000 A 
ATOM      6  C   UNL     1       3.055   3.270  18.891  0.00  0.00    +0.000 A 
BRANCH   2   7
ATOM      7  C   UNL     1       2.323   4.994  20.626  0.00  0.00    +0.000 C 
BRANCH   7  11
ATOM      8  C   UNL     1       1.514   9.042  19.315  0.00  0.00    +0.000 A 
ATOM      9  C   UNL     1       1.146   8.634  20.599  0.00  0.00    +0.000 A 
ATOM     10  C   UNL     1       1.379   7.316  21.014  0.00  0.00    +0.000 A 
ATOM     11  C   UNL     1       1.990   6.391  20.154  0.00  0.00    +0.000 A 
ATOM     12  C   UNL     1       2.330   6.804  18.857  0.00  0.00    +0.000 A 
ATOM     13  C   UNL     1       2.097   8.119  18.441  0.00  0.00    +0.000 A 
BRANCH   8  15
ATOM     14  N   UNL     1       1.154  11.493  18.554  0.00  0.00    +0.000 NA
ATOM     15  C   UNL     1       1.318  10.403  18.903  0.00  0.00    +0.000 C 
ENDBRANCH   8  15
ENDBRANCH   7  11
ENDBRANCH   2   7
ENDBRANCH   1   6
BRANCH   1  16
ATOM     16  N   UNL     1       5.066   3.695  17.596  0.00  0.00    +0.000 NA
ATOM     17  H   UNL     1       4.285   3.760  16.945  0.00  0.00    +0.000 HD
BRANCH  16  18
ATOM     18  C   UNL     1       5.890   4.917  17.510  0.00  0.00    +0.000 C 
ATOM     19  C   UNL     1       5.126   6.064  16.838  0.00  0.00    +0.000 C 
ATOM     20  C   UNL     1       5.345   5.839  15.351  0.00  0.00    +0.000 C 
ATOM     21  N   UNL     1       6.663   5.260  15.296  0.00  0.00    +0.000 N 
ATOM     22  C   UNL     1       7.051   4.732  16.521  0.00  0.00    +0.000 C 
ATOM     23  O   UNL     1       8.108   4.172  16.773  0.00  0.00    +0.000 OA
BRANCH  21  24
ATOM     24  C   UNL     1       7.367   5.022  14.051  0.00  0.00    +0.000 C 
BRANCH  24  25
ATOM     25  C   UNL     1       6.628   4.131  13.076  0.00  0.00    +0.000 A 
ATOM     26  C   UNL     1       7.329   3.296  12.191  0.00  0.00    +0.000 A 
ATOM     27  C   UNL     1       6.645   2.406  11.358  0.00  0.00    +0.000 A 
ATOM     28  C   UNL     1       5.254   2.339  11.394  0.00  0.00    +0.000 A 
ATOM     29  C   UNL     1       4.544   3.171  12.255  0.00  0.00    +0.000 A 
ATOM     30  C   UNL     1       5.226   4.060  13.091  0.00  0.00    +0.000 A 
ENDBRANCH  24  25
ENDBRANCH  21  24
ENDBRANCH  16  18
ENDBRANCH   1  16
TORSDOF 8
ENDMDL
MODEL 4
REMARK VINA RESULT:      -7.9      2.992      5.424
REMARK  Name = 
REMARK  8 active torsions:
REMARK  status: ('A' for Active; 'I' for Inactive)
REMARK    1  A    between atoms: C_2  and  C_3
REMARK    2  A    between atoms: C_6  and  C_7
REMARK    3  A    between atoms: C_7  and  N_8
REMARK    4  A    between atoms: C_12  and  C_13
REMARK    5  A    between atoms: C_13  and  N_14
REMARK    6  A    between atoms: N_14  and  C_15
REMARK    7  A    between atoms: N_18  and  C_19
REMARK    8  A    between atoms: C_19  and  C_20
REMARK                            x       y       z     vdW  Elec       q    Type
REMARK                         _______ _______ _______ _____ _____    ______ ____
ROOT
ATOM      1  C   UNL     1       1.459   7.208  20.578  0.00  0.00    +0.000 C 
ENDROOT
BRANCH   1   6
ATOM      2  N   UNL     1       1.264   9.441  19.354  0.00  0.00    +0.000 N 
ATOM      3  C   UNL     1       1.703   9.945  18.157  0.00  0.00    +0.000 A 
ATOM      4  N   UNL     1       2.436   9.079  17.501  0.00  0.00    +0.000 NA
ATOM      5  C   UNL     1       2.459   7.962  18.291  0.00  0.00    +0.000 A 
ATOM      6  C   UNL     1       1.753   8.154  19.465  0.00  0.00    +0.000 A 
BRANCH   2   7
ATOM      7  C   UNL     1       0.296  10.117  20.204  0.00  0.00    +0.000 C 
BRANCH   7  11
ATOM      8  C   UNL     1      -3.311  11.375  18.164  0.00  0.00    +0.000 A 
ATOM      9  C   UNL     1      -2.623  10.238  17.734  0.00  0.00    +0.000 A 
ATOM     10  C   UNL     1      -1.440   9.847  18.373  0.00  0.00    +0.000 A 
ATOM     11  C   UNL     1      -0.932  10.584  19.455  0.00  0.00    +0.000 A 
ATOM     12  C   UNL     1      -1.616  11.739  19.860  0.00  0.00    +0.000 A 
ATOM     13  C   UNL     1      -2.797  12.132  19.221  0.00  0.00    +0.000 A 
BRANCH   8  15
ATOM     14  N   UNL     1      -5.550  12.042  17.041  0.00  0.00    +0.000 NA
ATOM     15  C   UNL     1      -4.548  11.754  17.540  0.00  0.00    +0.000 C 
ENDBRANCH   8  15
ENDBRANCH   7  11
ENDBRANCH   2   7
ENDBRANCH   1   6
BRANCH   1  16
ATOM     16  N   UNL     1       2.364   6.057  20.528  0.00  0.00    +0.000 NA
ATOM     17  H   UNL     1       2.822   5.969  21.434  0.00  0.00    +0.000 HD
BRANCH  16  18
ATOM     18  C   UNL     1       1.647   4.806  20.207  0.00  0.00    +0.000 C 
ATOM     19  C   UNL     1       2.151   3.637  21.061  0.00  0.00    +0.000 C 
ATOM     20  C   UNL     1       3.359   3.112  20.302  0.00  0.00    +0.000 C 
ATOM     21  N   UNL     1       3.013   3.356  18.925  0.00  0.00    +0.000 N 
ATOM     22  C   UNL     1       2.009   4.307  18.801  0.00  0.00    +0.000 C 
ATOM     23  O   UNL     1       1.520   4.721  17.760  0.00  0.00    +0.000 OA
BRANCH  21  24
ATOM     24  C   UNL     1       3.809   2.868  17.815  0.00  0.00    +0.000 C 
BRANCH  24  25
ATOM     25  C   UNL     1       4.854   3.844  17.319  0.00  0.00    +0.000 A 
ATOM     26  C   UNL     1       5.803   4.390  18.198  0.00  0.00    +0.000 A 
ATOM     27  C   UNL     1       6.824   5.217  17.720  0.00  0.00    +0.000 A 
ATOM     28  C   UNL     1       6.910   5.512  16.362  0.00  0.00    +0.000 A 
ATOM     29  C   UNL     1       5.968   4.992  15.480  0.00  0.00    +0.000 A 
ATOM     30  C   UNL     1       4.948   4.163  15.954  0.00  0.00    +0.000 A 
ENDBRANCH  24  25
ENDBRANCH  21  24
ENDBRANCH  16  18
ENDBRANCH   1  16
TORSDOF 8
ENDMDL
MODEL 5
REMARK VINA RESULT:      -7.9      3.023      5.731
REMARK  Name = 
REMARK  8 active torsions:
REMARK  status: ('A' for Active; 'I' for Inactive)
REMARK    1  A    between atoms: C_2  and  C_3
REMARK    2  A    between atoms: C_6  and  C_7
REMARK    3  A    between atoms: C_7  and  N_8
REMARK    4  A    between atoms: C_12  and  C_13
REMARK    5  A    between atoms: C_13  and  N_14
REMARK    6  A    between atoms: N_14  and  C_15
REMARK    7  A    between atoms: N_18  and  C_19
REMARK    8  A    between atoms: C_19  and  C_20
REMARK                            x       y       z     vdW  Elec       q    Type
REMARK                         _______ _______ _______ _____ _____    ______ ____
ROOT
ATOM      1  C   UNL     1       1.964   7.343  19.915  0.00  0.00    +0.000 C 
ENDROOT
BRANCH   1   6
ATOM      2  N   UNL     1       0.875   9.638  20.177  0.00  0.00    +0.000 N 
ATOM      3  C   UNL     1       0.571  10.465  21.228  0.00  0.00    +0.000 A 
ATOM      4  N   UNL     1       0.877   9.924  22.381  0.00  0.00    +0.000 NA
ATOM      5  C   UNL     1       1.421   8.708  22.071  0.00  0.00    +0.000 A 
ATOM      6  C   UNL     1       1.421   8.484  20.705  0.00  0.00    +0.000 A 
BRANCH   2   7
ATOM      7  C   UNL     1       0.801  10.048  18.784  0.00  0.00    +0.000 C 
BRANCH   7  11
ATOM      8  C   UNL     1      -3.226  11.220  17.705  0.00  0.00    +0.000 A 
ATOM      9  C   UNL     1      -2.639  10.101  17.111  0.00  0.00    +0.000 A 
ATOM     10  C   UNL     1      -1.325   9.738  17.436  0.00  0.00    +0.000 A 
ATOM     11  C   UNL     1      -0.584  10.486  18.364  0.00  0.00    +0.000 A 
ATOM     12  C   UNL     1      -1.174  11.624  18.933  0.00  0.00    +0.000 A 
ATOM     13  C   UNL     1      -2.485  11.988  18.609  0.00  0.00    +0.000 A 
BRANCH   8  15
ATOM     14  N   UNL     1      -5.688  11.844  17.184  0.00  0.00    +0.000 NA
ATOM     15  C   UNL     1      -4.587  11.569  17.408  0.00  0.00    +0.000 C 
ENDBRANCH   8  15
ENDBRANCH   7  11
ENDBRANCH   2   7
ENDBRANCH   1   6
BRANCH   1  16
ATOM     16  N   UNL     1       2.193   6.182  20.780  0.00  0.00    +0.000 NA
ATOM     17  H   UNL     1       1.867   6.411  21.717  0.00  0.00    +0.000 HD
BRANCH  16  18
ATOM     18  C   UNL     1       1.489   4.981  20.286  0.00  0.00    +0.000 C 
ATOM     19  C   UNL     1       1.813   3.750  21.141  0.00  0.00    +0.000 C 
ATOM     20  C   UNL     1       3.103   3.210  20.546  0.00  0.00    +0.000 C 
ATOM     21  N   UNL     1       2.983   3.536  19.148  0.00  0.00    +0.000 N 
ATOM     22  C   UNL     1       2.044   4.535  18.926  0.00  0.00    +0.000 C 
ATOM     23  O   UNL     1       1.736   5.020  17.847  0.00  0.00    +0.000 OA
BRANCH  21  24
ATOM     24  C   UNL     1       3.921   3.068  18.146  0.00  0.00    +0.000 C 
BRANCH  24  25
ATOM     25  C   UNL     1       4.913   4.113  17.683  0.00  0.00    +0.000 A 
ATOM     26  C   UNL     1       5.858   4.652  18.571  0.00  0.00    +0.000 A 
ATOM     27  C   UNL     1       6.833   5.546  18.119  0.00  0.00    +0.000 A 
ATOM     28  C   UNL     1       6.875   5.917  16.777  0.00  0.00    +0.000 A 
ATOM     29  C   UNL     1       5.937   5.404  15.887  0.00  0.00    +0.000 A 
ATOM     30  C   UNL     1       4.963   4.508  16.337  0.00  0.00    +0.000 A 
ENDBRANCH  24  25
ENDBRANCH  21  24
ENDBRANCH  16  18
ENDBRANCH   1  16
TORSDOF 8
ENDMDL
MODEL 6
REMARK VINA RESULT:      -7.8      2.938      5.448
REMARK  Name = 
REMARK  8 active torsions:
REMARK  status: ('A' for Active; 'I' for Inactive)
REMARK    1  A    between atoms: C_2  and  C_3
REMARK    2  A    between atoms: C_6  and  C_7
REMARK    3  A    between atoms: C_7  and  N_8
REMARK    4  A    between atoms: C_12  and  C_13
REMARK    5  A    between atoms: C_13  and  N_14
REMARK    6  A    between atoms: N_14  and  C_15
REMARK    7  A    between atoms: N_18  and  C_19
REMARK    8  A    between atoms: C_19  and  C_20
REMARK                            x       y       z     vdW  Elec       q    Type
REMARK                         _______ _______ _______ _____ _____    ______ ____
ROOT
ATOM      1  C   UNL     1       1.448   7.221  20.573  0.00  0.00    +0.000 C 
ENDROOT
BRANCH   1   6
ATOM      2  N   UNL     1       1.370   9.442  19.314  0.00  0.00    +0.000 N 
ATOM      3  C   UNL     1       1.800   9.892  18.092  0.00  0.00    +0.000 A 
ATOM      4  N   UNL     1       2.443   8.964  17.427  0.00  0.00    +0.000 NA
ATOM      5  C   UNL     1       2.414   7.862  18.236  0.00  0.00    +0.000 A 
ATOM      6  C   UNL     1       1.769   8.125  19.432  0.00  0.00    +0.000 A 
BRANCH   2   7
ATOM      7  C   UNL     1       0.487  10.201  20.185  0.00  0.00    +0.000 C 
BRANCH   7  11
ATOM      8  C   UNL     1      -3.200  11.315  18.205  0.00  0.00    +0.000 A 
ATOM      9  C   UNL     1      -2.715  12.082  19.267  0.00  0.00    +0.000 A 
ATOM     10  C   UNL     1      -1.539  11.706  19.928  0.00  0.00    +0.000 A 
ATOM     11  C   UNL     1      -0.828  10.562  19.532  0.00  0.00    +0.000 A 
ATOM     12  C   UNL     1      -1.339   9.784  18.482  0.00  0.00    +0.000 A 
ATOM     13  C   UNL     1      -2.514  10.158  17.822  0.00  0.00    +0.000 A 
BRANCH   8  15
ATOM     14  N   UNL     1      -5.341  12.041  16.936  0.00  0.00    +0.000 NA
ATOM     15  C   UNL     1      -4.380  11.722  17.496  0.00  0.00    +0.000 C 
ENDBRANCH   8  15
ENDBRANCH   7  11
ENDBRANCH   2   7
ENDBRANCH   1   6
BRANCH   1  16
ATOM     16  N   UNL     1       2.342   6.060  20.576  0.00  0.00    +0.000 NA
ATOM     17  H   UNL     1       2.766   5.985  21.499  0.00  0.00    +0.000 HD
BRANCH  16  18
ATOM     18  C   UNL     1       1.624   4.811  20.254  0.00  0.00    +0.000 C 
ATOM     19  C   UNL     1       2.096   3.649  21.135  0.00  0.00    +0.000 C 
ATOM     20  C   UNL     1       3.318   3.105  20.413  0.00  0.00    +0.000 C 
ATOM     21  N   UNL     1       3.010   3.333  19.025  0.00  0.00    +0.000 N 
ATOM     22  C   UNL     1       2.016   4.291  18.863  0.00  0.00    +0.000 C 
ATOM     23  O   UNL     1       1.558   4.695  17.805  0.00  0.00    +0.000 OA
BRANCH  21  24
ATOM     24  C   UNL     1       3.829   2.825  17.942  0.00  0.00    +0.000 C 
BRANCH  24  25
ATOM     25  C   UNL     1       4.847   3.811  17.412  0.00  0.00    +0.000 A 
ATOM     26  C   UNL     1       4.880   4.150  16.050  0.00  0.00    +0.000 A 
ATOM     27  C   UNL     1       5.759   5.131  15.581  0.00  0.00    +0.000 A 
ATOM     28  C   UNL     1       6.618   5.783  16.462  0.00  0.00    +0.000 A 
ATOM     29  C   UNL     1       6.609   5.448  17.812  0.00  0.00    +0.000 A 
ATOM     30  C   UNL     1       5.730   4.469  18.285  0.00  0.00    +0.000 A 
ENDBRANCH  24  25
ENDBRANCH  21  24
ENDBRANCH  16  18
ENDBRANCH   1  16
TORSDOF 8
ENDMDL
MODEL 7
REMARK VINA RESULT:      -7.8      0.996      1.375
REMARK  Name = 
REMARK  8 active torsions:
REMARK  status: ('A' for Active; 'I' for Inactive)
REMARK    1  A    between atoms: C_2  and  C_3
REMARK    2  A    between atoms: C_6  and  C_7
REMARK    3  A    between atoms: C_7  and  N_8
REMARK    4  A    between atoms: C_12  and  C_13
REMARK    5  A    between atoms: C_13  and  N_14
REMARK    6  A    between atoms: N_14  and  C_15
REMARK    7  A    between atoms: N_18  and  C_19
REMARK    8  A    between atoms: C_19  and  C_20
REMARK                            x       y       z     vdW  Elec       q    Type
REMARK                         _______ _______ _______ _____ _____    ______ ____
ROOT
ATOM      1  C   UNL     1       3.707   4.092  17.113  0.00  0.00    +0.000 C 
ENDROOT
BRANCH   1   6
ATOM      2  N   UNL     1       2.316   4.601  19.194  0.00  0.00    +0.000 N 
ATOM      3  C   UNL     1       1.281   3.991  19.855  0.00  0.00    +0.000 A 
ATOM      4  N   UNL     1       0.883   2.903  19.244  0.00  0.00    +0.000 NA
ATOM      5  C   UNL     1       1.703   2.787  18.155  0.00  0.00    +0.000 A 
ATOM      6  C   UNL     1       2.600   3.837  18.079  0.00  0.00    +0.000 A 
BRANCH   2   7
ATOM      7  C   UNL     1       3.063   5.725  19.734  0.00  0.00    +0.000 C 
BRANCH   7  11
ATOM      8  C   UNL     1       1.010   9.469  19.006  0.00  0.00    +0.000 A 
ATOM      9  C   UNL     1       1.682   8.823  17.965  0.00  0.00    +0.000 A 
ATOM     10  C   UNL     1       2.372   7.628  18.205  0.00  0.00    +0.000 A 
ATOM     11  C   UNL     1       2.394   7.059  19.488  0.00  0.00    +0.000 A 
ATOM     12  C   UNL     1       1.739   7.730  20.531  0.00  0.00    +0.000 A 
ATOM     13  C   UNL     1       1.051   8.924  20.293  0.00  0.00    +0.000 A 
BRANCH   8  15
ATOM     14  N   UNL     1      -0.342  11.636  18.566  0.00  0.00    +0.000 NA
ATOM     15  C   UNL     1       0.264  10.669  18.753  0.00  0.00    +0.000 C 
ENDBRANCH   8  15
ENDBRANCH   7  11
ENDBRANCH   2   7
ENDBRANCH   1   6
BRANCH   1  16
ATOM     16  N   UNL     1       5.005   3.833  17.740  0.00  0.00    +0.000 NA
ATOM     17  H   UNL     1       5.433   3.034  17.276  0.00  0.00    +0.000 HD
BRANCH  16  18
ATOM     18  C   UNL     1       5.903   5.002  17.650  0.00  0.00    +0.000 C 
ATOM     19  C   UNL     1       5.203   6.198  16.993  0.00  0.00    +0.000 C 
ATOM     20  C   UNL     1       5.391   5.968  15.502  0.00  0.00    +0.000 C 
ATOM     21  N   UNL     1       6.669   5.308  15.429  0.00  0.00    +0.000 N 
ATOM     22  C   UNL     1       7.038   4.751  16.646  0.00  0.00    +0.000 C 
ATOM     23  O   UNL     1       8.061   4.125  16.882  0.00  0.00    +0.000 OA
BRANCH  21  24
ATOM     24  C   UNL     1       7.342   5.033  14.174  0.00  0.00    +0.000 C 
BRANCH  24  25
ATOM     25  C   UNL     1       6.587   4.100  13.252  0.00  0.00    +0.000 A 
ATOM     26  C   UNL     1       5.184   4.062  13.257  0.00  0.00    +0.000 A 
ATOM     27  C   UNL     1       4.488   3.269  12.340  0.00  0.00    +0.000 A 
ATOM     28  C   UNL     1       5.183   2.500  11.409  0.00  0.00    +0.000 A 
ATOM     29  C   UNL     1       6.574   2.514  11.401  0.00  0.00    +0.000 A 
ATOM     30  C   UNL     1       7.272   3.309  12.315  0.00  0.00    +0.000 A 
ENDBRANCH  24  25
ENDBRANCH  21  24
ENDBRANCH  16  18
ENDBRANCH   1  16
TORSDOF 8
ENDMDL
MODEL 8
REMARK VINA RESULT:      -7.7      3.135      6.170
REMARK  Name = 
REMARK  8 active torsions:
REMARK  status: ('A' for Active; 'I' for Inactive)
REMARK    1  A    between atoms: C_2  and  C_3
REMARK    2  A    between atoms: C_6  and  C_7
REMARK    3  A    between atoms: C_7  and  N_8
REMARK    4  A    between atoms: C_12  and  C_13
REMARK    5  A    between atoms: C_13  and  N_14
REMARK    6  A    between atoms: N_14  and  C_15
REMARK    7  A    between atoms: N_18  and  C_19
REMARK    8  A    between atoms: C_19  and  C_20
REMARK                            x       y       z     vdW  Elec       q    Type
REMARK                         _______ _______ _______ _____ _____    ______ ____
ROOT
ATOM      1  C   UNL     1       2.679   8.511  17.883  0.00  0.00    +0.000 C 
ENDROOT
BRANCH   1   6
ATOM      2  N   UNL     1       0.865   9.457  19.412  0.00  0.00    +0.000 N 
ATOM      3  C   UNL     1       0.398   9.176  20.670  0.00  0.00    +0.000 A 
ATOM      4  N   UNL     1       1.005   8.141  21.198  0.00  0.00    +0.000 NA
ATOM      5  C   UNL     1       1.917   7.746  20.257  0.00  0.00    +0.000 A 
ATOM      6  C   UNL     1       1.848   8.532  19.120  0.00  0.00    +0.000 A 
BRANCH   2   7
ATOM      7  C   UNL     1       0.495  10.648  18.665  0.00  0.00    +0.000 C 
BRANCH   7  11
ATOM      8  C   UNL     1      -3.760  11.206  18.077  0.00  0.00    +0.000 A 
ATOM      9  C   UNL     1      -3.069  12.001  18.994  0.00  0.00    +0.000 A 
ATOM     10  C   UNL     1      -1.699  11.802  19.208  0.00  0.00    +0.000 A 
ATOM     11  C   UNL     1      -1.000  10.809  18.503  0.00  0.00    +0.000 A 
ATOM     12  C   UNL     1      -1.710   9.999  17.605  0.00  0.00    +0.000 A 
ATOM     13  C   UNL     1      -3.079  10.196  17.391  0.00  0.00    +0.000 A 
BRANCH   8  15
ATOM     14  N   UNL     1      -6.273  11.634  17.604  0.00  0.00    +0.000 NA
ATOM     15  C   UNL     1      -5.154  11.438  17.823  0.00  0.00    +0.000 C 
ENDBRANCH   8  15
ENDBRANCH   7  11
ENDBRANCH   2   7
ENDBRANCH   1   6
BRANCH   1  16
ATOM     16  N   UNL     1       2.928   7.133  17.454  0.00  0.00    +0.000 NA
ATOM     17  H   UNL     1       2.642   7.043  16.481  0.00  0.00    +0.000 HD
BRANCH  16  18
ATOM     18  C   UNL     1       4.351   6.762  17.591  0.00  0.00    +0.000 C 
ATOM     19  C   UNL     1       4.894   6.133  16.302  0.00  0.00    +0.000 C 
ATOM     20  C   UNL     1       4.524   4.664  16.418  0.00  0.00    +0.000 C 
ATOM     21  N   UNL     1       4.592   4.417  17.835  0.00  0.00    +0.000 N 
ATOM     22  C   UNL     1       4.526   5.593  18.572  0.00  0.00    +0.000 C 
ATOM     23  O   UNL     1       4.551   5.694  19.790  0.00  0.00    +0.000 OA
BRANCH  21  24
ATOM     24  C   UNL     1       4.470   3.092  18.411  0.00  0.00    +0.000 C 
BRANCH  24  25
ATOM     25  C   UNL     1       3.286   2.921  19.339  0.00  0.00    +0.000 A 
ATOM     26  C   UNL     1       3.475   2.647  20.703  0.00  0.00    +0.000 A 
ATOM     27  C   UNL     1       2.384   2.583  21.575  0.00  0.00    +0.000 A 
ATOM     28  C   UNL     1       1.091   2.788  21.098  0.00  0.00    +0.000 A 
ATOM     29  C   UNL     1       0.886   3.045  19.746  0.00  0.00    +0.000 A 
ATOM     30  C   UNL     1       1.975   3.112  18.872  0.00  0.00    +0.000 A 
ENDBRANCH  24  25
ENDBRANCH  21  24
ENDBRANCH  16  18
ENDBRANCH   1  16
TORSDOF 8
ENDMDL
MODEL 9
REMARK VINA RESULT:      -7.6      2.725      8.360
REMARK  Name = 
REMARK  8 active torsions:
REMARK  status: ('A' for Active; 'I' for Inactive)
REMARK    1  A    between atoms: C_2  and  C_3
REMARK    2  A    between atoms: C_6  and  C_7
REMARK    3  A    between atoms: C_7  and  N_8
REMARK    4  A    between atoms: C_12  and  C_13
REMARK    5  A    between atoms: C_13  and  N_14
REMARK    6  A    between atoms: N_14  and  C_15
REMARK    7  A    between atoms: N_18  and  C_19
REMARK    8  A    between atoms: C_19  and  C_20
REMARK                            x       y       z     vdW  Elec       q    Type
REMARK                         _______ _______ _______ _____ _____    ______ ____
ROOT
ATOM      1  C   UNL     1       4.144   6.890  16.814  0.00  0.00    +0.000 C 
ENDROOT
BRANCH   1   6
ATOM      2  N   UNL     1       5.770   4.923  16.707  0.00  0.00    +0.000 N 
ATOM      3  C   UNL     1       7.103   4.738  16.966  0.00  0.00    +0.000 A 
ATOM      4  N   UNL     1       7.694   5.855  17.314  0.00  0.00    +0.000 NA
ATOM      5  C   UNL     1       6.705   6.799  17.301  0.00  0.00    +0.000 A 
ATOM      6  C   UNL     1       5.492   6.261  16.910  0.00  0.00    +0.000 A 
BRANCH   2   7
ATOM      7  C   UNL     1       4.838   3.832  16.468  0.00  0.00    +0.000 C 
BRANCH   7  11
ATOM      8  C   UNL     1       2.556   2.883  20.024  0.00  0.00    +0.000 A 
ATOM      9  C   UNL     1       3.951   2.819  20.048  0.00  0.00    +0.000 A 
ATOM     10  C   UNL     1       4.690   3.095  18.891  0.00  0.00    +0.000 A 
ATOM     11  C   UNL     1       4.044   3.447  17.695  0.00  0.00    +0.000 A 
ATOM     12  C   UNL     1       2.642   3.482  17.675  0.00  0.00    +0.000 A 
ATOM     13  C   UNL     1       1.903   3.204  18.830  0.00  0.00    +0.000 A 
BRANCH   8  15
ATOM     14  N   UNL     1       1.173   2.457  22.175  0.00  0.00    +0.000 NA
ATOM     15  C   UNL     1       1.798   2.644  21.220  0.00  0.00    +0.000 C 
ENDBRANCH   8  15
ENDBRANCH   7  11
ENDBRANCH   2   7
ENDBRANCH   1   6
BRANCH   1  16
ATOM     16  N   UNL     1       3.732   7.424  18.114  0.00  0.00    +0.000 NA
ATOM     17  H   UNL     1       3.993   8.408  18.155  0.00  0.00    +0.000 HD
BRANCH  16  18
ATOM     18  C   UNL     1       2.278   7.285  18.331  0.00  0.00    +0.000 C 
ATOM     19  C   UNL     1       1.526   8.558  17.927  0.00  0.00    +0.000 C 
ATOM     20  C   UNL     1       1.601   9.444  19.160  0.00  0.00    +0.000 C 
ATOM     21  N   UNL     1       1.590   8.499  20.246  0.00  0.00    +0.000 N 
ATOM     22  C   UNL     1       1.946   7.222  19.829  0.00  0.00    +0.000 C 
ATOM     23  O   UNL     1       2.032   6.223  20.528  0.00  0.00    +0.000 OA
BRANCH  21  24
ATOM     24  C   UNL     1       1.487   8.898  21.637  0.00  0.00    +0.000 C 
BRANCH  24  25
ATOM     25  C   UNL     1       0.480   9.998  21.898  0.00  0.00    +0.000 A 
ATOM     26  C   UNL     1      -0.528   9.837  22.862  0.00  0.00    +0.000 A 
ATOM     27  C   UNL     1      -1.397  10.888  23.167  0.00  0.00    +0.000 A 
ATOM     28  C   UNL     1      -1.274  12.112  22.512  0.00  0.00    +0.000 A 
ATOM     29  C   UNL     1      -0.291  12.282  21.543  0.00  0.00    +0.000 A 
ATOM     30  C   UNL     1       0.581  11.233  21.238  0.00  0.00    +0.000 A 
ENDBRANCH  24  25
ENDBRANCH  21  24
ENDBRANCH  16  18
ENDBRANCH   1  16
TORSDOF 8
ENDMDL
