MODEL 1
REMARK VINA RESULT:      -8.9      0.000      0.000
REMARK  Name = 
REMARK  4 active torsions:
REMARK  status: ('A' for Active; 'I' for Inactive)
REMARK    1  A    between atoms: C_2  and  C_3
REMARK    2  A    between atoms: C_3  and  C_4
REMARK    3  A    between atoms: C_4  and  N_5
REMARK    4  A    between atoms: N_22  and  C_23
REMARK                            x       y       z     vdW  Elec       q    Type
REMARK                         _______ _______ _______ _____ _____    ______ ____
ROOT
ATOM      1  N   UNL     1       5.369   5.975  18.454  0.00  0.00    +0.000 N 
ATOM      2  C   UNL     1       4.237   5.605  17.781  0.00  0.00    +0.000 C 
ATOM      3  O   UNL     1       4.290   5.183  16.626  0.00  0.00    +0.000 OA
ATOM      4  N   UNL     1       3.038   5.747  18.461  0.00  0.00    +0.000 N 
ATOM      5  C   UNL     1       1.854   5.153  17.842  0.00  0.00    +0.000 C 
ATOM      6  C   UNL     1       1.382   3.951  18.683  0.00  0.00    +0.000 C 
ATOM      7  C   UNL     1       0.937   4.486  20.046  0.00  0.00    +0.000 C 
ATOM      8  C   UNL     1       2.166   5.091  20.725  0.00  0.00    +0.000 C 
ATOM      9  C   UNL     1       2.831   6.183  19.847  0.00  0.00    +0.000 C 
ATOM     10  C   UNL     1       3.125   3.942  21.046  0.00  0.00    +0.000 C 
ATOM     11  N   UNL     1       3.306   2.948  19.989  0.00  0.00    +0.000 N 
ATOM     12  C   UNL     1       2.503   2.929  18.841  0.00  0.00    +0.000 A 
ATOM     13  C   UNL     1       2.763   2.041  17.864  0.00  0.00    +0.000 A 
ATOM     14  C   UNL     1       3.840   1.094  17.991  0.00  0.00    +0.000 A 
ATOM     15  C   UNL     1       4.574   1.047  19.105  0.00  0.00    +0.000 A 
ATOM     16  C   UNL     1       4.315   2.005  20.208  0.00  0.00    +0.000 A 
ATOM     17  O   UNL     1       4.990   1.932  21.233  0.00  0.00    +0.000 OA
ATOM     18  H   UNL     1       5.340   5.841  19.455  0.00  0.00    +0.000 HD
ENDROOT
BRANCH   1  19
ATOM     19  C   UNL     1       6.677   5.667  17.888  0.00  0.00    +0.000 C 
BRANCH  19  20
ATOM     20  C   UNL     1       7.821   6.353  18.624  0.00  0.00    +0.000 C 
BRANCH  20  22
ATOM     21  O   UNL     1       7.523   8.206  17.130  0.00  0.00    +0.000 OA
ATOM     22  C   UNL     1       8.009   7.789  18.173  0.00  0.00    +0.000 C 
ATOM     23  N   UNL     1       8.801   8.523  19.048  0.00  0.00    +0.000 N 
ATOM     24  H   UNL     1       9.304   8.009  19.761  0.00  0.00    +0.000 HD
BRANCH  23  25
ATOM     25  C   UNL     1       9.044   9.913  18.982  0.00  0.00    +0.000 A 
ATOM     26  C   UNL     1       8.736  10.689  17.858  0.00  0.00    +0.000 A 
ATOM     27  C   UNL     1       8.960  12.068  17.858  0.00  0.00    +0.000 A 
ATOM     28  C   UNL     1       9.497  12.675  18.983  0.00  0.00    +0.000 A 
ATOM     29  F   UNL     1       9.706  13.997  18.985  0.00  0.00    +0.000 F 
ATOM     30  C   UNL     1       9.818  11.926  20.109  0.00  0.00    +0.000 A 
ATOM     31  C   UNL     1       9.581  10.545  20.111  0.00  0.00    +0.000 A 
ENDBRANCH  23  25
ENDBRANCH  20  22
ENDBRANCH  19  20
ENDBRANCH   1  19
TORSDOF 4
ENDMDL
MODEL 2
REMARK VINA RESULT:      -8.7      0.946      1.257
REMARK  Name = 
REMARK  4 active torsions:
REMARK  status: ('A' for Active; 'I' for Inactive)
REMARK    1  A    between atoms: C_2  and  C_3
REMARK    2  A    between atoms: C_3  and  C_4
REMARK    3  A    between atoms: C_4  and  N_5
REMARK    4  A    between atoms: N_22  and  C_23
REMARK                            x       y       z     vdW  Elec       q    Type
REMARK                         _______ _______ _______ _____ _____    ______ ____
ROOT
ATOM      1  N   UNL     1       5.121   6.082  18.499  0.00  0.00    +0.000 N 
ATOM      2  C   UNL     1       4.015   5.642  17.824  0.00  0.00    +0.000 C 
ATOM      3  O   UNL     1       4.096   5.232  16.665  0.00  0.00    +0.000 OA
ATOM      4  N   UNL     1       2.810   5.697  18.505  0.00  0.00    +0.000 N 
ATOM      5  C   UNL     1       1.668   5.030  17.882  0.00  0.00    +0.000 C 
ATOM      6  C   UNL     1       1.279   3.793  18.714  0.00  0.00    +0.000 C 
ATOM      7  C   UNL     1       0.800   4.287  20.082  0.00  0.00    +0.000 C 
ATOM      8  C   UNL     1       1.987   4.967  20.765  0.00  0.00    +0.000 C 
ATOM      9  C   UNL     1       2.575   6.108  19.894  0.00  0.00    +0.000 C 
ATOM     10  C   UNL     1       3.021   3.883  21.077  0.00  0.00    +0.000 C 
ATOM     11  N   UNL     1       3.266   2.912  20.011  0.00  0.00    +0.000 N 
ATOM     12  C   UNL     1       2.466   2.848  18.864  0.00  0.00    +0.000 A 
ATOM     13  C   UNL     1       2.784   1.986  17.880  0.00  0.00    +0.000 A 
ATOM     14  C   UNL     1       3.922   1.113  17.999  0.00  0.00    +0.000 A 
ATOM     15  C   UNL     1       4.659   1.107  19.113  0.00  0.00    +0.000 A 
ATOM     16  C   UNL     1       4.337   2.037  20.223  0.00  0.00    +0.000 A 
ATOM     17  O   UNL     1       5.017   2.001  21.248  0.00  0.00    +0.000 OA
ATOM     18  H   UNL     1       5.101   5.939  19.499  0.00  0.00    +0.000 HD
ENDROOT
BRANCH   1  19
ATOM     19  C   UNL     1       6.445   5.866  17.930  0.00  0.00    +0.000 C 
BRANCH  19  20
ATOM     20  C   UNL     1       7.028   7.118  17.286  0.00  0.00    +0.000 C 
BRANCH  20  22
ATOM     21  O   UNL     1       8.640   7.223  19.060  0.00  0.00    +0.000 OA
ATOM     22  C   UNL     1       8.009   7.827  18.201  0.00  0.00    +0.000 C 
ATOM     23  N   UNL     1       8.066   9.195  17.965  0.00  0.00    +0.000 N 
ATOM     24  H   UNL     1       7.349   9.593  17.370  0.00  0.00    +0.000 HD
BRANCH  23  25
ATOM     25  C   UNL     1       8.976  10.102  18.551  0.00  0.00    +0.000 A 
ATOM     26  C   UNL     1       9.065  10.308  19.933  0.00  0.00    +0.000 A 
ATOM     27  C   UNL     1      10.011  11.188  20.465  0.00  0.00    +0.000 A 
ATOM     28  C   UNL     1      10.868  11.869  19.615  0.00  0.00    +0.000 A 
ATOM     29  F   UNL     1      11.778  12.708  20.125  0.00  0.00    +0.000 F 
ATOM     30  C   UNL     1      10.795  11.687  18.239  0.00  0.00    +0.000 A 
ATOM     31  C   UNL     1       9.854  10.796  17.709  0.00  0.00    +0.000 A 
ENDBRANCH  23  25
ENDBRANCH  20  22
ENDBRANCH  19  20
ENDBRANCH   1  19
TORSDOF 4
ENDMDL
MODEL 3
REMARK VINA RESULT:      -8.6      4.062      5.170
REMARK  Name = 
REMARK  4 active torsions:
REMARK  status: ('A' for Active; 'I' for Inactive)
REMARK    1  A    between atoms: C_2  and  C_3
REMARK    2  A    between atoms: C_3  and  C_4
REMARK    3  A    between atoms: C_4  and  N_5
REMARK    4  A    between atoms: N_22  and  C_23
REMARK                            x       y       z     vdW  Elec       q    Type
REMARK                         _______ _______ _______ _____ _____    ______ ____
ROOT
ATOM      1  N   UNL     1       4.451   6.143  19.119  0.00  0.00    +0.000 N 
ATOM      2  C   UNL     1       3.470   5.604  18.331  0.00  0.00    +0.000 C 
ATOM      3  O   UNL     1       3.667   5.365  17.140  0.00  0.00    +0.000 OA
ATOM      4  N   UNL     1       2.251   5.359  18.942  0.00  0.00    +0.000 N 
ATOM      5  C   UNL     1       1.273   4.586  18.178  0.00  0.00    +0.000 C 
ATOM      6  C   UNL     1       1.085   3.204  18.834  0.00  0.00    +0.000 C 
ATOM      7  C   UNL     1       0.474   3.428  20.220  0.00  0.00    +0.000 C 
ATOM      8  C   UNL     1       1.491   4.216  21.047  0.00  0.00    +0.000 C 
ATOM      9  C   UNL     1       1.893   5.543  20.354  0.00  0.00    +0.000 C 
ATOM     10  C   UNL     1       2.693   3.300  21.290  0.00  0.00    +0.000 C 
ATOM     11  N   UNL     1       3.151   2.530  20.134  0.00  0.00    +0.000 N 
ATOM     12  C   UNL     1       2.419   2.472  18.941  0.00  0.00    +0.000 A 
ATOM     13  C   UNL     1       2.925   1.811  17.884  0.00  0.00    +0.000 A 
ATOM     14  C   UNL     1       4.197   1.144  17.967  0.00  0.00    +0.000 A 
ATOM     15  C   UNL     1       4.881   1.127  19.114  0.00  0.00    +0.000 A 
ATOM     16  C   UNL     1       4.354   1.838  20.304  0.00  0.00    +0.000 A 
ATOM     17  O   UNL     1       4.991   1.794  21.356  0.00  0.00    +0.000 OA
ATOM     18  H   UNL     1       4.421   5.873  20.092  0.00  0.00    +0.000 HD
ENDROOT
BRANCH   1  19
ATOM     19  C   UNL     1       5.813   6.238  18.608  0.00  0.00    +0.000 C 
BRANCH  19  20
ATOM     20  C   UNL     1       6.541   4.900  18.600  0.00  0.00    +0.000 C 
BRANCH  20  22
ATOM     21  O   UNL     1       8.272   4.070  17.161  0.00  0.00    +0.000 OA
ATOM     22  C   UNL     1       7.172   4.601  17.253  0.00  0.00    +0.000 C 
ATOM     23  N   UNL     1       6.384   5.023  16.190  0.00  0.00    +0.000 N 
ATOM     24  H   UNL     1       5.599   5.626  16.404  0.00  0.00    +0.000 HD
BRANCH  23  25
ATOM     25  C   UNL     1       6.628   4.767  14.822  0.00  0.00    +0.000 A 
ATOM     26  C   UNL     1       7.616   5.431  14.086  0.00  0.00    +0.000 A 
ATOM     27  C   UNL     1       7.843   5.112  12.744  0.00  0.00    +0.000 A 
ATOM     28  C   UNL     1       7.080   4.128  12.135  0.00  0.00    +0.000 A 
ATOM     29  F   UNL     1       7.301   3.818  10.852  0.00  0.00    +0.000 F 
ATOM     30  C   UNL     1       6.088   3.459  12.843  0.00  0.00    +0.000 A 
ATOM     31  C   UNL     1       5.870   3.772  14.190  0.00  0.00    +0.000 A 
ENDBRANCH  23  25
ENDBRANCH  20  22
ENDBRANCH  19  20
ENDBRANCH   1  19
TORSDOF 4
ENDMDL
MODEL 4
REMARK VINA RESULT:      -8.6      4.462      6.298
REMARK  Name = 
REMARK  4 active torsions:
REMARK  status: ('A' for Active; 'I' for Inactive)
REMARK    1  A    between atoms: C_2  and  C_3
REMARK    2  A    between atoms: C_3  and  C_4
REMARK    3  A    between atoms: C_4  and  N_5
REMARK    4  A    between atoms: N_22  and  C_23
REMARK                            x       y       z     vdW  Elec       q    Type
REMARK                         _______ _______ _______ _____ _____    ______ ____
ROOT
ATOM      1  N   UNL     1       2.035   5.996  20.087  0.00  0.00    +0.000 N 
ATOM      2  C   UNL     1       1.927   5.462  18.831  0.00  0.00    +0.000 C 
ATOM      3  O   UNL     1       1.688   6.172  17.854  0.00  0.00    +0.000 OA
ATOM      4  N   UNL     1       2.083   4.090  18.727  0.00  0.00    +0.000 N 
ATOM      5  C   UNL     1       2.190   3.539  17.376  0.00  0.00    +0.000 C 
ATOM      6  C   UNL     1       3.620   3.015  17.147  0.00  0.00    +0.000 C 
ATOM      7  C   UNL     1       3.847   1.847  18.111  0.00  0.00    +0.000 C 
ATOM      8  C   UNL     1       3.765   2.405  19.533  0.00  0.00    +0.000 C 
ATOM      9  C   UNL     1       2.420   3.135  19.789  0.00  0.00    +0.000 C 
ATOM     10  C   UNL     1       4.972   3.324  19.736  0.00  0.00    +0.000 C 
ATOM     11  N   UNL     1       5.278   4.227  18.628  0.00  0.00    +0.000 N 
ATOM     12  C   UNL     1       4.645   4.120  17.383  0.00  0.00    +0.000 A 
ATOM     13  C   UNL     1       4.909   5.026  16.424  0.00  0.00    +0.000 A 
ATOM     14  C   UNL     1       5.850   6.091  16.650  0.00  0.00    +0.000 A 
ATOM     15  C   UNL     1       6.518   6.173  17.804  0.00  0.00    +0.000 A 
ATOM     16  C   UNL     1       6.260   5.190  18.884  0.00  0.00    +0.000 A 
ATOM     17  O   UNL     1       6.900   5.273  19.931  0.00  0.00    +0.000 OA
ATOM     18  H   UNL     1       2.668   5.513  20.708  0.00  0.00    +0.000 HD
ENDROOT
BRANCH   1  19
ATOM     19  C   UNL     1       2.086   7.444  20.252  0.00  0.00    +0.000 C 
BRANCH  19  20
ATOM     20  C   UNL     1       1.148   7.953  21.339  0.00  0.00    +0.000 C 
BRANCH  20  22
ATOM     21  O   UNL     1       1.171  10.213  22.143  0.00  0.00    +0.000 OA
ATOM     22  C   UNL     1       0.903   9.446  21.227  0.00  0.00    +0.000 C 
ATOM     23  N   UNL     1       0.327   9.803  20.014  0.00  0.00    +0.000 N 
ATOM     24  H   UNL     1      -0.028   9.054  19.431  0.00  0.00    +0.000 HD
BRANCH  23  25
ATOM     25  C   UNL     1       0.107  11.120  19.554  0.00  0.00    +0.000 A 
ATOM     26  C   UNL     1      -1.116  11.785  19.703  0.00  0.00    +0.000 A 
ATOM     27  C   UNL     1      -1.271  13.103  19.266  0.00  0.00    +0.000 A 
ATOM     28  C   UNL     1      -0.202  13.759  18.674  0.00  0.00    +0.000 A 
ATOM     29  F   UNL     1      -0.348  15.024  18.261  0.00  0.00    +0.000 F 
ATOM     30  C   UNL     1       1.020  13.118  18.508  0.00  0.00    +0.000 A 
ATOM     31  C   UNL     1       1.176  11.801  18.958  0.00  0.00    +0.000 A 
ENDBRANCH  23  25
ENDBRANCH  20  22
ENDBRANCH  19  20
ENDBRANCH   1  19
TORSDOF 4
ENDMDL
MODEL 5
REMARK VINA RESULT:      -8.6      4.784      7.252
REMARK  Name = 
REMARK  4 active torsions:
REMARK  status: ('A' for Active; 'I' for Inactive)
REMARK    1  A    between atoms: C_2  and  C_3
REMARK    2  A    between atoms: C_3  and  C_4
REMARK    3  A    between atoms: C_4  and  N_5
REMARK    4  A    between atoms: N_22  and  C_23
REMARK                            x       y       z     vdW  Elec       q    Type
REMARK                         _______ _______ _______ _____ _____    ______ ____
ROOT
ATOM      1  N   UNL     1       2.164   6.331  20.071  0.00  0.00    +0.000 N 
ATOM      2  C   UNL     1       1.996   5.752  18.843  0.00  0.00    +0.000 C 
ATOM      3  O   UNL     1       1.799   6.434  17.837  0.00  0.00    +0.000 OA
ATOM      4  N   UNL     1       2.042   4.368  18.799  0.00  0.00    +0.000 N 
ATOM      5  C   UNL     1       2.085   3.750  17.474  0.00  0.00    +0.000 C 
ATOM      6  C   UNL     1       3.467   3.105  17.253  0.00  0.00    +0.000 C 
ATOM      7  C   UNL     1       3.615   1.968  18.267  0.00  0.00    +0.000 C 
ATOM      8  C   UNL     1       3.599   2.593  19.662  0.00  0.00    +0.000 C 
ATOM      9  C   UNL     1       2.320   3.437  19.899  0.00  0.00    +0.000 C 
ATOM     10  C   UNL     1       4.877   3.422  19.809  0.00  0.00    +0.000 C 
ATOM     11  N   UNL     1       5.237   4.248  18.658  0.00  0.00    +0.000 N 
ATOM     12  C   UNL     1       4.578   4.136  17.426  0.00  0.00    +0.000 A 
ATOM     13  C   UNL     1       4.898   4.974  16.424  0.00  0.00    +0.000 A 
ATOM     14  C   UNL     1       5.923   5.970  16.590  0.00  0.00    +0.000 A 
ATOM     15  C   UNL     1       6.613   6.051  17.731  0.00  0.00    +0.000 A 
ATOM     16  C   UNL     1       6.295   5.141  18.858  0.00  0.00    +0.000 A 
ATOM     17  O   UNL     1       6.955   5.219  19.893  0.00  0.00    +0.000 OA
ATOM     18  H   UNL     1       2.767   5.828  20.707  0.00  0.00    +0.000 HD
ENDROOT
BRANCH   1  19
ATOM     19  C   UNL     1       2.331   7.776  20.169  0.00  0.00    +0.000 C 
BRANCH  19  20
ATOM     20  C   UNL     1       1.574   8.385  21.342  0.00  0.00    +0.000 C 
BRANCH  20  22
ATOM     21  O   UNL     1      -0.815   8.371  21.560  0.00  0.00    +0.000 OA
ATOM     22  C   UNL     1       0.165   8.796  20.960  0.00  0.00    +0.000 C 
ATOM     23  N   UNL     1       0.137   9.654  19.868  0.00  0.00    +0.000 N 
ATOM     24  H   UNL     1       0.996   9.765  19.343  0.00  0.00    +0.000 HD
BRANCH  23  25
ATOM     25  C   UNL     1      -1.002  10.318  19.362  0.00  0.00    +0.000 A 
ATOM     26  C   UNL     1      -1.518  11.489  19.930  0.00  0.00    +0.000 A 
ATOM     27  C   UNL     1      -2.625  12.130  19.366  0.00  0.00    +0.000 A 
ATOM     28  C   UNL     1      -3.221  11.599  18.233  0.00  0.00    +0.000 A 
ATOM     29  F   UNL     1      -4.277  12.216  17.690  0.00  0.00    +0.000 F 
ATOM     30  C   UNL     1      -2.731  10.434  17.654  0.00  0.00    +0.000 A 
ATOM     31  C   UNL     1      -1.615   9.799  18.214  0.00  0.00    +0.000 A 
ENDBRANCH  23  25
ENDBRANCH  20  22
ENDBRANCH  19  20
ENDBRANCH   1  19
TORSDOF 4
ENDMDL
MODEL 6
REMARK VINA RESULT:      -8.4      4.146      6.305
REMARK  Name = 
REMARK  4 active torsions:
REMARK  status: ('A' for Active; 'I' for Inactive)
REMARK    1  A    between atoms: C_2  and  C_3
REMARK    2  A    between atoms: C_3  and  C_4
REMARK    3  A    between atoms: C_4  and  N_5
REMARK    4  A    between atoms: N_22  and  C_23
REMARK                            x       y       z     vdW  Elec       q    Type
REMARK                         _______ _______ _______ _____ _____    ______ ____
ROOT
ATOM      1  N   UNL     1       5.833   4.458  18.641  0.00  0.00    +0.000 N 
ATOM      2  C   UNL     1       5.059   3.822  19.574  0.00  0.00    +0.000 C 
ATOM      3  O   UNL     1       5.247   3.987  20.779  0.00  0.00    +0.000 OA
ATOM      4  N   UNL     1       4.072   2.980  19.089  0.00  0.00    +0.000 N 
ATOM      5  C   UNL     1       3.103   2.471  20.059  0.00  0.00    +0.000 C 
ATOM      6  C   UNL     1       1.722   3.099  19.783  0.00  0.00    +0.000 C 
ATOM      7  C   UNL     1       1.257   2.610  18.409  0.00  0.00    +0.000 C 
ATOM      8  C   UNL     1       2.243   3.152  17.373  0.00  0.00    +0.000 C 
ATOM      9  C   UNL     1       3.702   2.730  17.691  0.00  0.00    +0.000 C 
ATOM     10  C   UNL     1       2.075   4.672  17.329  0.00  0.00    +0.000 C 
ATOM     11  N   UNL     1       1.960   5.338  18.626  0.00  0.00    +0.000 N 
ATOM     12  C   UNL     1       1.805   4.621  19.819  0.00  0.00    +0.000 A 
ATOM     13  C   UNL     1       1.782   5.281  20.992  0.00  0.00    +0.000 A 
ATOM     14  C   UNL     1       1.891   6.716  21.036  0.00  0.00    +0.000 A 
ATOM     15  C   UNL     1       1.970   7.426  19.908  0.00  0.00    +0.000 A 
ATOM     16  C   UNL     1       1.992   6.736  18.595  0.00  0.00    +0.000 A 
ATOM     17  O   UNL     1       2.045   7.410  17.567  0.00  0.00    +0.000 OA
ATOM     18  H   UNL     1       5.369   4.675  17.771  0.00  0.00    +0.000 HD
ENDROOT
BRANCH   1  19
ATOM     19  C   UNL     1       6.750   5.509  19.062  0.00  0.00    +0.000 C 
BRANCH  19  20
ATOM     20  C   UNL     1       7.574   6.077  17.913  0.00  0.00    +0.000 C 
BRANCH  20  22
ATOM     21  O   UNL     1       8.226   4.068  16.775  0.00  0.00    +0.000 OA
ATOM     22  C   UNL     1       7.624   5.134  16.726  0.00  0.00    +0.000 C 
ATOM     23  N   UNL     1       6.953   5.635  15.617  0.00  0.00    +0.000 N 
ATOM     24  H   UNL     1       6.675   6.609  15.645  0.00  0.00    +0.000 HD
BRANCH  23  25
ATOM     25  C   UNL     1       6.703   4.941  14.413  0.00  0.00    +0.000 A 
ATOM     26  C   UNL     1       7.565   4.988  13.312  0.00  0.00    +0.000 A 
ATOM     27  C   UNL     1       7.291   4.250  12.157  0.00  0.00    +0.000 A 
ATOM     28  C   UNL     1       6.150   3.465  12.100  0.00  0.00    +0.000 A 
ATOM     29  F   UNL     1       5.891   2.754  10.996  0.00  0.00    +0.000 F 
ATOM     30  C   UNL     1       5.274   3.407  13.178  0.00  0.00    +0.000 A 
ATOM     31  C   UNL     1       5.557   4.138  14.338  0.00  0.00    +0.000 A 
ENDBRANCH  23  25
ENDBRANCH  20  22
ENDBRANCH  19  20
ENDBRANCH   1  19
TORSDOF 4
ENDMDL
MODEL 7
REMARK VINA RESULT:      -8.3      4.849      6.683
REMARK  Name = 
REMARK  4 active torsions:
REMARK  status: ('A' for Active; 'I' for Inactive)
REMARK    1  A    between atoms: C_2  and  C_3
REMARK    2  A    between atoms: C_3  and  C_4
REMARK    3  A    between atoms: C_4  and  N_5
REMARK    4  A    between atoms: N_22  and  C_23
REMARK                            x       y       z     vdW  Elec       q    Type
REMARK                         _______ _______ _______ _____ _____    ______ ____
ROOT
ATOM      1  N   UNL     1       2.063   5.935  20.364  0.00  0.00    +0.000 N 
ATOM      2  C   UNL     1       1.913   5.488  19.079  0.00  0.00    +0.000 C 
ATOM      3  O   UNL     1       1.621   6.259  18.165  0.00  0.00    +0.000 OA
ATOM      4  N   UNL     1       2.091   4.130  18.872  0.00  0.00    +0.000 N 
ATOM      5  C   UNL     1       2.153   3.676  17.483  0.00  0.00    +0.000 C 
ATOM      6  C   UNL     1       3.582   3.201  17.161  0.00  0.00    +0.000 C 
ATOM      7  C   UNL     1       3.870   1.974  18.030  0.00  0.00    +0.000 C 
ATOM      8  C   UNL     1       3.836   2.430  19.490  0.00  0.00    +0.000 C 
ATOM      9  C   UNL     1       2.490   3.110  19.849  0.00  0.00    +0.000 C 
ATOM     10  C   UNL     1       5.033   3.358  19.709  0.00  0.00    +0.000 C 
ATOM     11  N   UNL     1       5.276   4.343  18.656  0.00  0.00    +0.000 N 
ATOM     12  C   UNL     1       4.594   4.309  17.433  0.00  0.00    +0.000 A 
ATOM     13  C   UNL     1       4.802   5.285  16.530  0.00  0.00    +0.000 A 
ATOM     14  C   UNL     1       5.731   6.352  16.793  0.00  0.00    +0.000 A 
ATOM     15  C   UNL     1       6.444   6.368  17.923  0.00  0.00    +0.000 A 
ATOM     16  C   UNL     1       6.250   5.307  18.940  0.00  0.00    +0.000 A 
ATOM     17  O   UNL     1       6.930   5.330  19.965  0.00  0.00    +0.000 OA
ATOM     18  H   UNL     1       2.730   5.424  20.924  0.00  0.00    +0.000 HD
ENDROOT
BRANCH   1  19
ATOM     19  C   UNL     1       2.094   7.368  20.628  0.00  0.00    +0.000 C 
BRANCH  19  20
ATOM     20  C   UNL     1       0.747   7.920  21.079  0.00  0.00    +0.000 C 
BRANCH  20  22
ATOM     21  O   UNL     1       1.794   9.489  22.562  0.00  0.00    +0.000 OA
ATOM     22  C   UNL     1       0.884   9.262  21.774  0.00  0.00    +0.000 C 
ATOM     23  N   UNL     1      -0.134  10.144  21.436  0.00  0.00    +0.000 N 
ATOM     24  H   UNL     1      -0.929   9.765  20.935  0.00  0.00    +0.000 HD
BRANCH  23  25
ATOM     25  C   UNL     1      -0.211  11.506  21.804  0.00  0.00    +0.000 A 
ATOM     26  C   UNL     1       0.531  12.510  21.170  0.00  0.00    +0.000 A 
ATOM     27  C   UNL     1       0.388  13.849  21.546  0.00  0.00    +0.000 A 
ATOM     28  C   UNL     1      -0.495  14.185  22.560  0.00  0.00    +0.000 A 
ATOM     29  F   UNL     1      -0.635  15.468  22.916  0.00  0.00    +0.000 F 
ATOM     30  C   UNL     1      -1.237  13.206  23.209  0.00  0.00    +0.000 A 
ATOM     31  C   UNL     1      -1.101  11.867  22.823  0.00  0.00    +0.000 A 
ENDBRANCH  23  25
ENDBRANCH  20  22
ENDBRANCH  19  20
ENDBRANCH   1  19
TORSDOF 4
ENDMDL
MODEL 8
REMARK VINA RESULT:      -8.2      5.009      7.042
REMARK  Name = 
REMARK  4 active torsions:
REMARK  status: ('A' for Active; 'I' for Inactive)
REMARK    1  A    between atoms: C_2  and  C_3
REMARK    2  A    between atoms: C_3  and  C_4
REMARK    3  A    between atoms: C_4  and  N_5
REMARK    4  A    between atoms: N_22  and  C_23
REMARK                            x       y       z     vdW  Elec       q    Type
REMARK                         _______ _______ _______ _____ _____    ______ ____
ROOT
ATOM      1  N   UNL     1       2.022   6.100  20.026  0.00  0.00    +0.000 N 
ATOM      2  C   UNL     1       1.905   5.516  18.793  0.00  0.00    +0.000 C 
ATOM      3  O   UNL     1       1.673   6.188  17.788  0.00  0.00    +0.000 OA
ATOM      4  N   UNL     1       2.044   4.139  18.745  0.00  0.00    +0.000 N 
ATOM      5  C   UNL     1       2.142   3.531  17.419  0.00  0.00    +0.000 C 
ATOM      6  C   UNL     1       3.565   2.981  17.209  0.00  0.00    +0.000 C 
ATOM      7  C   UNL     1       3.779   1.851  18.220  0.00  0.00    +0.000 C 
ATOM      8  C   UNL     1       3.707   2.468  19.618  0.00  0.00    +0.000 C 
ATOM      9  C   UNL     1       2.372   3.224  19.845  0.00  0.00    +0.000 C 
ATOM     10  C   UNL     1       4.925   3.380  19.782  0.00  0.00    +0.000 C 
ATOM     11  N   UNL     1       5.241   4.233  18.637  0.00  0.00    +0.000 N 
ATOM     12  C   UNL     1       4.604   4.082  17.398  0.00  0.00    +0.000 A 
ATOM     13  C   UNL     1       4.877   4.944  16.402  0.00  0.00    +0.000 A 
ATOM     14  C   UNL     1       5.831   6.006  16.583  0.00  0.00    +0.000 A 
ATOM     15  C   UNL     1       6.503   6.128  17.731  0.00  0.00    +0.000 A 
ATOM     16  C   UNL     1       6.235   5.193  18.851  0.00  0.00    +0.000 A 
ATOM     17  O   UNL     1       6.877   5.311  19.894  0.00  0.00    +0.000 OA
ATOM     18  H   UNL     1       2.651   5.636  20.666  0.00  0.00    +0.000 HD
ENDROOT
BRANCH   1  19
ATOM     19  C   UNL     1       2.092   7.552  20.131  0.00  0.00    +0.000 C 
BRANCH  19  20
ATOM     20  C   UNL     1       1.391   8.094  21.371  0.00  0.00    +0.000 C 
BRANCH  20  22
ATOM     21  O   UNL     1       0.116   9.539  19.941  0.00  0.00    +0.000 OA
ATOM     22  C   UNL     1       0.557   9.324  21.063  0.00  0.00    +0.000 C 
ATOM     23  N   UNL     1       0.398  10.151  22.168  0.00  0.00    +0.000 N 
ATOM     24  H   UNL     1       0.980   9.962  22.976  0.00  0.00    +0.000 HD
BRANCH  23  25
ATOM     25  C   UNL     1      -0.433  11.290  22.241  0.00  0.00    +0.000 A 
ATOM     26  C   UNL     1      -0.186  12.462  21.517  0.00  0.00    +0.000 A 
ATOM     27  C   UNL     1      -1.062  13.548  21.594  0.00  0.00    +0.000 A 
ATOM     28  C   UNL     1      -2.188  13.465  22.399  0.00  0.00    +0.000 A 
ATOM     29  F   UNL     1      -3.030  14.503  22.468  0.00  0.00    +0.000 F 
ATOM     30  C   UNL     1      -2.451  12.315  23.133  0.00  0.00    +0.000 A 
ATOM     31  C   UNL     1      -1.578  11.223  23.046  0.00  0.00    +0.000 A 
ENDBRANCH  23  25
ENDBRANCH  20  22
ENDBRANCH  19  20
ENDBRANCH   1  19
TORSDOF 4
ENDMDL
MODEL 9
REMARK VINA RESULT:      -8.2      4.672      6.205
REMARK  Name = 
REMARK  4 active torsions:
REMARK  status: ('A' for Active; 'I' for Inactive)
REMARK    1  A    between atoms: C_2  and  C_3
REMARK    2  A    between atoms: C_3  and  C_4
REMARK    3  A    between atoms: C_4  and  N_5
REMARK    4  A    between atoms: N_22  and  C_23
REMARK                            x       y       z     vdW  Elec       q    Type
REMARK                         _______ _______ _______ _____ _____    ______ ____
ROOT
ATOM      1  N   UNL     1       2.169   6.337  20.136  0.00  0.00    +0.000 N 
ATOM      2  C   UNL     1       2.001   5.818  18.881  0.00  0.00    +0.000 C 
ATOM      3  O   UNL     1       1.806   6.549  17.909  0.00  0.00    +0.000 OA
ATOM      4  N   UNL     1       2.046   4.438  18.770  0.00  0.00    +0.000 N 
ATOM      5  C   UNL     1       2.089   3.885  17.417  0.00  0.00    +0.000 C 
ATOM      6  C   UNL     1       3.470   3.250  17.166  0.00  0.00    +0.000 C 
ATOM      7  C   UNL     1       3.616   2.064  18.123  0.00  0.00    +0.000 C 
ATOM      8  C   UNL     1       3.599   2.621  19.547  0.00  0.00    +0.000 C 
ATOM      9  C   UNL     1       2.321   3.455  19.824  0.00  0.00    +0.000 C 
ATOM     10  C   UNL     1       4.878   3.440  19.736  0.00  0.00    +0.000 C 
ATOM     11  N   UNL     1       5.240   4.320  18.626  0.00  0.00    +0.000 N 
ATOM     12  C   UNL     1       4.583   4.269  17.390  0.00  0.00    +0.000 A 
ATOM     13  C   UNL     1       4.905   5.155  16.430  0.00  0.00    +0.000 A 
ATOM     14  C   UNL     1       5.931   6.140  16.645  0.00  0.00    +0.000 A 
ATOM     15  C   UNL     1       6.620   6.164  17.789  0.00  0.00    +0.000 A 
ATOM     16  C   UNL     1       6.299   5.201  18.870  0.00  0.00    +0.000 A 
ATOM     17  O   UNL     1       6.958   5.227  19.909  0.00  0.00    +0.000 OA
ATOM     18  H   UNL     1       2.771   5.802  20.747  0.00  0.00    +0.000 HD
ENDROOT
BRANCH   1  19
ATOM     19  C   UNL     1       2.339   7.775  20.304  0.00  0.00    +0.000 C 
BRANCH  19  20
ATOM     20  C   UNL     1       1.050   8.484  20.700  0.00  0.00    +0.000 C 
BRANCH  20  22
ATOM     21  O   UNL     1       0.469   9.570  18.641  0.00  0.00    +0.000 OA
ATOM     22  C   UNL     1       0.769   9.689  19.823  0.00  0.00    +0.000 C 
ATOM     23  N   UNL     1       0.925  10.891  20.501  0.00  0.00    +0.000 N 
ATOM     24  H   UNL     1       1.370  10.857  21.411  0.00  0.00    +0.000 HD
BRANCH  23  25
ATOM     25  C   UNL     1       0.604  12.174  20.005  0.00  0.00    +0.000 A 
ATOM     26  C   UNL     1       1.509  12.961  19.282  0.00  0.00    +0.000 A 
ATOM     27  C   UNL     1       1.128  14.207  18.777  0.00  0.00    +0.000 A 
ATOM     28  C   UNL     1      -0.159  14.672  18.998  0.00  0.00    +0.000 A 
ATOM     29  F   UNL     1      -0.526  15.863  18.510  0.00  0.00    +0.000 F 
ATOM     30  C   UNL     1      -1.074  13.912  19.718  0.00  0.00    +0.000 A 
ATOM     31  C   UNL     1      -0.694  12.659  20.213  0.00  0.00    +0.000 A 
ENDBRANCH  23  25
ENDBRANCH  20  22
ENDBRANCH  19  20
ENDBRANCH   1  19
TORSDOF 4
ENDMDL
