MODEL 1
REMARK VINA RESULT:      -7.6      0.000      0.000
REMARK  Name = 
REMARK  7 active torsions:
REMARK  status: ('A' for Active; 'I' for Inactive)
REMARK    1  A    between atoms: C_1  and  N_2
REMARK    2  A    between atoms: N_2  and  C_3
REMARK    3  A    between atoms: N_2  and  C_4
REMARK    4  A    between atoms: C_9  and  C_10
REMARK    5  A    between atoms: C_10  and  N_11
REMARK    6  A    between atoms: N_11  and  S_12
REMARK    7  A    between atoms: S_12  and  C_15
REMARK                            x       y       z     vdW  Elec       q    Type
REMARK                         _______ _______ _______ _____ _____    ______ ____
ROOT
ATOM      1  N   UNL     1       4.114   6.551  18.668  0.00  0.00    +0.000 NA
ATOM      2  H   UNL     1       4.578   7.112  19.385  0.00  0.00    +0.000 HD
ENDROOT
BRANCH   1   3
ATOM      3  S   UNL     1       2.432   6.580  18.946  0.00  0.00    +0.000 S 
ATOM      4  O   UNL     1       2.240   7.250  20.212  0.00  0.00    +0.000 OA
ATOM      5  O   UNL     1       1.778   7.016  17.741  0.00  0.00    +0.000 OA
BRANCH   3   6
ATOM      6  C   UNL     1       2.074   4.869  19.195  0.00  0.00    +0.000 A 
ATOM      7  C   UNL     1       2.312   3.979  18.145  0.00  0.00    +0.000 A 
ATOM      8  C   UNL     1       2.040   2.634  18.336  0.00  0.00    +0.000 A 
ATOM      9  F   UNL     1       2.264   1.774  17.336  0.00  0.00    +0.000 F 
ATOM     10  C   UNL     1       1.542   2.165  19.546  0.00  0.00    +0.000 A 
ATOM     11  C   UNL     1       1.312   3.066  20.578  0.00  0.00    +0.000 A 
ATOM     12  F   UNL     1       0.835   2.619  21.748  0.00  0.00    +0.000 F 
ATOM     13  C   UNL     1       1.571   4.423  20.421  0.00  0.00    +0.000 A 
ENDBRANCH   3   6
ENDBRANCH   1   3
BRANCH   1  14
ATOM     14  C   UNL     1       4.441   6.899  17.283  0.00  0.00    +0.000 C 
BRANCH  14  20
ATOM     15  C   UNL     1       6.753   5.977  16.852  0.00  0.00    +0.000 A 
ATOM     16  N   UNL     1       7.603   5.242  16.092  0.00  0.00    +0.000 NA
ATOM     17  C   UNL     1       7.135   4.565  15.016  0.00  0.00    +0.000 A 
ATOM     18  C   UNL     1       5.819   4.580  14.615  0.00  0.00    +0.000 A 
ATOM     19  C   UNL     1       4.933   5.343  15.357  0.00  0.00    +0.000 A 
ATOM     20  C   UNL     1       5.385   6.056  16.483  0.00  0.00    +0.000 A 
BRANCH  15  22
ATOM     21  C   UNL     1       7.935   5.967  19.068  0.00  0.00    +0.000 C 
ATOM     22  N   UNL     1       7.309   6.659  17.945  0.00  0.00    +0.000 N 
ATOM     23  C   UNL     1       7.906   7.959  17.638  0.00  0.00    +0.000 C 
ENDBRANCH  15  22
ENDBRANCH  14  20
ENDBRANCH   1  14
TORSDOF 5
ENDMDL
MODEL 2
REMARK VINA RESULT:      -7.4      0.233      1.919
REMARK  Name = 
REMARK  7 active torsions:
REMARK  status: ('A' for Active; 'I' for Inactive)
REMARK    1  A    between atoms: C_1  and  N_2
REMARK    2  A    between atoms: N_2  and  C_3
REMARK    3  A    between atoms: N_2  and  C_4
REMARK    4  A    between atoms: C_9  and  C_10
REMARK    5  A    between atoms: C_10  and  N_11
REMARK    6  A    between atoms: N_11  and  S_12
REMARK    7  A    between atoms: S_12  and  C_15
REMARK                            x       y       z     vdW  Elec       q    Type
REMARK                         _______ _______ _______ _____ _____    ______ ____
ROOT
ATOM      1  N   UNL     1       4.282   6.491  18.808  0.00  0.00    +0.000 NA
ATOM      2  H   UNL     1       4.683   6.992  19.603  0.00  0.00    +0.000 HD
ENDROOT
BRANCH   1   3
ATOM      3  S   UNL     1       2.581   6.540  18.924  0.00  0.00    +0.000 S 
ATOM      4  O   UNL     1       2.278   7.204  20.172  0.00  0.00    +0.000 OA
ATOM      5  O   UNL     1       2.051   6.993  17.667  0.00  0.00    +0.000 OA
BRANCH   3   6
ATOM      6  C   UNL     1       2.181   4.832  19.125  0.00  0.00    +0.000 A 
ATOM      7  C   UNL     1       1.652   4.412  20.348  0.00  0.00    +0.000 A 
ATOM      8  C   UNL     1       1.330   3.074  20.511  0.00  0.00    +0.000 A 
ATOM      9  F   UNL     1       0.822   2.662  21.678  0.00  0.00    +0.000 F 
ATOM     10  C   UNL     1       1.521   2.158  19.483  0.00  0.00    +0.000 A 
ATOM     11  C   UNL     1       2.049   2.595  18.276  0.00  0.00    +0.000 A 
ATOM     12  F   UNL     1       2.234   1.717  17.281  0.00  0.00    +0.000 F 
ATOM     13  C   UNL     1       2.387   3.929  18.078  0.00  0.00    +0.000 A 
ENDBRANCH   3   6
ENDBRANCH   1   3
BRANCH   1  14
ATOM     14  C   UNL     1       4.748   6.925  17.488  0.00  0.00    +0.000 C 
BRANCH  14  20
ATOM     15  C   UNL     1       6.922   5.894  16.720  0.00  0.00    +0.000 A 
ATOM     16  N   UNL     1       7.603   5.074  15.880  0.00  0.00    +0.000 NA
ATOM     17  C   UNL     1       6.932   4.335  14.964  0.00  0.00    +0.000 A 
ATOM     18  C   UNL     1       5.565   4.365  14.809  0.00  0.00    +0.000 A 
ATOM     19  C   UNL     1       4.846   5.212  15.636  0.00  0.00    +0.000 A 
ATOM     20  C   UNL     1       5.512   5.991  16.600  0.00  0.00    +0.000 A 
BRANCH  15  22
ATOM     21  C   UNL     1       7.733   8.095  17.614  0.00  0.00    +0.000 C 
ATOM     22  N   UNL     1       7.683   6.636  17.635  0.00  0.00    +0.000 N 
ATOM     23  C   UNL     1       7.801   6.055  18.973  0.00  0.00    +0.000 C 
ENDBRANCH  15  22
ENDBRANCH  14  20
ENDBRANCH   1  14
TORSDOF 5
ENDMDL
MODEL 3
REMARK VINA RESULT:      -7.3      2.593      3.211
REMARK  Name = 
REMARK  7 active torsions:
REMARK  status: ('A' for Active; 'I' for Inactive)
REMARK    1  A    between atoms: C_1  and  N_2
REMARK    2  A    between atoms: N_2  and  C_3
REMARK    3  A    between atoms: N_2  and  C_4
REMARK    4  A    between atoms: C_9  and  C_10
REMARK    5  A    between atoms: C_10  and  N_11
REMARK    6  A    between atoms: N_11  and  S_12
REMARK    7  A    between atoms: S_12  and  C_15
REMARK                            x       y       z     vdW  Elec       q    Type
REMARK                         _______ _______ _______ _____ _____    ______ ____
ROOT
ATOM      1  N   UNL     1       4.787   3.092  17.484  0.00  0.00    +0.000 NA
ATOM      2  H   UNL     1       5.198   3.421  18.359  0.00  0.00    +0.000 HD
ENDROOT
BRANCH   1   3
ATOM      3  S   UNL     1       3.344   2.252  17.831  0.00  0.00    +0.000 S 
ATOM      4  O   UNL     1       2.473   2.453  16.696  0.00  0.00    +0.000 OA
ATOM      5  O   UNL     1       3.685   0.941  18.313  0.00  0.00    +0.000 OA
BRANCH   3   6
ATOM      6  C   UNL     1       2.688   3.195  19.172  0.00  0.00    +0.000 A 
ATOM      7  C   UNL     1       2.143   2.513  20.261  0.00  0.00    +0.000 A 
ATOM      8  C   UNL     1       1.631   3.246  21.320  0.00  0.00    +0.000 A 
ATOM      9  F   UNL     1       1.107   2.601  22.369  0.00  0.00    +0.000 F 
ATOM     10  C   UNL     1       1.657   4.636  21.311  0.00  0.00    +0.000 A 
ATOM     11  C   UNL     1       2.203   5.295  20.219  0.00  0.00    +0.000 A 
ATOM     12  F   UNL     1       2.233   6.635  20.206  0.00  0.00    +0.000 F 
ATOM     13  C   UNL     1       2.722   4.592  19.137  0.00  0.00    +0.000 A 
ENDBRANCH   3   6
ENDBRANCH   1   3
BRANCH   1  14
ATOM     14  C   UNL     1       4.582   4.118  16.458  0.00  0.00    +0.000 C 
BRANCH  14  20
ATOM     15  C   UNL     1       6.807   5.102  15.776  0.00  0.00    +0.000 A 
ATOM     16  N   UNL     1       7.728   5.374  14.818  0.00  0.00    +0.000 NA
ATOM     17  C   UNL     1       7.537   4.935  13.550  0.00  0.00    +0.000 A 
ATOM     18  C   UNL     1       6.432   4.220  13.146  0.00  0.00    +0.000 A 
ATOM     19  C   UNL     1       5.463   3.949  14.097  0.00  0.00    +0.000 A 
ATOM     20  C   UNL     1       5.632   4.388  15.424  0.00  0.00    +0.000 A 
BRANCH  15  22
ATOM     21  C   UNL     1       7.783   4.823  18.072  0.00  0.00    +0.000 C 
ATOM     22  N   UNL     1       7.066   5.596  17.063  0.00  0.00    +0.000 N 
ATOM     23  C   UNL     1       7.287   7.040  17.149  0.00  0.00    +0.000 C 
ENDBRANCH  15  22
ENDBRANCH  14  20
ENDBRANCH   1  14
TORSDOF 5
ENDMDL
MODEL 4
REMARK VINA RESULT:      -7.3      1.836      2.015
REMARK  Name = 
REMARK  7 active torsions:
REMARK  status: ('A' for Active; 'I' for Inactive)
REMARK    1  A    between atoms: C_1  and  N_2
REMARK    2  A    between atoms: N_2  and  C_3
REMARK    3  A    between atoms: N_2  and  C_4
REMARK    4  A    between atoms: C_9  and  C_10
REMARK    5  A    between atoms: C_10  and  N_11
REMARK    6  A    between atoms: N_11  and  S_12
REMARK    7  A    between atoms: S_12  and  C_15
REMARK                            x       y       z     vdW  Elec       q    Type
REMARK                         _______ _______ _______ _____ _____    ______ ____
ROOT
ATOM      1  N   UNL     1       3.337   4.006  16.936  0.00  0.00    +0.000 NA
ATOM      2  H   UNL     1       3.646   3.078  17.232  0.00  0.00    +0.000 HD
ENDROOT
BRANCH   1   3
ATOM      3  S   UNL     1       2.024   4.488  17.912  0.00  0.00    +0.000 S 
ATOM      4  O   UNL     1       2.235   5.885  18.217  0.00  0.00    +0.000 OA
ATOM      5  O   UNL     1       0.808   4.012  17.309  0.00  0.00    +0.000 OA
BRANCH   3   6
ATOM      6  C   UNL     1       2.316   3.575  19.394  0.00  0.00    +0.000 A 
ATOM      7  C   UNL     1       3.576   3.002  19.584  0.00  0.00    +0.000 A 
ATOM      8  C   UNL     1       3.815   2.289  20.749  0.00  0.00    +0.000 A 
ATOM      9  F   UNL     1       5.019   1.736  20.940  0.00  0.00    +0.000 F 
ATOM     10  C   UNL     1       2.829   2.141  21.717  0.00  0.00    +0.000 A 
ATOM     11  C   UNL     1       1.584   2.717  21.508  0.00  0.00    +0.000 A 
ATOM     12  F   UNL     1       0.630   2.580  22.440  0.00  0.00    +0.000 F 
ATOM     13  C   UNL     1       1.307   3.438  20.351  0.00  0.00    +0.000 A 
ENDBRANCH   3   6
ENDBRANCH   1   3
BRANCH   1  14
ATOM     14  C   UNL     1       4.381   5.033  16.887  0.00  0.00    +0.000 C 
BRANCH  14  20
ATOM     15  C   UNL     1       6.750   5.516  16.155  0.00  0.00    +0.000 A 
ATOM     16  N   UNL     1       7.717   5.483  15.204  0.00  0.00    +0.000 NA
ATOM     17  C   UNL     1       7.469   4.899  14.007  0.00  0.00    +0.000 A 
ATOM     18  C   UNL     1       6.263   4.328  13.669  0.00  0.00    +0.000 A 
ATOM     19  C   UNL     1       5.250   4.369  14.611  0.00  0.00    +0.000 A 
ATOM     20  C   UNL     1       5.475   4.965  15.866  0.00  0.00    +0.000 A 
BRANCH  15  22
ATOM     21  C   UNL     1       7.674   5.430  18.489  0.00  0.00    +0.000 C 
ATOM     22  N   UNL     1       7.074   6.146  17.367  0.00  0.00    +0.000 N 
ATOM     23  C   UNL     1       7.495   7.543  17.256  0.00  0.00    +0.000 C 
ENDBRANCH  15  22
ENDBRANCH  14  20
ENDBRANCH   1  14
TORSDOF 5
ENDMDL
MODEL 5
REMARK VINA RESULT:      -7.3      3.087      4.030
REMARK  Name = 
REMARK  7 active torsions:
REMARK  status: ('A' for Active; 'I' for Inactive)
REMARK    1  A    between atoms: C_1  and  N_2
REMARK    2  A    between atoms: N_2  and  C_3
REMARK    3  A    between atoms: N_2  and  C_4
REMARK    4  A    between atoms: C_9  and  C_10
REMARK    5  A    between atoms: C_10  and  N_11
REMARK    6  A    between atoms: N_11  and  S_12
REMARK    7  A    between atoms: S_12  and  C_15
REMARK                            x       y       z     vdW  Elec       q    Type
REMARK                         _______ _______ _______ _____ _____    ______ ____
ROOT
ATOM      1  N   UNL     1       3.623   5.282  17.365  0.00  0.00    +0.000 NA
ATOM      2  H   UNL     1       2.727   5.270  16.873  0.00  0.00    +0.000 HD
ENDROOT
BRANCH   1   3
ATOM      3  S   UNL     1       3.332   5.296  19.045  0.00  0.00    +0.000 S 
ATOM      4  O   UNL     1       2.375   4.243  19.300  0.00  0.00    +0.000 OA
ATOM      5  O   UNL     1       4.596   5.364  19.727  0.00  0.00    +0.000 OA
BRANCH   3   6
ATOM      6  C   UNL     1       2.491   6.834  19.256  0.00  0.00    +0.000 A 
ATOM      7  C   UNL     1       1.915   7.112  20.497  0.00  0.00    +0.000 A 
ATOM      8  C   UNL     1       1.259   8.321  20.673  0.00  0.00    +0.000 A 
ATOM      9  F   UNL     1       0.704   8.597  21.859  0.00  0.00    +0.000 F 
ATOM     10  C   UNL     1       1.171   9.247  19.641  0.00  0.00    +0.000 A 
ATOM     11  C   UNL     1       1.750   8.951  18.414  0.00  0.00    +0.000 A 
ATOM     12  F   UNL     1       1.671   9.843  17.416  0.00  0.00    +0.000 F 
ATOM     13  C   UNL     1       2.414   7.748  18.201  0.00  0.00    +0.000 A 
ENDBRANCH   3   6
ENDBRANCH   1   3
BRANCH   1  14
ATOM     14  C   UNL     1       4.565   4.226  16.986  0.00  0.00    +0.000 C 
BRANCH  14  20
ATOM     15  C   UNL     1       6.738   5.209  16.152  0.00  0.00    +0.000 A 
ATOM     16  N   UNL     1       7.615   5.435  15.142  0.00  0.00    +0.000 NA
ATOM     17  C   UNL     1       7.385   4.908  13.915  0.00  0.00    +0.000 A 
ATOM     18  C   UNL     1       6.283   4.145  13.604  0.00  0.00    +0.000 A 
ATOM     19  C   UNL     1       5.358   3.918  14.609  0.00  0.00    +0.000 A 
ATOM     20  C   UNL     1       5.568   4.448  15.895  0.00  0.00    +0.000 A 
BRANCH  15  22
ATOM     21  C   UNL     1       7.811   5.106  18.420  0.00  0.00    +0.000 C 
ATOM     22  N   UNL     1       7.035   5.794  17.392  0.00  0.00    +0.000 N 
ATOM     23  C   UNL     1       7.222   7.245  17.374  0.00  0.00    +0.000 C 
ENDBRANCH  15  22
ENDBRANCH  14  20
ENDBRANCH   1  14
TORSDOF 5
ENDMDL
MODEL 6
REMARK VINA RESULT:      -7.3      3.632      6.319
REMARK  Name = 
REMARK  7 active torsions:
REMARK  status: ('A' for Active; 'I' for Inactive)
REMARK    1  A    between atoms: C_1  and  N_2
REMARK    2  A    between atoms: N_2  and  C_3
REMARK    3  A    between atoms: N_2  and  C_4
REMARK    4  A    between atoms: C_9  and  C_10
REMARK    5  A    between atoms: C_10  and  N_11
REMARK    6  A    between atoms: N_11  and  S_12
REMARK    7  A    between atoms: S_12  and  C_15
REMARK                            x       y       z     vdW  Elec       q    Type
REMARK                         _______ _______ _______ _____ _____    ______ ____
ROOT
ATOM      1  N   UNL     1       4.883   3.495  17.038  0.00  0.00    +0.000 NA
ATOM      2  H   UNL     1       5.011   2.506  16.811  0.00  0.00    +0.000 HD
ENDROOT
BRANCH   1   3
ATOM      3  S   UNL     1       5.806   4.435  15.955  0.00  0.00    +0.000 S 
ATOM      4  O   UNL     1       6.735   3.528  15.319  0.00  0.00    +0.000 OA
ATOM      5  O   UNL     1       4.912   5.270  15.199  0.00  0.00    +0.000 OA
BRANCH   3   6
ATOM      6  C   UNL     1       6.736   5.452  17.058  0.00  0.00    +0.000 A 
ATOM      7  C   UNL     1       6.850   6.814  16.771  0.00  0.00    +0.000 A 
ATOM      8  C   UNL     1       7.573   7.620  17.636  0.00  0.00    +0.000 A 
ATOM      9  F   UNL     1       7.687   8.927  17.369  0.00  0.00    +0.000 F 
ATOM     10  C   UNL     1       8.176   7.096  18.773  0.00  0.00    +0.000 A 
ATOM     11  C   UNL     1       8.051   5.740  19.041  0.00  0.00    +0.000 A 
ATOM     12  F   UNL     1       8.628   5.229  20.137  0.00  0.00    +0.000 F 
ATOM     13  C   UNL     1       7.336   4.900  18.194  0.00  0.00    +0.000 A 
ENDBRANCH   3   6
ENDBRANCH   1   3
BRANCH   1  14
ATOM     14  C   UNL     1       3.493   3.952  17.102  0.00  0.00    +0.000 C 
BRANCH  14  20
ATOM     15  C   UNL     1       2.671   4.488  19.430  0.00  0.00    +0.000 A 
ATOM     16  N   UNL     1       2.241   5.392  20.346  0.00  0.00    +0.000 NA
ATOM     17  C   UNL     1       2.218   6.711  20.037  0.00  0.00    +0.000 A 
ATOM     18  C   UNL     1       2.600   7.218  18.816  0.00  0.00    +0.000 A 
ATOM     19  C   UNL     1       3.019   6.316  17.852  0.00  0.00    +0.000 A 
ATOM     20  C   UNL     1       3.058   4.939  18.142  0.00  0.00    +0.000 A 
BRANCH  15  22
ATOM     21  C   UNL     1       3.830   2.470  20.372  0.00  0.00    +0.000 C 
ATOM     22  N   UNL     1       2.658   3.140  19.816  0.00  0.00    +0.000 N 
ATOM     23  C   UNL     1       1.384   2.648  20.343  0.00  0.00    +0.000 C 
ENDBRANCH  15  22
ENDBRANCH  14  20
ENDBRANCH   1  14
TORSDOF 5
ENDMDL
MODEL 7
REMARK VINA RESULT:      -7.3      1.214      1.253
REMARK  Name = 
REMARK  7 active torsions:
REMARK  status: ('A' for Active; 'I' for Inactive)
REMARK    1  A    between atoms: C_1  and  N_2
REMARK    2  A    between atoms: N_2  and  C_3
REMARK    3  A    between atoms: N_2  and  C_4
REMARK    4  A    between atoms: C_9  and  C_10
REMARK    5  A    between atoms: C_10  and  N_11
REMARK    6  A    between atoms: N_11  and  S_12
REMARK    7  A    between atoms: S_12  and  C_15
REMARK                            x       y       z     vdW  Elec       q    Type
REMARK                         _______ _______ _______ _____ _____    ______ ____
ROOT
ATOM      1  N   UNL     1       4.173   6.487  18.720  0.00  0.00    +0.000 NA
ATOM      2  H   UNL     1       4.499   7.191  19.384  0.00  0.00    +0.000 HD
ENDROOT
BRANCH   1   3
ATOM      3  S   UNL     1       2.532   6.146  19.036  0.00  0.00    +0.000 S 
ATOM      4  O   UNL     1       2.086   7.141  19.986  0.00  0.00    +0.000 OA
ATOM      5  O   UNL     1       1.861   5.928  17.783  0.00  0.00    +0.000 OA
BRANCH   3   6
ATOM      6  C   UNL     1       2.640   4.608  19.896  0.00  0.00    +0.000 A 
ATOM      7  C   UNL     1       3.739   3.783  19.649  0.00  0.00    +0.000 A 
ATOM      8  C   UNL     1       3.834   2.577  20.325  0.00  0.00    +0.000 A 
ATOM      9  F   UNL     1       4.885   1.781  20.096  0.00  0.00    +0.000 F 
ATOM     10  C   UNL     1       2.860   2.185  21.235  0.00  0.00    +0.000 A 
ATOM     11  C   UNL     1       1.774   3.018  21.466  0.00  0.00    +0.000 A 
ATOM     12  F   UNL     1       0.833   2.646  22.345  0.00  0.00    +0.000 F 
ATOM     13  C   UNL     1       1.645   4.234  20.804  0.00  0.00    +0.000 A 
ENDBRANCH   3   6
ENDBRANCH   1   3
BRANCH   1  14
ATOM     14  C   UNL     1       4.398   6.801  17.306  0.00  0.00    +0.000 C 
BRANCH  14  20
ATOM     15  C   UNL     1       6.733   5.958  16.837  0.00  0.00    +0.000 A 
ATOM     16  N   UNL     1       7.596   5.258  16.060  0.00  0.00    +0.000 NA
ATOM     17  C   UNL     1       7.137   4.576  14.983  0.00  0.00    +0.000 A 
ATOM     18  C   UNL     1       5.816   4.552  14.599  0.00  0.00    +0.000 A 
ATOM     19  C   UNL     1       4.915   5.279  15.359  0.00  0.00    +0.000 A 
ATOM     20  C   UNL     1       5.359   5.996  16.486  0.00  0.00    +0.000 A 
BRANCH  15  22
ATOM     21  C   UNL     1       7.928   5.965  19.046  0.00  0.00    +0.000 C 
ATOM     22  N   UNL     1       7.280   6.648  17.930  0.00  0.00    +0.000 N 
ATOM     23  C   UNL     1       7.848   7.962  17.624  0.00  0.00    +0.000 C 
ENDBRANCH  15  22
ENDBRANCH  14  20
ENDBRANCH   1  14
TORSDOF 5
ENDMDL
MODEL 8
REMARK VINA RESULT:      -7.3      1.305      1.424
REMARK  Name = 
REMARK  7 active torsions:
REMARK  status: ('A' for Active; 'I' for Inactive)
REMARK    1  A    between atoms: C_1  and  N_2
REMARK    2  A    between atoms: N_2  and  C_3
REMARK    3  A    between atoms: N_2  and  C_4
REMARK    4  A    between atoms: C_9  and  C_10
REMARK    5  A    between atoms: C_10  and  N_11
REMARK    6  A    between atoms: N_11  and  S_12
REMARK    7  A    between atoms: S_12  and  C_15
REMARK                            x       y       z     vdW  Elec       q    Type
REMARK                         _______ _______ _______ _____ _____    ______ ____
ROOT
ATOM      1  N   UNL     1       3.503   5.532  17.262  0.00  0.00    +0.000 NA
ATOM      2  H   UNL     1       2.596   5.257  16.880  0.00  0.00    +0.000 HD
ENDROOT
BRANCH   1   3
ATOM      3  S   UNL     1       3.299   5.998  18.890  0.00  0.00    +0.000 S 
ATOM      4  O   UNL     1       4.613   5.964  19.491  0.00  0.00    +0.000 OA
ATOM      5  O   UNL     1       2.470   7.173  18.927  0.00  0.00    +0.000 OA
BRANCH   3   6
ATOM      6  C   UNL     1       2.383   4.639  19.546  0.00  0.00    +0.000 A 
ATOM      7  C   UNL     1       1.594   3.885  18.675  0.00  0.00    +0.000 A 
ATOM      8  C   UNL     1       0.878   2.812  19.182  0.00  0.00    +0.000 A 
ATOM      9  F   UNL     1       0.119   2.084  18.354  0.00  0.00    +0.000 F 
ATOM     10  C   UNL     1       0.937   2.481  20.530  0.00  0.00    +0.000 A 
ATOM     11  C   UNL     1       1.727   3.243  21.380  0.00  0.00    +0.000 A 
ATOM     12  F   UNL     1       1.790   2.926  22.681  0.00  0.00    +0.000 F 
ATOM     13  C   UNL     1       2.457   4.328  20.907  0.00  0.00    +0.000 A 
ENDBRANCH   3   6
ENDBRANCH   1   3
BRANCH   1  14
ATOM     14  C   UNL     1       4.576   4.546  17.112  0.00  0.00    +0.000 C 
BRANCH  14  20
ATOM     15  C   UNL     1       6.770   5.386  16.182  0.00  0.00    +0.000 A 
ATOM     16  N   UNL     1       7.636   5.511  15.146  0.00  0.00    +0.000 NA
ATOM     17  C   UNL     1       7.365   4.915  13.960  0.00  0.00    +0.000 A 
ATOM     18  C   UNL     1       6.230   4.177  13.717  0.00  0.00    +0.000 A 
ATOM     19  C   UNL     1       5.314   4.053  14.748  0.00  0.00    +0.000 A 
ATOM     20  C   UNL     1       5.567   4.657  15.994  0.00  0.00    +0.000 A 
BRANCH  15  22
ATOM     21  C   UNL     1       7.782   5.358  18.479  0.00  0.00    +0.000 C 
ATOM     22  N   UNL     1       7.110   6.039  17.376  0.00  0.00    +0.000 N 
ATOM     23  C   UNL     1       7.466   7.452  17.241  0.00  0.00    +0.000 C 
ENDBRANCH  15  22
ENDBRANCH  14  20
ENDBRANCH   1  14
TORSDOF 5
ENDMDL
MODEL 9
REMARK VINA RESULT:      -7.3      3.059      3.685
REMARK  Name = 
REMARK  7 active torsions:
REMARK  status: ('A' for Active; 'I' for Inactive)
REMARK    1  A    between atoms: C_1  and  N_2
REMARK    2  A    between atoms: N_2  and  C_3
REMARK    3  A    between atoms: N_2  and  C_4
REMARK    4  A    between atoms: C_9  and  C_10
REMARK    5  A    between atoms: C_10  and  N_11
REMARK    6  A    between atoms: N_11  and  S_12
REMARK    7  A    between atoms: S_12  and  C_15
REMARK                            x       y       z     vdW  Elec       q    Type
REMARK                         _______ _______ _______ _____ _____    ______ ____
ROOT
ATOM      1  N   UNL     1       4.516   5.481  19.112  0.00  0.00    +0.000 NA
ATOM      2  H   UNL     1       4.629   6.392  18.663  0.00  0.00    +0.000 HD
ENDROOT
BRANCH   1   3
ATOM      3  S   UNL     1       2.854   5.181  19.346  0.00  0.00    +0.000 S 
ATOM      4  O   UNL     1       2.360   4.634  18.103  0.00  0.00    +0.000 OA
ATOM      5  O   UNL     1       2.685   4.503  20.603  0.00  0.00    +0.000 OA
BRANCH   3   6
ATOM      6  C   UNL     1       2.207   6.818  19.494  0.00  0.00    +0.000 A 
ATOM      7  C   UNL     1       2.264   7.659  18.381  0.00  0.00    +0.000 A 
ATOM      8  C   UNL     1       1.752   8.943  18.488  0.00  0.00    +0.000 A 
ATOM      9  F   UNL     1       1.802   9.756  17.426  0.00  0.00    +0.000 F 
ATOM     10  C   UNL     1       1.188   9.395  19.675  0.00  0.00    +0.000 A 
ATOM     11  C   UNL     1       1.142   8.544  20.770  0.00  0.00    +0.000 A 
ATOM     12  F   UNL     1       0.596   8.974  21.916  0.00  0.00    +0.000 F 
ATOM     13  C   UNL     1       1.647   7.250  20.700  0.00  0.00    +0.000 A 
ENDBRANCH   3   6
ENDBRANCH   1   3
BRANCH   1  14
ATOM     14  C   UNL     1       5.179   4.360  18.441  0.00  0.00    +0.000 C 
BRANCH  14  20
ATOM     15  C   UNL     1       6.865   5.519  16.959  0.00  0.00    +0.000 A 
ATOM     16  N   UNL     1       7.426   5.705  15.738  0.00  0.00    +0.000 NA
ATOM     17  C   UNL     1       7.033   4.942  14.689  0.00  0.00    +0.000 A 
ATOM     18  C   UNL     1       6.064   3.969  14.771  0.00  0.00    +0.000 A 
ATOM     19  C   UNL     1       5.455   3.774  16.000  0.00  0.00    +0.000 A 
ATOM     20  C   UNL     1       5.843   4.547  17.111  0.00  0.00    +0.000 A 
BRANCH  15  22
ATOM     21  C   UNL     1       8.081   5.848  19.131  0.00  0.00    +0.000 C 
ATOM     22  N   UNL     1       7.314   6.351  17.995  0.00  0.00    +0.000 N 
ATOM     23  C   UNL     1       7.659   7.718  17.601  0.00  0.00    +0.000 C 
ENDBRANCH  15  22
ENDBRANCH  14  20
ENDBRANCH   1  14
TORSDOF 5
ENDMDL
