MODEL 1
REMARK VINA RESULT:      -7.9      0.000      0.000
REMARK  Name = 
REMARK  3 active torsions:
REMARK  status: ('A' for Active; 'I' for Inactive)
REMARK    1  A    between atoms: C_1  and  C_2
REMARK    2  A    between atoms: C_8  and  C_9
REMARK    3  A    between atoms: C_9  and  O_11
REMARK                            x       y       z     vdW  Elec       q    Type
REMARK                         _______ _______ _______ _____ _____    ______ ____
ROOT
ATOM      1  C   UNL     1       7.866   4.772  18.309  0.00  0.00    +0.000 C 
ATOM      2  C   UNL     1       6.869   5.596  17.494  0.00  0.00    +0.000 C 
ATOM      3  C   UNL     1       7.187   7.090  17.565  0.00  0.00    +0.000 C 
ATOM      4  C   UNL     1       5.862   7.750  17.225  0.00  0.00    +0.000 C 
ATOM      5  C   UNL     1       4.863   6.747  17.737  0.00  0.00    +0.000 C 
ATOM      6  O   UNL     1       3.670   6.944  17.898  0.00  0.00    +0.000 OA
ATOM      7  N   UNL     1       5.501   5.537  18.026  0.00  0.00    +0.000 N 
ATOM      8  C   UNL     1       4.758   4.246  17.873  0.00  0.00    +0.000 C 
ATOM      9  C   UNL     1       4.579   3.852  16.387  0.00  0.00    +0.000 C 
ATOM     10  C   UNL     1       5.761   4.286  15.568  0.00  0.00    +0.000 A 
ATOM     11  C   UNL     1       6.770   5.081  16.082  0.00  0.00    +0.000 A 
ATOM     12  N   UNL     1       7.647   5.355  15.065  0.00  0.00    +0.000 N 
ATOM     13  C   UNL     1       7.203   4.779  13.894  0.00  0.00    +0.000 A 
ATOM     14  C   UNL     1       7.741   4.844  12.601  0.00  0.00    +0.000 A 
ATOM     15  C   UNL     1       7.079   4.142  11.591  0.00  0.00    +0.000 A 
ATOM     16  C   UNL     1       5.930   3.403  11.862  0.00  0.00    +0.000 A 
ATOM     17  C   UNL     1       5.397   3.361  13.156  0.00  0.00    +0.000 A 
ATOM     18  C   UNL     1       6.040   4.068  14.191  0.00  0.00    +0.000 A 
ATOM     19  H   UNL     1       8.476   5.931  15.130  0.00  0.00    +0.000 HD
ENDROOT
BRANCH   8  20
ATOM     20  C   UNL     1       3.445   4.016  18.639  0.00  0.00    +0.000 C 
ATOM     21  O   UNL     1       3.415   3.727  19.829  0.00  0.00    +0.000 OA
BRANCH  20  22
ATOM     22  O   UNL     1       2.304   4.231  17.950  0.00  0.00    +0.000 OA
ATOM     23  H   UNL     1       1.512   4.072  18.508  0.00  0.00    +0.000 HD
ENDBRANCH  20  22
ENDBRANCH   8  20
TORSDOF 2
ENDMDL
MODEL 2
REMARK VINA RESULT:      -7.9      2.567      5.412
REMARK  Name = 
REMARK  3 active torsions:
REMARK  status: ('A' for Active; 'I' for Inactive)
REMARK    1  A    between atoms: C_1  and  C_2
REMARK    2  A    between atoms: C_8  and  C_9
REMARK    3  A    between atoms: C_9  and  O_11
REMARK                            x       y       z     vdW  Elec       q    Type
REMARK                         _______ _______ _______ _____ _____    ______ ____
ROOT
ATOM      1  C   UNL     1       5.183   7.667  17.227  0.00  0.00    +0.000 C 
ATOM      2  C   UNL     1       5.735   6.324  17.704  0.00  0.00    +0.000 C 
ATOM      3  C   UNL     1       6.754   6.506  18.829  0.00  0.00    +0.000 C 
ATOM      4  C   UNL     1       7.575   5.228  18.774  0.00  0.00    +0.000 C 
ATOM      5  C   UNL     1       7.504   4.865  17.315  0.00  0.00    +0.000 C 
ATOM      6  O   UNL     1       8.206   4.043  16.748  0.00  0.00    +0.000 OA
ATOM      7  N   UNL     1       6.519   5.624  16.677  0.00  0.00    +0.000 N 
ATOM      8  C   UNL     1       5.771   5.050  15.513  0.00  0.00    +0.000 C 
ATOM      9  C   UNL     1       4.735   3.989  15.955  0.00  0.00    +0.000 C 
ATOM     10  C   UNL     1       4.145   4.336  17.292  0.00  0.00    +0.000 A 
ATOM     11  C   UNL     1       4.619   5.379  18.066  0.00  0.00    +0.000 A 
ATOM     12  N   UNL     1       3.922   5.377  19.246  0.00  0.00    +0.000 N 
ATOM     13  C   UNL     1       3.027   4.329  19.261  0.00  0.00    +0.000 A 
ATOM     14  C   UNL     1       2.156   3.906  20.275  0.00  0.00    +0.000 A 
ATOM     15  C   UNL     1       1.343   2.802  20.007  0.00  0.00    +0.000 A 
ATOM     16  C   UNL     1       1.395   2.151  18.777  0.00  0.00    +0.000 A 
ATOM     17  C   UNL     1       2.281   2.577  17.780  0.00  0.00    +0.000 A 
ATOM     18  C   UNL     1       3.119   3.681  18.028  0.00  0.00    +0.000 A 
ATOM     19  H   UNL     1       4.059   6.011  20.022  0.00  0.00    +0.000 HD
ENDROOT
BRANCH   8  20
ATOM     20  C   UNL     1       6.534   4.555  14.274  0.00  0.00    +0.000 C 
ATOM     21  O   UNL     1       7.378   5.234  13.701  0.00  0.00    +0.000 OA
BRANCH  20  22
ATOM     22  O   UNL     1       6.289   3.285  13.887  0.00  0.00    +0.000 OA
ATOM     23  H   UNL     1       6.431   3.169  12.922  0.00  0.00    +0.000 HD
ENDBRANCH  20  22
ENDBRANCH   8  20
TORSDOF 2
ENDMDL
MODEL 3
REMARK VINA RESULT:      -7.2      2.644      5.420
REMARK  Name = 
REMARK  3 active torsions:
REMARK  status: ('A' for Active; 'I' for Inactive)
REMARK    1  A    between atoms: C_1  and  C_2
REMARK    2  A    between atoms: C_8  and  C_9
REMARK    3  A    between atoms: C_9  and  O_11
REMARK                            x       y       z     vdW  Elec       q    Type
REMARK                         _______ _______ _______ _____ _____    ______ ____
ROOT
ATOM      1  C   UNL     1       6.350   3.497  15.810  0.00  0.00    +0.000 C 
ATOM      2  C   UNL     1       5.560   4.687  16.356  0.00  0.00    +0.000 C 
ATOM      3  C   UNL     1       5.046   5.583  15.229  0.00  0.00    +0.000 C 
ATOM      4  C   UNL     1       4.822   6.920  15.914  0.00  0.00    +0.000 C 
ATOM      5  C   UNL     1       5.859   6.900  17.004  0.00  0.00    +0.000 C 
ATOM      6  O   UNL     1       6.218   7.860  17.667  0.00  0.00    +0.000 OA
ATOM      7  N   UNL     1       6.383   5.613  17.146  0.00  0.00    +0.000 N 
ATOM      8  C   UNL     1       6.853   5.142  18.488  0.00  0.00    +0.000 C 
ATOM      9  C   UNL     1       5.673   4.818  19.435  0.00  0.00    +0.000 C 
ATOM     10  C   UNL     1       4.505   4.265  18.671  0.00  0.00    +0.000 A 
ATOM     11  C   UNL     1       4.469   4.229  17.289  0.00  0.00    +0.000 A 
ATOM     12  N   UNL     1       3.245   3.741  16.913  0.00  0.00    +0.000 N 
ATOM     13  C   UNL     1       2.475   3.493  18.028  0.00  0.00    +0.000 A 
ATOM     14  C   UNL     1       1.150   3.048  18.124  0.00  0.00    +0.000 A 
ATOM     15  C   UNL     1       0.619   2.870  19.404  0.00  0.00    +0.000 A 
ATOM     16  C   UNL     1       1.384   3.121  20.541  0.00  0.00    +0.000 A 
ATOM     17  C   UNL     1       2.702   3.579  20.429  0.00  0.00    +0.000 A 
ATOM     18  C   UNL     1       3.257   3.776  19.150  0.00  0.00    +0.000 A 
ATOM     19  H   UNL     1       2.917   3.618  15.964  0.00  0.00    +0.000 HD
ENDROOT
BRANCH   8  20
ATOM     20  C   UNL     1       7.935   5.928  19.247  0.00  0.00    +0.000 C 
ATOM     21  O   UNL     1       8.476   6.925  18.783  0.00  0.00    +0.000 OA
BRANCH  20  22
ATOM     22  O   UNL     1       8.208   5.513  20.502  0.00  0.00    +0.000 OA
ATOM     23  H   UNL     1       8.555   6.247  21.055  0.00  0.00    +0.000 HD
ENDBRANCH  20  22
ENDBRANCH   8  20
TORSDOF 2
ENDMDL
MODEL 4
REMARK VINA RESULT:      -7.1      3.483      6.473
REMARK  Name = 
REMARK  3 active torsions:
REMARK  status: ('A' for Active; 'I' for Inactive)
REMARK    1  A    between atoms: C_1  and  C_2
REMARK    2  A    between atoms: C_8  and  C_9
REMARK    3  A    between atoms: C_9  and  O_11
REMARK                            x       y       z     vdW  Elec       q    Type
REMARK                         _______ _______ _______ _____ _____    ______ ____
ROOT
ATOM      1  C   UNL     1       2.300   4.198  16.926  0.00  0.00    +0.000 C 
ATOM      2  C   UNL     1       3.310   4.977  17.768  0.00  0.00    +0.000 C 
ATOM      3  C   UNL     1       4.517   5.410  16.937  0.00  0.00    +0.000 C 
ATOM      4  C   UNL     1       5.604   5.627  17.976  0.00  0.00    +0.000 C 
ATOM      5  C   UNL     1       5.222   4.644  19.049  0.00  0.00    +0.000 C 
ATOM      6  O   UNL     1       5.930   4.289  19.978  0.00  0.00    +0.000 OA
ATOM      7  N   UNL     1       3.928   4.165  18.825  0.00  0.00    +0.000 N 
ATOM      8  C   UNL     1       3.066   3.773  19.986  0.00  0.00    +0.000 C 
ATOM      9  C   UNL     1       2.530   5.006  20.752  0.00  0.00    +0.000 C 
ATOM     10  C   UNL     1       2.274   6.153  19.817  0.00  0.00    +0.000 A 
ATOM     11  C   UNL     1       2.645   6.124  18.485  0.00  0.00    +0.000 A 
ATOM     12  N   UNL     1       2.341   7.343  17.937  0.00  0.00    +0.000 N 
ATOM     13  C   UNL     1       1.809   8.171  18.902  0.00  0.00    +0.000 A 
ATOM     14  C   UNL     1       1.413   9.513  18.814  0.00  0.00    +0.000 A 
ATOM     15  C   UNL     1       0.891  10.108  19.965  0.00  0.00    +0.000 A 
ATOM     16  C   UNL     1       0.765   9.391  21.152  0.00  0.00    +0.000 A 
ATOM     17  C   UNL     1       1.180   8.055  21.228  0.00  0.00    +0.000 A 
ATOM     18  C   UNL     1       1.720   7.435  20.085  0.00  0.00    +0.000 A 
ATOM     19  H   UNL     1       2.515   7.629  16.983  0.00  0.00    +0.000 HD
ENDROOT
BRANCH   8  20
ATOM     20  C   UNL     1       3.550   2.706  20.981  0.00  0.00    +0.000 C 
ATOM     21  O   UNL     1       2.948   2.445  22.016  0.00  0.00    +0.000 OA
BRANCH  20  22
ATOM     22  O   UNL     1       4.641   1.998  20.617  0.00  0.00    +0.000 OA
ATOM     23  H   UNL     1       4.443   1.391  19.871  0.00  0.00    +0.000 HD
ENDBRANCH  20  22
ENDBRANCH   8  20
TORSDOF 2
ENDMDL
MODEL 5
REMARK VINA RESULT:      -7.1      2.919      5.694
REMARK  Name = 
REMARK  3 active torsions:
REMARK  status: ('A' for Active; 'I' for Inactive)
REMARK    1  A    between atoms: C_1  and  C_2
REMARK    2  A    between atoms: C_8  and  C_9
REMARK    3  A    between atoms: C_9  and  O_11
REMARK                            x       y       z     vdW  Elec       q    Type
REMARK                         _______ _______ _______ _____ _____    ______ ____
ROOT
ATOM      1  C   UNL     1       4.076   4.558  16.088  0.00  0.00    +0.000 C 
ATOM      2  C   UNL     1       4.718   5.349  17.228  0.00  0.00    +0.000 C 
ATOM      3  C   UNL     1       6.055   5.956  16.804  0.00  0.00    +0.000 C 
ATOM      4  C   UNL     1       6.776   6.179  18.122  0.00  0.00    +0.000 C 
ATOM      5  C   UNL     1       6.218   5.078  18.983  0.00  0.00    +0.000 C 
ATOM      6  O   UNL     1       6.671   4.710  20.055  0.00  0.00    +0.000 OA
ATOM      7  N   UNL     1       5.099   4.508  18.370  0.00  0.00    +0.000 N 
ATOM      8  C   UNL     1       3.994   3.945  19.210  0.00  0.00    +0.000 C 
ATOM      9  C   UNL     1       3.133   5.055  19.857  0.00  0.00    +0.000 C 
ATOM     10  C   UNL     1       3.027   6.250  18.954  0.00  0.00    +0.000 A 
ATOM     11  C   UNL     1       3.758   6.367  17.786  0.00  0.00    +0.000 A 
ATOM     12  N   UNL     1       3.489   7.597  17.243  0.00  0.00    +0.000 N 
ATOM     13  C   UNL     1       2.621   8.291  18.059  0.00  0.00    +0.000 A 
ATOM     14  C   UNL     1       2.122   9.594  17.936  0.00  0.00    +0.000 A 
ATOM     15  C   UNL     1       1.236  10.041  18.920  0.00  0.00    +0.000 A 
ATOM     16  C   UNL     1       0.861   9.218  19.979  0.00  0.00    +0.000 A 
ATOM     17  C   UNL     1       1.381   7.923  20.095  0.00  0.00    +0.000 A 
ATOM     18  C   UNL     1       2.284   7.452  19.122  0.00  0.00    +0.000 A 
ATOM     19  H   UNL     1       3.892   7.978  16.397  0.00  0.00    +0.000 HD
ENDROOT
BRANCH   8  20
ATOM     20  C   UNL     1       4.292   2.844  20.240  0.00  0.00    +0.000 C 
ATOM     21  O   UNL     1       3.637   2.702  21.266  0.00  0.00    +0.000 OA
BRANCH  20  22
ATOM     22  O   UNL     1       5.273   1.972  19.919  0.00  0.00    +0.000 OA
ATOM     23  H   UNL     1       5.950   1.917  20.629  0.00  0.00    +0.000 HD
ENDBRANCH  20  22
ENDBRANCH   8  20
TORSDOF 2
ENDMDL
MODEL 6
REMARK VINA RESULT:      -6.8      2.864      6.011
REMARK  Name = 
REMARK  3 active torsions:
REMARK  status: ('A' for Active; 'I' for Inactive)
REMARK    1  A    between atoms: C_1  and  C_2
REMARK    2  A    between atoms: C_8  and  C_9
REMARK    3  A    between atoms: C_9  and  O_11
REMARK                            x       y       z     vdW  Elec       q    Type
REMARK                         _______ _______ _______ _____ _____    ______ ____
ROOT
ATOM      1  C   UNL     1       6.415   5.143  19.659  0.00  0.00    +0.000 C 
ATOM      2  C   UNL     1       5.140   4.776  18.899  0.00  0.00    +0.000 C 
ATOM      3  C   UNL     1       4.526   3.480  19.427  0.00  0.00    +0.000 C 
ATOM      4  C   UNL     1       3.680   2.989  18.265  0.00  0.00    +0.000 C 
ATOM      5  C   UNL     1       4.432   3.519  17.075  0.00  0.00    +0.000 C 
ATOM      6  O   UNL     1       4.264   3.181  15.914  0.00  0.00    +0.000 OA
ATOM      7  N   UNL     1       5.383   4.458  17.485  0.00  0.00    +0.000 N 
ATOM      8  C   UNL     1       5.753   5.591  16.578  0.00  0.00    +0.000 C 
ATOM      9  C   UNL     1       4.646   6.669  16.515  0.00  0.00    +0.000 C 
ATOM     10  C   UNL     1       3.942   6.797  17.835  0.00  0.00    +0.000 A 
ATOM     11  C   UNL     1       4.169   5.927  18.886  0.00  0.00    +0.000 A 
ATOM     12  N   UNL     1       3.320   6.270  19.906  0.00  0.00    +0.000 N 
ATOM     13  C   UNL     1       2.523   7.326  19.519  0.00  0.00    +0.000 A 
ATOM     14  C   UNL     1       1.482   7.965  20.206  0.00  0.00    +0.000 A 
ATOM     15  C   UNL     1       0.846   9.032  19.567  0.00  0.00    +0.000 A 
ATOM     16  C   UNL     1       1.237   9.446  18.296  0.00  0.00    +0.000 A 
ATOM     17  C   UNL     1       2.270   8.788  17.616  0.00  0.00    +0.000 A 
ATOM     18  C   UNL     1       2.920   7.703  18.235  0.00  0.00    +0.000 A 
ATOM     19  H   UNL     1       3.239   5.802  20.799  0.00  0.00    +0.000 HD
ENDROOT
BRANCH   8  20
ATOM     20  C   UNL     1       6.289   5.305  15.166  0.00  0.00    +0.000 C 
ATOM     21  O   UNL     1       7.486   5.294  14.902  0.00  0.00    +0.000 OA
BRANCH  20  22
ATOM     22  O   UNL     1       5.371   4.980  14.230  0.00  0.00    +0.000 OA
ATOM     23  H   UNL     1       5.725   5.100  13.322  0.00  0.00    +0.000 HD
ENDBRANCH  20  22
ENDBRANCH   8  20
TORSDOF 2
ENDMDL
MODEL 7
REMARK VINA RESULT:      -6.6      3.012      6.392
REMARK  Name = 
REMARK  3 active torsions:
REMARK  status: ('A' for Active; 'I' for Inactive)
REMARK    1  A    between atoms: C_1  and  C_2
REMARK    2  A    between atoms: C_8  and  C_9
REMARK    3  A    between atoms: C_9  and  O_11
REMARK                            x       y       z     vdW  Elec       q    Type
REMARK                         _______ _______ _______ _____ _____    ______ ____
ROOT
ATOM      1  C   UNL     1       4.773   4.290  20.285  0.00  0.00    +0.000 C 
ATOM      2  C   UNL     1       3.545   4.361  19.377  0.00  0.00    +0.000 C 
ATOM      3  C   UNL     1       2.470   3.364  19.809  0.00  0.00    +0.000 C 
ATOM      4  C   UNL     1       1.646   3.163  18.549  0.00  0.00    +0.000 C 
ATOM      5  C   UNL     1       2.664   3.378  17.462  0.00  0.00    +0.000 C 
ATOM      6  O   UNL     1       2.524   3.090  16.285  0.00  0.00    +0.000 OA
ATOM      7  N   UNL     1       3.824   3.946  17.995  0.00  0.00    +0.000 N 
ATOM      8  C   UNL     1       4.660   4.863  17.156  0.00  0.00    +0.000 C 
ATOM      9  C   UNL     1       4.001   6.253  16.984  0.00  0.00    +0.000 C 
ATOM     10  C   UNL     1       3.237   6.643  18.216  0.00  0.00    +0.000 A 
ATOM     11  C   UNL     1       3.032   5.773  19.272  0.00  0.00    +0.000 A 
ATOM     12  N   UNL     1       2.240   6.409  20.193  0.00  0.00    +0.000 N 
ATOM     13  C   UNL     1       1.901   7.664  19.735  0.00  0.00    +0.000 A 
ATOM     14  C   UNL     1       1.069   8.634  20.308  0.00  0.00    +0.000 A 
ATOM     15  C   UNL     1       0.912   9.839  19.617  0.00  0.00    +0.000 A 
ATOM     16  C   UNL     1       1.563  10.065  18.407  0.00  0.00    +0.000 A 
ATOM     17  C   UNL     1       2.380   9.079  17.840  0.00  0.00    +0.000 A 
ATOM     18  C   UNL     1       2.547   7.852  18.511  0.00  0.00    +0.000 A 
ATOM     19  H   UNL     1       1.904   6.018  21.063  0.00  0.00    +0.000 HD
ENDROOT
BRANCH   8  20
ATOM     20  C   UNL     1       5.224   4.379  15.811  0.00  0.00    +0.000 C 
ATOM     21  O   UNL     1       5.264   5.092  14.815  0.00  0.00    +0.000 OA
BRANCH  20  22
ATOM     22  O   UNL     1       5.759   3.139  15.797  0.00  0.00    +0.000 OA
ATOM     23  H   UNL     1       6.090   2.901  14.904  0.00  0.00    +0.000 HD
ENDBRANCH  20  22
ENDBRANCH   8  20
TORSDOF 2
ENDMDL
MODEL 8
REMARK VINA RESULT:      -6.5      8.183     11.534
REMARK  Name = 
REMARK  3 active torsions:
REMARK  status: ('A' for Active; 'I' for Inactive)
REMARK    1  A    between atoms: C_1  and  C_2
REMARK    2  A    between atoms: C_8  and  C_9
REMARK    3  A    between atoms: C_9  and  O_11
REMARK                            x       y       z     vdW  Elec       q    Type
REMARK                         _______ _______ _______ _____ _____    ______ ____
ROOT
ATOM      1  C   UNL     1      12.153  11.652  19.630  0.00  0.00    +0.000 C 
ATOM      2  C   UNL     1      10.645  11.829  19.451  0.00  0.00    +0.000 C 
ATOM      3  C   UNL     1       9.983  10.538  18.971  0.00  0.00    +0.000 C 
ATOM      4  C   UNL     1       8.696  11.019  18.323  0.00  0.00    +0.000 C 
ATOM      5  C   UNL     1       9.081  12.385  17.822  0.00  0.00    +0.000 C 
ATOM      6  O   UNL     1       8.445  13.061  17.030  0.00  0.00    +0.000 OA
ATOM      7  N   UNL     1      10.299  12.778  18.383  0.00  0.00    +0.000 N 
ATOM      8  C   UNL     1      10.570  14.229  18.638  0.00  0.00    +0.000 C 
ATOM      9  C   UNL     1       9.782  14.762  19.858  0.00  0.00    +0.000 C 
ATOM     10  C   UNL     1       9.633  13.700  20.909  0.00  0.00    +0.000 A 
ATOM     11  C   UNL     1      10.014  12.387  20.699  0.00  0.00    +0.000 A 
ATOM     12  N   UNL     1       9.677  11.668  21.817  0.00  0.00    +0.000 N 
ATOM     13  C   UNL     1       9.053  12.488  22.732  0.00  0.00    +0.000 A 
ATOM     14  C   UNL     1       8.489  12.179  23.977  0.00  0.00    +0.000 A 
ATOM     15  C   UNL     1       7.925  13.227  24.708  0.00  0.00    +0.000 A 
ATOM     16  C   UNL     1       7.927  14.530  24.217  0.00  0.00    +0.000 A 
ATOM     17  C   UNL     1       8.481  14.821  22.964  0.00  0.00    +0.000 A 
ATOM     18  C   UNL     1       9.047  13.780  22.203  0.00  0.00    +0.000 A 
ATOM     19  H   UNL     1       9.813  10.675  21.952  0.00  0.00    +0.000 HD
ENDROOT
BRANCH   8  20
ATOM     20  C   UNL     1      10.499  15.241  17.483  0.00  0.00    +0.000 C 
ATOM     21  O   UNL     1      10.066  16.379  17.626  0.00  0.00    +0.000 OA
BRANCH  20  22
ATOM     22  O   UNL     1      11.019  14.841  16.302  0.00  0.00    +0.000 OA
ATOM     23  H   UNL     1      10.499  14.105  15.912  0.00  0.00    +0.000 HD
ENDBRANCH  20  22
ENDBRANCH   8  20
TORSDOF 2
ENDMDL
MODEL 9
REMARK VINA RESULT:      -6.4      8.094     11.136
REMARK  Name = 
REMARK  3 active torsions:
REMARK  status: ('A' for Active; 'I' for Inactive)
REMARK    1  A    between atoms: C_1  and  C_2
REMARK    2  A    between atoms: C_8  and  C_9
REMARK    3  A    between atoms: C_9  and  O_11
REMARK                            x       y       z     vdW  Elec       q    Type
REMARK                         _______ _______ _______ _____ _____    ______ ____
ROOT
ATOM      1  C   UNL     1      11.743  12.898  19.960  0.00  0.00    +0.000 C 
ATOM      2  C   UNL     1      10.334  12.390  19.651  0.00  0.00    +0.000 C 
ATOM      3  C   UNL     1      10.362  10.974  19.077  0.00  0.00    +0.000 C 
ATOM      4  C   UNL     1       9.044  10.868  18.331  0.00  0.00    +0.000 C 
ATOM      5  C   UNL     1       8.801  12.291  17.905  0.00  0.00    +0.000 C 
ATOM      6  O   UNL     1       7.982  12.660  17.078  0.00  0.00    +0.000 OA
ATOM      7  N   UNL     1       9.668  13.151  18.584  0.00  0.00    +0.000 N 
ATOM      8  C   UNL     1       9.235  14.549  18.902  0.00  0.00    +0.000 C 
ATOM      9  C   UNL     1       8.211  14.590  20.061  0.00  0.00    +0.000 C 
ATOM     10  C   UNL     1       8.489  13.508  21.065  0.00  0.00    +0.000 A 
ATOM     11  C   UNL     1       9.436  12.523  20.853  0.00  0.00    +0.000 A 
ATOM     12  N   UNL     1       9.387  11.657  21.915  0.00  0.00    +0.000 N 
ATOM     13  C   UNL     1       8.399  12.048  22.793  0.00  0.00    +0.000 A 
ATOM     14  C   UNL     1       7.955  11.438  23.974  0.00  0.00    +0.000 A 
ATOM     15  C   UNL     1       6.929  12.070  24.681  0.00  0.00    +0.000 A 
ATOM     16  C   UNL     1       6.374  13.265  24.229  0.00  0.00    +0.000 A 
ATOM     17  C   UNL     1       6.819  13.855  23.039  0.00  0.00    +0.000 A 
ATOM     18  C   UNL     1       7.845  13.231  22.303  0.00  0.00    +0.000 A 
ATOM     19  H   UNL     1       9.948  10.824  22.034  0.00  0.00    +0.000 HD
ENDROOT
BRANCH   8  20
ATOM     20  C   UNL     1       8.791  15.495  17.775  0.00  0.00    +0.000 C 
ATOM     21  O   UNL     1       9.552  16.295  17.244  0.00  0.00    +0.000 OA
BRANCH  20  22
ATOM     22  O   UNL     1       7.524  15.345  17.331  0.00  0.00    +0.000 OA
ATOM     23  H   UNL     1       6.922  16.006  17.735  0.00  0.00    +0.000 HD
ENDBRANCH  20  22
ENDBRANCH   8  20
TORSDOF 2
ENDMDL
