MODEL 1
REMARK VINA RESULT:      -6.3      0.000      0.000
REMARK  Name = 
REMARK  7 active torsions:
REMARK  status: ('A' for Active; 'I' for Inactive)
REMARK    1  A    between atoms: C_1  and  C_2
REMARK    2  A    between atoms: C_2  and  C_3
REMARK    3  A    between atoms: C_2  and  C_4
REMARK    4  A    between atoms: C_2  and  N_12
REMARK    5  A    between atoms: C_4  and  N_5
REMARK    6  A    between atoms: N_5  and  C_6
REMARK    7  A    between atoms: C_6  and  C_7
REMARK                            x       y       z     vdW  Elec       q    Type
REMARK                         _______ _______ _______ _____ _____    ______ ____
ROOT
ATOM      1  C   UNL     1       3.153   5.884  18.592  0.00  0.00    +0.000 C 
ATOM      2  C   UNL     1       4.317   5.276  17.779  0.00  0.00    +0.000 C 
ATOM      3  C   UNL     1       5.391   4.944  18.855  0.00  0.00    +0.000 C 
ENDROOT
BRANCH   2   4
ATOM      4  N   UNL     1       4.892   6.155  16.719  0.00  0.00    +0.000 NA
ATOM      5  C   UNL     1       5.377   5.513  15.479  0.00  0.00    +0.000 C 
ATOM      6  C   UNL     1       6.846   5.053  15.509  0.00  0.00    +0.000 C 
ATOM      7  O   UNL     1       7.729   6.114  15.888  0.00  0.00    +0.000 OA
ATOM      8  C   UNL     1       7.353   6.663  17.153  0.00  0.00    +0.000 C 
ATOM      9  C   UNL     1       5.899   7.159  17.134  0.00  0.00    +0.000 C 
ENDBRANCH   2   4
BRANCH   2  10
ATOM     10  C   UNL     1       3.773   3.922  17.144  0.00  0.00    +0.000 C 
BRANCH  10  11
ATOM     11  N   UNL     1       4.344   2.648  17.621  0.00  0.00    +0.000 NA
ATOM     12  H   UNL     1       4.986   2.856  18.384  0.00  0.00    +0.000 HD
BRANCH  11  13
ATOM     13  C   UNL     1       3.328   1.740  18.126  0.00  0.00    +0.000 C 
BRANCH  13  14
ATOM     14  C   UNL     1       2.629   2.334  19.304  0.00  0.00    +0.000 A 
ATOM     15  C   UNL     1       1.230   2.667  19.322  0.00  0.00    +0.000 A 
ATOM     16  C   UNL     1       0.793   3.063  20.563  0.00  0.00    +0.000 A 
ATOM     17  S   UNL     1       2.063   3.090  21.706  0.00  0.00    +0.000 S 
ATOM     18  C   UNL     1       3.195   2.553  20.547  0.00  0.00    +0.000 A 
ENDBRANCH  13  14
ENDBRANCH  11  13
ENDBRANCH  10  11
ENDBRANCH   2  10
TORSDOF 5
ENDMDL
MODEL 2
REMARK VINA RESULT:      -6.2      1.261      1.881
REMARK  Name = 
REMARK  7 active torsions:
REMARK  status: ('A' for Active; 'I' for Inactive)
REMARK    1  A    between atoms: C_1  and  C_2
REMARK    2  A    between atoms: C_2  and  C_3
REMARK    3  A    between atoms: C_2  and  C_4
REMARK    4  A    between atoms: C_2  and  N_12
REMARK    5  A    between atoms: C_4  and  N_5
REMARK    6  A    between atoms: N_5  and  C_6
REMARK    7  A    between atoms: C_6  and  C_7
REMARK                            x       y       z     vdW  Elec       q    Type
REMARK                         _______ _______ _______ _____ _____    ______ ____
ROOT
ATOM      1  C   UNL     1       4.148   3.674  16.895  0.00  0.00    +0.000 C 
ATOM      2  C   UNL     1       4.429   4.912  17.775  0.00  0.00    +0.000 C 
ATOM      3  C   UNL     1       3.029   5.566  17.957  0.00  0.00    +0.000 C 
ENDROOT
BRANCH   2   4
ATOM      4  N   UNL     1       5.397   5.898  17.211  0.00  0.00    +0.000 NA
ATOM      5  C   UNL     1       5.290   6.227  15.774  0.00  0.00    +0.000 C 
ATOM      6  C   UNL     1       6.092   5.313  14.830  0.00  0.00    +0.000 C 
ATOM      7  O   UNL     1       7.470   5.231  15.211  0.00  0.00    +0.000 OA
ATOM      8  C   UNL     1       7.598   4.786  16.564  0.00  0.00    +0.000 C 
ATOM      9  C   UNL     1       6.832   5.705  17.527  0.00  0.00    +0.000 C 
ENDBRANCH   2   4
BRANCH   2  10
ATOM     10  C   UNL     1       4.942   4.369  19.179  0.00  0.00    +0.000 C 
BRANCH  10  11
ATOM     11  N   UNL     1       5.191   2.922  19.320  0.00  0.00    +0.000 NA
ATOM     12  H   UNL     1       6.177   2.792  19.541  0.00  0.00    +0.000 HD
BRANCH  11  13
ATOM     13  C   UNL     1       4.409   2.326  20.389  0.00  0.00    +0.000 C 
BRANCH  13  14
ATOM     14  C   UNL     1       2.949   2.548  20.161  0.00  0.00    +0.000 A 
ATOM     15  C   UNL     1       2.140   3.433  20.955  0.00  0.00    +0.000 A 
ATOM     16  C   UNL     1       0.866   3.575  20.460  0.00  0.00    +0.000 A 
ATOM     17  S   UNL     1       0.610   2.610  19.073  0.00  0.00    +0.000 S 
ATOM     18  C   UNL     1       2.210   2.017  19.120  0.00  0.00    +0.000 A 
ENDBRANCH  13  14
ENDBRANCH  11  13
ENDBRANCH  10  11
ENDBRANCH   2  10
TORSDOF 5
ENDMDL
MODEL 3
REMARK VINA RESULT:      -6.2      1.544      2.702
REMARK  Name = 
REMARK  7 active torsions:
REMARK  status: ('A' for Active; 'I' for Inactive)
REMARK    1  A    between atoms: C_1  and  C_2
REMARK    2  A    between atoms: C_2  and  C_3
REMARK    3  A    between atoms: C_2  and  C_4
REMARK    4  A    between atoms: C_2  and  N_12
REMARK    5  A    between atoms: C_4  and  N_5
REMARK    6  A    between atoms: N_5  and  C_6
REMARK    7  A    between atoms: C_6  and  C_7
REMARK                            x       y       z     vdW  Elec       q    Type
REMARK                         _______ _______ _______ _____ _____    ______ ____
ROOT
ATOM      1  C   UNL     1       4.783   3.026  19.241  0.00  0.00    +0.000 C 
ATOM      2  C   UNL     1       5.132   4.293  18.427  0.00  0.00    +0.000 C 
ATOM      3  C   UNL     1       4.294   4.144  17.125  0.00  0.00    +0.000 C 
ENDROOT
BRANCH   2   4
ATOM      4  N   UNL     1       6.578   4.473  18.102  0.00  0.00    +0.000 NA
ATOM      5  C   UNL     1       7.254   5.685  18.610  0.00  0.00    +0.000 C 
ATOM      6  C   UNL     1       7.175   6.916  17.688  0.00  0.00    +0.000 C 
ATOM      7  O   UNL     1       7.633   6.620  16.365  0.00  0.00    +0.000 OA
ATOM      8  C   UNL     1       6.898   5.529  15.804  0.00  0.00    +0.000 C 
ATOM      9  C   UNL     1       6.991   4.280  16.693  0.00  0.00    +0.000 C 
ENDBRANCH   2   4
BRANCH   2  10
ATOM     10  C   UNL     1       4.591   5.536  19.261  0.00  0.00    +0.000 C 
BRANCH  10  11
ATOM     11  N   UNL     1       3.369   6.214  18.790  0.00  0.00    +0.000 NA
ATOM     12  H   UNL     1       2.994   5.680  18.008  0.00  0.00    +0.000 HD
BRANCH  11  13
ATOM     13  C   UNL     1       2.344   6.285  19.816  0.00  0.00    +0.000 C 
BRANCH  13  14
ATOM     14  C   UNL     1       1.883   4.916  20.197  0.00  0.00    +0.000 A 
ATOM     15  C   UNL     1       1.212   4.017  19.297  0.00  0.00    +0.000 A 
ATOM     16  C   UNL     1       1.020   2.769  19.839  0.00  0.00    +0.000 A 
ATOM     17  S   UNL     1       1.592   2.676  21.446  0.00  0.00    +0.000 S 
ATOM     18  C   UNL     1       2.117   4.301  21.413  0.00  0.00    +0.000 A 
ENDBRANCH  13  14
ENDBRANCH  11  13
ENDBRANCH  10  11
ENDBRANCH   2  10
TORSDOF 5
ENDMDL
MODEL 4
REMARK VINA RESULT:      -6.0      1.407      2.299
REMARK  Name = 
REMARK  7 active torsions:
REMARK  status: ('A' for Active; 'I' for Inactive)
REMARK    1  A    between atoms: C_1  and  C_2
REMARK    2  A    between atoms: C_2  and  C_3
REMARK    3  A    between atoms: C_2  and  C_4
REMARK    4  A    between atoms: C_2  and  N_12
REMARK    5  A    between atoms: C_4  and  N_5
REMARK    6  A    between atoms: N_5  and  C_6
REMARK    7  A    between atoms: C_6  and  C_7
REMARK                            x       y       z     vdW  Elec       q    Type
REMARK                         _______ _______ _______ _____ _____    ______ ____
ROOT
ATOM      1  C   UNL     1       4.818   4.244  18.807  0.00  0.00    +0.000 C 
ATOM      2  C   UNL     1       3.993   4.727  17.593  0.00  0.00    +0.000 C 
ATOM      3  C   UNL     1       3.100   3.504  17.237  0.00  0.00    +0.000 C 
ENDROOT
BRANCH   2   4
ATOM      4  N   UNL     1       4.786   5.160  16.405  0.00  0.00    +0.000 NA
ATOM      5  C   UNL     1       5.971   4.358  16.036  0.00  0.00    +0.000 C 
ATOM      6  C   UNL     1       7.285   4.775  16.722  0.00  0.00    +0.000 C 
ATOM      7  O   UNL     1       7.561   6.168  16.540  0.00  0.00    +0.000 OA
ATOM      8  C   UNL     1       6.476   6.969  17.013  0.00  0.00    +0.000 C 
ATOM      9  C   UNL     1       5.160   6.590  16.316  0.00  0.00    +0.000 C 
ENDBRANCH   2   4
BRANCH   2  10
ATOM     10  C   UNL     1       3.072   5.917  18.110  0.00  0.00    +0.000 C 
BRANCH  10  11
ATOM     11  N   UNL     1       3.230   6.367  19.506  0.00  0.00    +0.000 NA
ATOM     12  H   UNL     1       3.491   7.352  19.491  0.00  0.00    +0.000 HD
BRANCH  11  13
ATOM     13  C   UNL     1       2.004   6.239  20.272  0.00  0.00    +0.000 C 
BRANCH  13  14
ATOM     14  C   UNL     1       1.753   4.811  20.632  0.00  0.00    +0.000 A 
ATOM     15  C   UNL     1       0.830   3.958  19.931  0.00  0.00    +0.000 A 
ATOM     16  C   UNL     1       0.883   2.654  20.357  0.00  0.00    +0.000 A 
ATOM     17  S   UNL     1       1.998   2.446  21.635  0.00  0.00    +0.000 S 
ATOM     18  C   UNL     1       2.427   4.099  21.606  0.00  0.00    +0.000 A 
ENDBRANCH  13  14
ENDBRANCH  11  13
ENDBRANCH  10  11
ENDBRANCH   2  10
TORSDOF 5
ENDMDL
MODEL 5
REMARK VINA RESULT:      -6.0      0.843      1.288
REMARK  Name = 
REMARK  7 active torsions:
REMARK  status: ('A' for Active; 'I' for Inactive)
REMARK    1  A    between atoms: C_1  and  C_2
REMARK    2  A    between atoms: C_2  and  C_3
REMARK    3  A    between atoms: C_2  and  C_4
REMARK    4  A    between atoms: C_2  and  N_12
REMARK    5  A    between atoms: C_4  and  N_5
REMARK    6  A    between atoms: N_5  and  C_6
REMARK    7  A    between atoms: C_6  and  C_7
REMARK                            x       y       z     vdW  Elec       q    Type
REMARK                         _______ _______ _______ _____ _____    ______ ____
ROOT
ATOM      1  C   UNL     1       3.101   6.455  18.094  0.00  0.00    +0.000 C 
ATOM      2  C   UNL     1       4.356   5.587  17.850  0.00  0.00    +0.000 C 
ATOM      3  C   UNL     1       4.884   5.283  19.281  0.00  0.00    +0.000 C 
ENDROOT
BRANCH   2   4
ATOM      4  N   UNL     1       5.425   6.217  17.020  0.00  0.00    +0.000 NA
ATOM      5  C   UNL     1       5.371   6.016  15.557  0.00  0.00    +0.000 C 
ATOM      6  C   UNL     1       6.092   4.758  15.040  0.00  0.00    +0.000 C 
ATOM      7  O   UNL     1       7.449   4.698  15.492  0.00  0.00    +0.000 OA
ATOM      8  C   UNL     1       7.514   4.760  16.918  0.00  0.00    +0.000 C 
ATOM      9  C   UNL     1       6.828   6.026  17.453  0.00  0.00    +0.000 C 
ENDBRANCH   2   4
BRANCH   2  10
ATOM     10  C   UNL     1       3.853   4.236  17.177  0.00  0.00    +0.000 C 
BRANCH  10  11
ATOM     11  N   UNL     1       4.459   2.966  17.621  0.00  0.00    +0.000 NA
ATOM     12  H   UNL     1       4.995   3.153  18.467  0.00  0.00    +0.000 HD
BRANCH  11  13
ATOM     13  C   UNL     1       3.463   1.957  17.936  0.00  0.00    +0.000 C 
BRANCH  13  14
ATOM     14  C   UNL     1       2.792   2.266  19.235  0.00  0.00    +0.000 A 
ATOM     15  C   UNL     1       3.479   2.330  20.497  0.00  0.00    +0.000 A 
ATOM     16  C   UNL     1       2.674   2.771  21.518  0.00  0.00    +0.000 A 
ATOM     17  S   UNL     1       1.075   3.062  20.989  0.00  0.00    +0.000 S 
ATOM     18  C   UNL     1       1.463   2.617  19.387  0.00  0.00    +0.000 A 
ENDBRANCH  13  14
ENDBRANCH  11  13
ENDBRANCH  10  11
ENDBRANCH   2  10
TORSDOF 5
ENDMDL
MODEL 6
REMARK VINA RESULT:      -6.0      1.249      2.161
REMARK  Name = 
REMARK  7 active torsions:
REMARK  status: ('A' for Active; 'I' for Inactive)
REMARK    1  A    between atoms: C_1  and  C_2
REMARK    2  A    between atoms: C_2  and  C_3
REMARK    3  A    between atoms: C_2  and  C_4
REMARK    4  A    between atoms: C_2  and  N_12
REMARK    5  A    between atoms: C_4  and  N_5
REMARK    6  A    between atoms: N_5  and  C_6
REMARK    7  A    between atoms: C_6  and  C_7
REMARK                            x       y       z     vdW  Elec       q    Type
REMARK                         _______ _______ _______ _____ _____    ______ ____
ROOT
ATOM      1  C   UNL     1       6.760   4.177  16.266  0.00  0.00    +0.000 C 
ATOM      2  C   UNL     1       5.502   5.020  16.573  0.00  0.00    +0.000 C 
ATOM      3  C   UNL     1       5.243   5.800  15.252  0.00  0.00    +0.000 C 
ENDROOT
BRANCH   2   4
ATOM      4  N   UNL     1       5.623   5.963  17.723  0.00  0.00    +0.000 NA
ATOM      5  C   UNL     1       6.126   7.326  17.449  0.00  0.00    +0.000 C 
ATOM      6  C   UNL     1       7.656   7.486  17.512  0.00  0.00    +0.000 C 
ATOM      7  O   UNL     1       8.191   7.008  18.750  0.00  0.00    +0.000 OA
ATOM      8  C   UNL     1       7.823   5.644  18.972  0.00  0.00    +0.000 C 
ATOM      9  C   UNL     1       6.297   5.468  18.946  0.00  0.00    +0.000 C 
ENDBRANCH   2   4
BRANCH   2  10
ATOM     10  C   UNL     1       4.312   3.993  16.818  0.00  0.00    +0.000 C 
BRANCH  10  11
ATOM     11  N   UNL     1       4.599   2.758  17.573  0.00  0.00    +0.000 NA
ATOM     12  H   UNL     1       5.051   3.022  18.448  0.00  0.00    +0.000 HD
BRANCH  11  13
ATOM     13  C   UNL     1       3.395   2.014  17.897  0.00  0.00    +0.000 C 
BRANCH  13  14
ATOM     14  C   UNL     1       2.706   2.614  19.079  0.00  0.00    +0.000 A 
ATOM     15  C   UNL     1       1.358   3.115  19.051  0.00  0.00    +0.000 A 
ATOM     16  C   UNL     1       0.902   3.483  20.294  0.00  0.00    +0.000 A 
ATOM     17  S   UNL     1       2.100   3.283  21.497  0.00  0.00    +0.000 S 
ATOM     18  C   UNL     1       3.223   2.684  20.359  0.00  0.00    +0.000 A 
ENDBRANCH  13  14
ENDBRANCH  11  13
ENDBRANCH  10  11
ENDBRANCH   2  10
TORSDOF 5
ENDMDL
MODEL 7
REMARK VINA RESULT:      -5.9      1.594      2.289
REMARK  Name = 
REMARK  7 active torsions:
REMARK  status: ('A' for Active; 'I' for Inactive)
REMARK    1  A    between atoms: C_1  and  C_2
REMARK    2  A    between atoms: C_2  and  C_3
REMARK    3  A    between atoms: C_2  and  C_4
REMARK    4  A    between atoms: C_2  and  N_12
REMARK    5  A    between atoms: C_4  and  N_5
REMARK    6  A    between atoms: N_5  and  C_6
REMARK    7  A    between atoms: C_6  and  C_7
REMARK                            x       y       z     vdW  Elec       q    Type
REMARK                         _______ _______ _______ _____ _____    ______ ____
ROOT
ATOM      1  C   UNL     1       4.281   3.944  16.800  0.00  0.00    +0.000 C 
ATOM      2  C   UNL     1       5.108   4.892  17.697  0.00  0.00    +0.000 C 
ATOM      3  C   UNL     1       4.260   6.196  17.744  0.00  0.00    +0.000 C 
ENDROOT
BRANCH   2   4
ATOM      4  N   UNL     1       6.492   5.186  17.222  0.00  0.00    +0.000 NA
ATOM      5  C   UNL     1       7.612   4.909  18.146  0.00  0.00    +0.000 C 
ATOM      6  C   UNL     1       7.985   6.067  19.090  0.00  0.00    +0.000 C 
ATOM      7  O   UNL     1       8.232   7.281  18.372  0.00  0.00    +0.000 OA
ATOM      8  C   UNL     1       7.104   7.636  17.569  0.00  0.00    +0.000 C 
ATOM      9  C   UNL     1       6.736   6.506  16.596  0.00  0.00    +0.000 C 
ENDBRANCH   2   4
BRANCH   2  10
ATOM     10  C   UNL     1       5.144   4.236  19.146  0.00  0.00    +0.000 C 
BRANCH  10  11
ATOM     11  N   UNL     1       5.148   2.764  19.246  0.00  0.00    +0.000 NA
ATOM     12  H   UNL     1       6.105   2.464  19.427  0.00  0.00    +0.000 HD
BRANCH  11  13
ATOM     13  C   UNL     1       4.314   2.280  20.332  0.00  0.00    +0.000 C 
BRANCH  13  14
ATOM     14  C   UNL     1       2.879   2.614  20.082  0.00  0.00    +0.000 A 
ATOM     15  C   UNL     1       2.166   3.654  20.775  0.00  0.00    +0.000 A 
ATOM     16  C   UNL     1       0.906   3.861  20.270  0.00  0.00    +0.000 A 
ATOM     17  S   UNL     1       0.543   2.780  18.997  0.00  0.00    +0.000 S 
ATOM     18  C   UNL     1       2.081   2.045  19.107  0.00  0.00    +0.000 A 
ENDBRANCH  13  14
ENDBRANCH  11  13
ENDBRANCH  10  11
ENDBRANCH   2  10
TORSDOF 5
ENDMDL
MODEL 8
REMARK VINA RESULT:      -5.7      4.453      7.555
REMARK  Name = 
REMARK  7 active torsions:
REMARK  status: ('A' for Active; 'I' for Inactive)
REMARK    1  A    between atoms: C_1  and  C_2
REMARK    2  A    between atoms: C_2  and  C_3
REMARK    3  A    between atoms: C_2  and  C_4
REMARK    4  A    between atoms: C_2  and  N_12
REMARK    5  A    between atoms: C_4  and  N_5
REMARK    6  A    between atoms: N_5  and  C_6
REMARK    7  A    between atoms: C_6  and  C_7
REMARK                            x       y       z     vdW  Elec       q    Type
REMARK                         _______ _______ _______ _____ _____    ______ ____
ROOT
ATOM      1  C   UNL     1       7.565   4.729  17.148  0.00  0.00    +0.000 C 
ATOM      2  C   UNL     1       7.012   5.868  18.032  0.00  0.00    +0.000 C 
ATOM      3  C   UNL     1       7.683   5.629  19.415  0.00  0.00    +0.000 C 
ENDROOT
BRANCH   2   4
ATOM      4  N   UNL     1       5.527   5.913  18.172  0.00  0.00    +0.000 NA
ATOM      5  C   UNL     1       4.917   5.180  19.301  0.00  0.00    +0.000 C 
ATOM      6  C   UNL     1       4.571   3.706  19.017  0.00  0.00    +0.000 C 
ATOM      7  O   UNL     1       3.758   3.567  17.847  0.00  0.00    +0.000 OA
ATOM      8  C   UNL     1       4.393   4.158  16.711  0.00  0.00    +0.000 C 
ATOM      9  C   UNL     1       4.717   5.639  16.963  0.00  0.00    +0.000 C 
ENDBRANCH   2   4
BRANCH   2  10
ATOM     10  C   UNL     1       7.553   7.231  17.414  0.00  0.00    +0.000 C 
BRANCH  10  11
ATOM     11  N   UNL     1       8.283   8.158  18.299  0.00  0.00    +0.000 NA
ATOM     12  H   UNL     1       9.270   7.906  18.273  0.00  0.00    +0.000 HD
BRANCH  11  13
ATOM     13  C   UNL     1       8.163   9.541  17.873  0.00  0.00    +0.000 C 
BRANCH  13  14
ATOM     14  C   UNL     1       9.178  10.395  18.560  0.00  0.00    +0.000 A 
ATOM     15  C   UNL     1      10.065  11.296  17.874  0.00  0.00    +0.000 A 
ATOM     16  C   UNL     1      10.803  12.073  18.733  0.00  0.00    +0.000 A 
ATOM     17  S   UNL     1      10.482  11.696  20.369  0.00  0.00    +0.000 S 
ATOM     18  C   UNL     1       9.338  10.506  19.929  0.00  0.00    +0.000 A 
ENDBRANCH  13  14
ENDBRANCH  11  13
ENDBRANCH  10  11
ENDBRANCH   2  10
TORSDOF 5
ENDMDL
MODEL 9
REMARK VINA RESULT:      -5.7      3.580      5.965
REMARK  Name = 
REMARK  7 active torsions:
REMARK  status: ('A' for Active; 'I' for Inactive)
REMARK    1  A    between atoms: C_1  and  C_2
REMARK    2  A    between atoms: C_2  and  C_3
REMARK    3  A    between atoms: C_2  and  C_4
REMARK    4  A    between atoms: C_2  and  N_12
REMARK    5  A    between atoms: C_4  and  N_5
REMARK    6  A    between atoms: N_5  and  C_6
REMARK    7  A    between atoms: C_6  and  C_7
REMARK                            x       y       z     vdW  Elec       q    Type
REMARK                         _______ _______ _______ _____ _____    ______ ____
ROOT
ATOM      1  C   UNL     1       2.981   5.872  19.924  0.00  0.00    +0.000 C 
ATOM      2  C   UNL     1       3.639   4.822  19.002  0.00  0.00    +0.000 C 
ATOM      3  C   UNL     1       3.368   5.360  17.568  0.00  0.00    +0.000 C 
ENDROOT
BRANCH   2   4
ATOM      4  N   UNL     1       3.126   3.427  19.143  0.00  0.00    +0.000 NA
ATOM      5  C   UNL     1       1.698   3.184  18.848  0.00  0.00    +0.000 C 
ATOM      6  C   UNL     1       0.741   3.364  20.041  0.00  0.00    +0.000 C 
ATOM      7  O   UNL     1       1.146   2.585  21.171  0.00  0.00    +0.000 OA
ATOM      8  C   UNL     1       2.487   2.903  21.555  0.00  0.00    +0.000 C 
ATOM      9  C   UNL     1       3.463   2.697  20.387  0.00  0.00    +0.000 C 
ENDBRANCH   2   4
BRANCH   2  10
ATOM     10  C   UNL     1       5.203   4.871  19.295  0.00  0.00    +0.000 C 
BRANCH  10  11
ATOM     11  N   UNL     1       6.085   3.963  18.537  0.00  0.00    +0.000 NA
ATOM     12  H   UNL     1       5.509   3.443  17.877  0.00  0.00    +0.000 HD
BRANCH  11  13
ATOM     13  C   UNL     1       7.098   4.678  17.781  0.00  0.00    +0.000 C 
BRANCH  13  14
ATOM     14  C   UNL     1       6.888   4.495  16.313  0.00  0.00    +0.000 A 
ATOM     15  C   UNL     1       5.870   3.650  15.749  0.00  0.00    +0.000 A 
ATOM     16  C   UNL     1       5.786   3.760  14.382  0.00  0.00    +0.000 A 
ATOM     17  S   UNL     1       6.958   4.834  13.756  0.00  0.00    +0.000 S 
ATOM     18  C   UNL     1       7.567   5.170  15.316  0.00  0.00    +0.000 A 
ENDBRANCH  13  14
ENDBRANCH  11  13
ENDBRANCH  10  11
ENDBRANCH   2  10
TORSDOF 5
ENDMDL
