MODEL 1
REMARK VINA RESULT:      -8.2      0.000      0.000
REMARK  Name = 
REMARK  6 active torsions:
REMARK  status: ('A' for Active; 'I' for Inactive)
REMARK    1  A    between atoms: C_1  and  C_2
REMARK    2  A    between atoms: C_2  and  C_3
REMARK    3  A    between atoms: N_5  and  C_6
REMARK    4  A    between atoms: C_6  and  C_7
REMARK    5  A    between atoms: C_6  and  C_12
REMARK    6  A    between atoms: C_18  and  O_19
REMARK                            x       y       z     vdW  Elec       q    Type
REMARK                         _______ _______ _______ _____ _____    ______ ____
ROOT
ATOM      1  C   UNL     1       5.013   5.289  18.342  0.00  0.00    +0.000 A 
ATOM      2  C   UNL     1       4.134   6.370  18.519  0.00  0.00    +0.000 A 
ATOM      3  C   UNL     1       2.958   6.240  19.267  0.00  0.00    +0.000 A 
ATOM      4 CL   UNL     1       1.948   7.637  19.414  0.00  0.00    +0.000 Cl
ATOM      5  C   UNL     1       2.617   5.021  19.873  0.00  0.00    +0.000 A 
ATOM      6  C   UNL     1       3.535   3.960  19.802  0.00  0.00    +0.000 A 
ATOM      7  C   UNL     1       4.699   4.106  19.016  0.00  0.00    +0.000 A 
ATOM      8  N   UNL     1       3.317   2.705  20.435  0.00  0.00    +0.000 N 
ATOM      9  C   UNL     1       2.248   2.713  21.439  0.00  0.00    +0.000 C 
ATOM     10  C   UNL     1       1.003   3.381  20.884  0.00  0.00    +0.000 C 
ATOM     11  C   UNL     1       1.308   4.846  20.602  0.00  0.00    +0.000 C 
ATOM     12  H   UNL     1       3.125   2.010  19.710  0.00  0.00    +0.000 HD
ENDROOT
BRANCH   7  13
ATOM     13  O   UNL     1       5.557   3.036  18.960  0.00  0.00    +0.000 OA
ATOM     14  H   UNL     1       6.447   3.445  18.974  0.00  0.00    +0.000 HD
ENDBRANCH   7  13
BRANCH   1  15
ATOM     15  C   UNL     1       6.252   5.406  17.470  0.00  0.00    +0.000 C 
BRANCH  15  16
ATOM     16  C   UNL     1       7.094   6.614  17.792  0.00  0.00    +0.000 A 
ATOM     17  C   UNL     1       8.071   6.842  18.742  0.00  0.00    +0.000 A 
ATOM     18  C   UNL     1       8.525   8.169  18.548  0.00  0.00    +0.000 A 
ATOM     19  C   UNL     1       7.799   8.670  17.495  0.00  0.00    +0.000 A 
ATOM     20  O   UNL     1       6.940   7.734  17.018  0.00  0.00    +0.000 OA
ENDBRANCH  15  16
BRANCH  15  23
ATOM     21  C   UNL     1       5.755   4.308  15.309  0.00  0.00    +0.000 C 
ATOM     22  O   UNL     1       5.810   3.183  15.787  0.00  0.00    +0.000 OA
ATOM     23  N   UNL     1       5.888   5.457  16.058  0.00  0.00    +0.000 N 
ATOM     24  H   UNL     1       5.965   6.343  15.585  0.00  0.00    +0.000 HD
BRANCH  21  26
ATOM     25  C   UNL     1       6.232   3.540  12.962  0.00  0.00    +0.000 C 
ATOM     26  C   UNL     1       5.540   4.577  13.833  0.00  0.00    +0.000 C 
ENDBRANCH  21  26
ENDBRANCH  15  23
ENDBRANCH   1  15
TORSDOF 5
ENDMDL
MODEL 2
REMARK VINA RESULT:      -7.2      3.202      5.157
REMARK  Name = 
REMARK  6 active torsions:
REMARK  status: ('A' for Active; 'I' for Inactive)
REMARK    1  A    between atoms: C_1  and  C_2
REMARK    2  A    between atoms: C_2  and  C_3
REMARK    3  A    between atoms: N_5  and  C_6
REMARK    4  A    between atoms: C_6  and  C_7
REMARK    5  A    between atoms: C_6  and  C_12
REMARK    6  A    between atoms: C_18  and  O_19
REMARK                            x       y       z     vdW  Elec       q    Type
REMARK                         _______ _______ _______ _____ _____    ______ ____
ROOT
ATOM      1  C   UNL     1       2.481   7.369  18.412  0.00  0.00    +0.000 A 
ATOM      2  C   UNL     1       1.967   8.517  17.787  0.00  0.00    +0.000 A 
ATOM      3  C   UNL     1       1.233   9.470  18.503  0.00  0.00    +0.000 A 
ATOM      4 CL   UNL     1       0.644  10.843  17.629  0.00  0.00    +0.000 Cl
ATOM      5  C   UNL     1       0.986   9.313  19.875  0.00  0.00    +0.000 A 
ATOM      6  C   UNL     1       1.585   8.231  20.541  0.00  0.00    +0.000 A 
ATOM      7  C   UNL     1       2.295   7.267  19.793  0.00  0.00    +0.000 A 
ATOM      8  N   UNL     1       1.454   8.016  21.941  0.00  0.00    +0.000 N 
ATOM      9  C   UNL     1       0.949   9.176  22.685  0.00  0.00    +0.000 C 
ATOM     10  C   UNL     1      -0.279   9.751  22.003  0.00  0.00    +0.000 C 
ATOM     11  C   UNL     1       0.119  10.287  20.633  0.00  0.00    +0.000 C 
ATOM     12  H   UNL     1       0.848   7.205  22.085  0.00  0.00    +0.000 HD
ENDROOT
BRANCH   7  13
ATOM     13  O   UNL     1       2.845   6.216  20.484  0.00  0.00    +0.000 OA
ATOM     14  H   UNL     1       3.577   6.625  20.992  0.00  0.00    +0.000 HD
ENDBRANCH   7  13
BRANCH   1  15
ATOM     15  C   UNL     1       3.216   6.296  17.624  0.00  0.00    +0.000 C 
BRANCH  15  16
ATOM     16  C   UNL     1       2.728   4.902  17.922  0.00  0.00    +0.000 A 
ATOM     17  C   UNL     1       1.531   4.260  17.669  0.00  0.00    +0.000 A 
ATOM     18  C   UNL     1       1.665   2.940  18.163  0.00  0.00    +0.000 A 
ATOM     19  C   UNL     1       2.933   2.855  18.687  0.00  0.00    +0.000 A 
ATOM     20  O   UNL     1       3.592   4.032  18.534  0.00  0.00    +0.000 OA
ENDBRANCH  15  16
BRANCH  15  23
ATOM     21  C   UNL     1       5.557   6.565  16.871  0.00  0.00    +0.000 C 
ATOM     22  O   UNL     1       5.231   6.837  15.723  0.00  0.00    +0.000 OA
ATOM     23  N   UNL     1       4.650   6.352  17.886  0.00  0.00    +0.000 N 
ATOM     24  H   UNL     1       4.980   6.003  18.771  0.00  0.00    +0.000 HD
BRANCH  21  26
ATOM     25  C   UNL     1       7.663   7.770  17.534  0.00  0.00    +0.000 C 
ATOM     26  C   UNL     1       6.998   6.420  17.315  0.00  0.00    +0.000 C 
ENDBRANCH  21  26
ENDBRANCH  15  23
ENDBRANCH   1  15
TORSDOF 5
ENDMDL
MODEL 3
REMARK VINA RESULT:      -7.2      2.193      4.038
REMARK  Name = 
REMARK  6 active torsions:
REMARK  status: ('A' for Active; 'I' for Inactive)
REMARK    1  A    between atoms: C_1  and  C_2
REMARK    2  A    between atoms: C_2  and  C_3
REMARK    3  A    between atoms: N_5  and  C_6
REMARK    4  A    between atoms: C_6  and  C_7
REMARK    5  A    between atoms: C_6  and  C_12
REMARK    6  A    between atoms: C_18  and  O_19
REMARK                            x       y       z     vdW  Elec       q    Type
REMARK                         _______ _______ _______ _____ _____    ______ ____
ROOT
ATOM      1  C   UNL     1       4.422   5.382  17.038  0.00  0.00    +0.000 A 
ATOM      2  C   UNL     1       4.348   3.980  16.993  0.00  0.00    +0.000 A 
ATOM      3  C   UNL     1       3.675   3.253  17.983  0.00  0.00    +0.000 A 
ATOM      4 CL   UNL     1       3.652   1.530  17.829  0.00  0.00    +0.000 Cl
ATOM      5  C   UNL     1       3.046   3.902  19.056  0.00  0.00    +0.000 A 
ATOM      6  C   UNL     1       3.013   5.306  19.060  0.00  0.00    +0.000 A 
ATOM      7  C   UNL     1       3.724   6.017  18.068  0.00  0.00    +0.000 A 
ATOM      8  N   UNL     1       2.347   6.062  20.065  0.00  0.00    +0.000 N 
ATOM      9  C   UNL     1       1.417   5.281  20.889  0.00  0.00    +0.000 C 
ATOM     10  C   UNL     1       2.081   4.005  21.375  0.00  0.00    +0.000 C 
ATOM     11  C   UNL     1       2.400   3.123  20.174  0.00  0.00    +0.000 C 
ATOM     12  H   UNL     1       3.055   6.512  20.649  0.00  0.00    +0.000 HD
ENDROOT
BRANCH   7  13
ATOM     13  O   UNL     1       3.680   7.388  18.125  0.00  0.00    +0.000 OA
ATOM     14  H   UNL     1       2.984   7.575  18.789  0.00  0.00    +0.000 HD
ENDBRANCH   7  13
BRANCH   1  15
ATOM     15  C   UNL     1       5.213   6.170  16.006  0.00  0.00    +0.000 C 
BRANCH  15  16
ATOM     16  C   UNL     1       5.819   5.302  14.934  0.00  0.00    +0.000 A 
ATOM     17  C   UNL     1       5.355   4.185  14.266  0.00  0.00    +0.000 A 
ATOM     18  C   UNL     1       6.364   3.814  13.344  0.00  0.00    +0.000 A 
ATOM     19  C   UNL     1       7.382   4.723  13.505  0.00  0.00    +0.000 A 
ATOM     20  O   UNL     1       7.058   5.639  14.454  0.00  0.00    +0.000 OA
ENDBRANCH  15  16
BRANCH  15  23
ATOM     21  C   UNL     1       7.167   6.337  17.515  0.00  0.00    +0.000 C 
ATOM     22  O   UNL     1       7.201   5.130  17.719  0.00  0.00    +0.000 OA
ATOM     23  N   UNL     1       6.280   6.933  16.644  0.00  0.00    +0.000 N 
ATOM     24  H   UNL     1       6.217   7.938  16.623  0.00  0.00    +0.000 HD
BRANCH  21  26
ATOM     25  C   UNL     1       7.874   8.744  17.698  0.00  0.00    +0.000 C 
ATOM     26  C   UNL     1       8.089   7.324  18.200  0.00  0.00    +0.000 C 
ENDBRANCH  21  26
ENDBRANCH  15  23
ENDBRANCH   1  15
TORSDOF 5
ENDMDL
MODEL 4
REMARK VINA RESULT:      -7.1      3.484      6.165
REMARK  Name = 
REMARK  6 active torsions:
REMARK  status: ('A' for Active; 'I' for Inactive)
REMARK    1  A    between atoms: C_1  and  C_2
REMARK    2  A    between atoms: C_2  and  C_3
REMARK    3  A    between atoms: N_5  and  C_6
REMARK    4  A    between atoms: C_6  and  C_7
REMARK    5  A    between atoms: C_6  and  C_12
REMARK    6  A    between atoms: C_18  and  O_19
REMARK                            x       y       z     vdW  Elec       q    Type
REMARK                         _______ _______ _______ _____ _____    ______ ____
ROOT
ATOM      1  C   UNL     1       2.085   7.102  19.646  0.00  0.00    +0.000 A 
ATOM      2  C   UNL     1       1.375   7.314  20.840  0.00  0.00    +0.000 A 
ATOM      3  C   UNL     1       0.846   8.570  21.160  0.00  0.00    +0.000 A 
ATOM      4 CL   UNL     1      -0.006   8.718  22.658  0.00  0.00    +0.000 Cl
ATOM      5  C   UNL     1       1.004   9.664  20.295  0.00  0.00    +0.000 A 
ATOM      6  C   UNL     1       1.613   9.446  19.048  0.00  0.00    +0.000 A 
ATOM      7  C   UNL     1       2.165   8.179  18.760  0.00  0.00    +0.000 A 
ATOM      8  N   UNL     1       1.764  10.470  18.072  0.00  0.00    +0.000 N 
ATOM      9  C   UNL     1       0.942  11.661  18.314  0.00  0.00    +0.000 C 
ATOM     10  C   UNL     1       1.081  12.118  19.755  0.00  0.00    +0.000 C 
ATOM     11  C   UNL     1       0.518  11.040  20.674  0.00  0.00    +0.000 C 
ATOM     12  H   UNL     1       2.754  10.720  18.021  0.00  0.00    +0.000 HD
ENDROOT
BRANCH   7  13
ATOM     13  O   UNL     1       2.768   8.019  17.538  0.00  0.00    +0.000 OA
ATOM     14  H   UNL     1       3.288   8.841  17.422  0.00  0.00    +0.000 HD
ENDBRANCH   7  13
BRANCH   1  15
ATOM     15  C   UNL     1       2.724   5.758  19.330  0.00  0.00    +0.000 C 
BRANCH  15  16
ATOM     16  C   UNL     1       2.131   4.619  20.117  0.00  0.00    +0.000 A 
ATOM     17  C   UNL     1       1.005   3.841  19.927  0.00  0.00    +0.000 A 
ATOM     18  C   UNL     1       0.973   2.905  20.988  0.00  0.00    +0.000 A 
ATOM     19  C   UNL     1       2.079   3.166  21.761  0.00  0.00    +0.000 A 
ATOM     20  O   UNL     1       2.796   4.192  21.236  0.00  0.00    +0.000 OA
ENDBRANCH  15  16
BRANCH  15  23
ATOM     21  C   UNL     1       5.071   5.640  18.557  0.00  0.00    +0.000 C 
ATOM     22  O   UNL     1       4.753   5.579  17.376  0.00  0.00    +0.000 OA
ATOM     23  N   UNL     1       4.161   5.797  19.579  0.00  0.00    +0.000 N 
ATOM     24  H   UNL     1       4.475   5.707  20.532  0.00  0.00    +0.000 HD
BRANCH  21  26
ATOM     25  C   UNL     1       7.424   4.966  17.975  0.00  0.00    +0.000 C 
ATOM     26  C   UNL     1       6.504   5.541  19.040  0.00  0.00    +0.000 C 
ENDBRANCH  21  26
ENDBRANCH  15  23
ENDBRANCH   1  15
TORSDOF 5
ENDMDL
MODEL 5
REMARK VINA RESULT:      -6.9      1.024      1.171
REMARK  Name = 
REMARK  6 active torsions:
REMARK  status: ('A' for Active; 'I' for Inactive)
REMARK    1  A    between atoms: C_1  and  C_2
REMARK    2  A    between atoms: C_2  and  C_3
REMARK    3  A    between atoms: N_5  and  C_6
REMARK    4  A    between atoms: C_6  and  C_7
REMARK    5  A    between atoms: C_6  and  C_12
REMARK    6  A    between atoms: C_18  and  O_19
REMARK                            x       y       z     vdW  Elec       q    Type
REMARK                         _______ _______ _______ _____ _____    ______ ____
ROOT
ATOM      1  C   UNL     1       5.230   4.869  18.891  0.00  0.00    +0.000 A 
ATOM      2  C   UNL     1       4.461   6.042  18.975  0.00  0.00    +0.000 A 
ATOM      3  C   UNL     1       3.150   6.021  19.466  0.00  0.00    +0.000 A 
ATOM      4 CL   UNL     1       2.295   7.525  19.520  0.00  0.00    +0.000 Cl
ATOM      5  C   UNL     1       2.557   4.824  19.897  0.00  0.00    +0.000 A 
ATOM      6  C   UNL     1       3.345   3.662  19.926  0.00  0.00    +0.000 A 
ATOM      7  C   UNL     1       4.654   3.701  19.397  0.00  0.00    +0.000 A 
ATOM      8  N   UNL     1       2.863   2.412  20.405  0.00  0.00    +0.000 N 
ATOM      9  C   UNL     1       1.619   2.502  21.178  0.00  0.00    +0.000 C 
ATOM     10  C   UNL     1       0.597   3.349  20.443  0.00  0.00    +0.000 C 
ATOM     11  C   UNL     1       1.117   4.778  20.340  0.00  0.00    +0.000 C 
ATOM     12  H   UNL     1       2.746   1.787  19.605  0.00  0.00    +0.000 HD
ENDROOT
BRANCH   7  13
ATOM     13  O   UNL     1       5.379   2.537  19.428  0.00  0.00    +0.000 OA
ATOM     14  H   UNL     1       4.892   1.972  20.064  0.00  0.00    +0.000 HD
ENDBRANCH   7  13
BRANCH   1  15
ATOM     15  C   UNL     1       6.626   4.876  18.290  0.00  0.00    +0.000 C 
BRANCH  15  16
ATOM     16  C   UNL     1       7.190   6.262  18.112  0.00  0.00    +0.000 A 
ATOM     17  C   UNL     1       6.916   7.270  17.207  0.00  0.00    +0.000 A 
ATOM     18  C   UNL     1       7.750   8.361  17.549  0.00  0.00    +0.000 A 
ATOM     19  C   UNL     1       8.483   7.955  18.639  0.00  0.00    +0.000 A 
ATOM     20  O   UNL     1       8.142   6.692  18.999  0.00  0.00    +0.000 OA
ENDBRANCH  15  16
BRANCH  15  23
ATOM     21  C   UNL     1       5.629   4.397  16.077  0.00  0.00    +0.000 C 
ATOM     22  O   UNL     1       4.738   5.224  16.221  0.00  0.00    +0.000 OA
ATOM     23  N   UNL     1       6.636   4.201  16.997  0.00  0.00    +0.000 N 
ATOM     24  H   UNL     1       7.259   3.418  16.881  0.00  0.00    +0.000 HD
BRANCH  21  26
ATOM     25  C   UNL     1       6.494   4.133  13.730  0.00  0.00    +0.000 C 
ATOM     26  C   UNL     1       5.731   3.483  14.873  0.00  0.00    +0.000 C 
ENDBRANCH  21  26
ENDBRANCH  15  23
ENDBRANCH   1  15
TORSDOF 5
ENDMDL
MODEL 6
REMARK VINA RESULT:      -6.8      3.104      5.044
REMARK  Name = 
REMARK  6 active torsions:
REMARK  status: ('A' for Active; 'I' for Inactive)
REMARK    1  A    between atoms: C_1  and  C_2
REMARK    2  A    between atoms: C_2  and  C_3
REMARK    3  A    between atoms: N_5  and  C_6
REMARK    4  A    between atoms: C_6  and  C_7
REMARK    5  A    between atoms: C_6  and  C_12
REMARK    6  A    between atoms: C_18  and  O_19
REMARK                            x       y       z     vdW  Elec       q    Type
REMARK                         _______ _______ _______ _____ _____    ______ ____
ROOT
ATOM      1  C   UNL     1       2.880   7.143  18.341  0.00  0.00    +0.000 A 
ATOM      2  C   UNL     1       2.521   8.342  17.701  0.00  0.00    +0.000 A 
ATOM      3  C   UNL     1       1.759   9.318  18.354  0.00  0.00    +0.000 A 
ATOM      4 CL   UNL     1       1.373  10.753  17.468  0.00  0.00    +0.000 Cl
ATOM      5  C   UNL     1       1.327   9.133  19.676  0.00  0.00    +0.000 A 
ATOM      6  C   UNL     1       1.766   7.994  20.369  0.00  0.00    +0.000 A 
ATOM      7  C   UNL     1       2.509   7.010  19.681  0.00  0.00    +0.000 A 
ATOM      8  N   UNL     1       1.441   7.743  21.732  0.00  0.00    +0.000 N 
ATOM      9  C   UNL     1       0.914   8.909  22.450  0.00  0.00    +0.000 C 
ATOM     10  C   UNL     1      -0.177   9.584  21.639  0.00  0.00    +0.000 C 
ATOM     11  C   UNL     1       0.428  10.137  20.355  0.00  0.00    +0.000 C 
ATOM     12  H   UNL     1       0.774   6.969  21.764  0.00  0.00    +0.000 HD
ENDROOT
BRANCH   7  13
ATOM     13  O   UNL     1       2.900   5.904  20.394  0.00  0.00    +0.000 OA
ATOM     14  H   UNL     1       2.061   5.546  20.754  0.00  0.00    +0.000 HD
ENDBRANCH   7  13
BRANCH   1  15
ATOM     15  C   UNL     1       3.645   6.051  17.611  0.00  0.00    +0.000 C 
BRANCH  15  16
ATOM     16  C   UNL     1       3.027   4.686  17.771  0.00  0.00    +0.000 A 
ATOM     17  C   UNL     1       3.570   3.415  17.803  0.00  0.00    +0.000 A 
ATOM     18  C   UNL     1       2.494   2.518  18.002  0.00  0.00    +0.000 A 
ATOM     19  C   UNL     1       1.360   3.292  18.078  0.00  0.00    +0.000 A 
ATOM     20  O   UNL     1       1.672   4.607  17.954  0.00  0.00    +0.000 OA
ENDBRANCH  15  16
BRANCH  15  23
ATOM     21  C   UNL     1       6.070   6.403  17.269  0.00  0.00    +0.000 C 
ATOM     22  O   UNL     1       5.909   6.949  16.185  0.00  0.00    +0.000 OA
ATOM     23  N   UNL     1       5.028   5.991  18.072  0.00  0.00    +0.000 N 
ATOM     24  H   UNL     1       5.228   5.433  18.885  0.00  0.00    +0.000 HD
BRANCH  21  26
ATOM     25  C   UNL     1       7.340   5.665  19.311  0.00  0.00    +0.000 C 
ATOM     26  C   UNL     1       7.433   6.106  17.859  0.00  0.00    +0.000 C 
ENDBRANCH  21  26
ENDBRANCH  15  23
ENDBRANCH   1  15
TORSDOF 5
ENDMDL
MODEL 7
REMARK VINA RESULT:      -6.8      3.692      6.211
REMARK  Name = 
REMARK  6 active torsions:
REMARK  status: ('A' for Active; 'I' for Inactive)
REMARK    1  A    between atoms: C_1  and  C_2
REMARK    2  A    between atoms: C_2  and  C_3
REMARK    3  A    between atoms: N_5  and  C_6
REMARK    4  A    between atoms: C_6  and  C_7
REMARK    5  A    between atoms: C_6  and  C_12
REMARK    6  A    between atoms: C_18  and  O_19
REMARK                            x       y       z     vdW  Elec       q    Type
REMARK                         _______ _______ _______ _____ _____    ______ ____
ROOT
ATOM      1  C   UNL     1       2.013   7.416  19.425  0.00  0.00    +0.000 A 
ATOM      2  C   UNL     1       1.430   7.562  20.695  0.00  0.00    +0.000 A 
ATOM      3  C   UNL     1       0.939   8.798  21.134  0.00  0.00    +0.000 A 
ATOM      4 CL   UNL     1       0.246   8.862  22.719  0.00  0.00    +0.000 Cl
ATOM      5  C   UNL     1       1.008   9.936  20.317  0.00  0.00    +0.000 A 
ATOM      6  C   UNL     1       1.485   9.788  19.005  0.00  0.00    +0.000 A 
ATOM      7  C   UNL     1       2.003   8.539  18.594  0.00  0.00    +0.000 A 
ATOM      8  N   UNL     1       1.536  10.862  18.074  0.00  0.00    +0.000 N 
ATOM      9  C   UNL     1       0.745  12.035  18.463  0.00  0.00    +0.000 C 
ATOM     10  C   UNL     1       1.032  12.416  19.904  0.00  0.00    +0.000 C 
ATOM     11  C   UNL     1       0.566  11.289  20.817  0.00  0.00    +0.000 C 
ATOM     12  H   UNL     1       2.516  11.119  17.934  0.00  0.00    +0.000 HD
ENDROOT
BRANCH   7  13
ATOM     13  O   UNL     1       2.476   8.447  17.310  0.00  0.00    +0.000 OA
ATOM     14  H   UNL     1       2.267   9.321  16.918  0.00  0.00    +0.000 HD
ENDBRANCH   7  13
BRANCH   1  15
ATOM     15  C   UNL     1       2.613   6.095  18.973  0.00  0.00    +0.000 C 
BRANCH  15  16
ATOM     16  C   UNL     1       2.102   4.912  19.755  0.00  0.00    +0.000 A 
ATOM     17  C   UNL     1       2.403   4.427  21.013  0.00  0.00    +0.000 A 
ATOM     18  C   UNL     1       1.582   3.291  21.218  0.00  0.00    +0.000 A 
ATOM     19  C   UNL     1       0.832   3.151  20.074  0.00  0.00    +0.000 A 
ATOM     20  O   UNL     1       1.126   4.136  19.187  0.00  0.00    +0.000 OA
ENDBRANCH  15  16
BRANCH  15  23
ATOM     21  C   UNL     1       4.869   6.064  17.957  0.00  0.00    +0.000 C 
ATOM     22  O   UNL     1       4.432   6.101  16.814  0.00  0.00    +0.000 OA
ATOM     23  N   UNL     1       4.069   6.126  19.077  0.00  0.00    +0.000 N 
ATOM     24  H   UNL     1       4.479   5.957  19.981  0.00  0.00    +0.000 HD
BRANCH  21  26
ATOM     25  C   UNL     1       7.185   6.923  17.484  0.00  0.00    +0.000 C 
ATOM     26  C   UNL     1       6.344   5.938  18.281  0.00  0.00    +0.000 C 
ENDBRANCH  21  26
ENDBRANCH  15  23
ENDBRANCH   1  15
TORSDOF 5
ENDMDL
MODEL 8
REMARK VINA RESULT:      -6.6      1.416      1.437
REMARK  Name = 
REMARK  6 active torsions:
REMARK  status: ('A' for Active; 'I' for Inactive)
REMARK    1  A    between atoms: C_1  and  C_2
REMARK    2  A    between atoms: C_2  and  C_3
REMARK    3  A    between atoms: N_5  and  C_6
REMARK    4  A    between atoms: C_6  and  C_7
REMARK    5  A    between atoms: C_6  and  C_12
REMARK    6  A    between atoms: C_18  and  O_19
REMARK                            x       y       z     vdW  Elec       q    Type
REMARK                         _______ _______ _______ _____ _____    ______ ____
ROOT
ATOM      1  C   UNL     1       4.681   4.274  17.809  0.00  0.00    +0.000 A 
ATOM      2  C   UNL     1       3.463   4.762  17.305  0.00  0.00    +0.000 A 
ATOM      3  C   UNL     1       2.253   4.528  17.969  0.00  0.00    +0.000 A 
ATOM      4 CL   UNL     1       0.815   5.174  17.255  0.00  0.00    +0.000 Cl
ATOM      5  C   UNL     1       2.214   3.797  19.166  0.00  0.00    +0.000 A 
ATOM      6  C   UNL     1       3.429   3.396  19.743  0.00  0.00    +0.000 A 
ATOM      7  C   UNL     1       4.635   3.617  19.041  0.00  0.00    +0.000 A 
ATOM      8  N   UNL     1       3.506   2.708  20.986  0.00  0.00    +0.000 N 
ATOM      9  C   UNL     1       2.272   2.755  21.778  0.00  0.00    +0.000 C 
ATOM     10  C   UNL     1       1.074   2.399  20.917  0.00  0.00    +0.000 C 
ATOM     11  C   UNL     1       0.906   3.461  19.837  0.00  0.00    +0.000 C 
ATOM     12  H   UNL     1       3.778   1.740  20.800  0.00  0.00    +0.000 HD
ENDROOT
BRANCH   7  13
ATOM     13  O   UNL     1       5.795   3.190  19.635  0.00  0.00    +0.000 OA
ATOM     14  H   UNL     1       5.564   2.311  20.001  0.00  0.00    +0.000 HD
ENDBRANCH   7  13
BRANCH   1  15
ATOM     15  C   UNL     1       5.987   4.463  17.053  0.00  0.00    +0.000 C 
BRANCH  15  16
ATOM     16  C   UNL     1       6.722   5.719  17.444  0.00  0.00    +0.000 A 
ATOM     17  C   UNL     1       7.708   5.968  18.379  0.00  0.00    +0.000 A 
ATOM     18  C   UNL     1       8.028   7.343  18.277  0.00  0.00    +0.000 A 
ATOM     19  C   UNL     1       7.219   7.851  17.288  0.00  0.00    +0.000 A 
ATOM     20  O   UNL     1       6.435   6.874  16.765  0.00  0.00    +0.000 OA
ENDBRANCH  15  16
BRANCH  15  23
ATOM     21  C   UNL     1       6.796   4.564  14.717  0.00  0.00    +0.000 C 
ATOM     22  O   UNL     1       7.973   4.488  15.047  0.00  0.00    +0.000 OA
ATOM     23  N   UNL     1       5.752   4.492  15.613  0.00  0.00    +0.000 N 
ATOM     24  H   UNL     1       4.818   4.693  15.294  0.00  0.00    +0.000 HD
BRANCH  21  26
ATOM     25  C   UNL     1       6.195   3.428  12.555  0.00  0.00    +0.000 C 
ATOM     26  C   UNL     1       6.344   4.754  13.284  0.00  0.00    +0.000 C 
ENDBRANCH  21  26
ENDBRANCH  15  23
ENDBRANCH   1  15
TORSDOF 5
ENDMDL
MODEL 9
REMARK VINA RESULT:      -6.5      1.306      1.445
REMARK  Name = 
REMARK  6 active torsions:
REMARK  status: ('A' for Active; 'I' for Inactive)
REMARK    1  A    between atoms: C_1  and  C_2
REMARK    2  A    between atoms: C_2  and  C_3
REMARK    3  A    between atoms: N_5  and  C_6
REMARK    4  A    between atoms: C_6  and  C_7
REMARK    5  A    between atoms: C_6  and  C_12
REMARK    6  A    between atoms: C_18  and  O_19
REMARK                            x       y       z     vdW  Elec       q    Type
REMARK                         _______ _______ _______ _____ _____    ______ ____
ROOT
ATOM      1  C   UNL     1       4.774   4.741  17.979  0.00  0.00    +0.000 A 
ATOM      2  C   UNL     1       4.217   5.802  18.714  0.00  0.00    +0.000 A 
ATOM      3  C   UNL     1       3.007   5.655  19.404  0.00  0.00    +0.000 A 
ATOM      4 CL   UNL     1       2.414   7.029  20.271  0.00  0.00    +0.000 Cl
ATOM      5  C   UNL     1       2.308   4.439  19.388  0.00  0.00    +0.000 A 
ATOM      6  C   UNL     1       2.902   3.336  18.753  0.00  0.00    +0.000 A 
ATOM      7  C   UNL     1       4.107   3.515  18.039  0.00  0.00    +0.000 A 
ATOM      8  N   UNL     1       2.310   2.042  18.735  0.00  0.00    +0.000 N 
ATOM      9  C   UNL     1       1.225   1.862  19.706  0.00  0.00    +0.000 C 
ATOM     10  C   UNL     1       0.247   3.021  19.632  0.00  0.00    +0.000 C 
ATOM     11  C   UNL     1       0.960   4.300  20.051  0.00  0.00    +0.000 C 
ATOM     12  H   UNL     1       1.978   1.855  17.786  0.00  0.00    +0.000 HD
ENDROOT
BRANCH   7  13
ATOM     13  O   UNL     1       4.639   2.414  17.418  0.00  0.00    +0.000 OA
ATOM     14  H   UNL     1       4.569   2.623  16.463  0.00  0.00    +0.000 HD
ENDBRANCH   7  13
BRANCH   1  15
ATOM     15  C   UNL     1       6.048   4.918  17.170  0.00  0.00    +0.000 C 
BRANCH  15  16
ATOM     16  C   UNL     1       6.774   6.203  17.477  0.00  0.00    +0.000 A 
ATOM     17  C   UNL     1       6.645   7.487  16.983  0.00  0.00    +0.000 A 
ATOM     18  C   UNL     1       7.590   8.284  17.671  0.00  0.00    +0.000 A 
ATOM     19  C   UNL     1       8.239   7.442  18.543  0.00  0.00    +0.000 A 
ATOM     20  O   UNL     1       7.743   6.182  18.445  0.00  0.00    +0.000 OA
ENDBRANCH  15  16
BRANCH  15  23
ATOM     21  C   UNL     1       6.770   4.731  14.810  0.00  0.00    +0.000 C 
ATOM     22  O   UNL     1       7.935   4.509  15.111  0.00  0.00    +0.000 OA
ATOM     23  N   UNL     1       5.763   4.877  15.739  0.00  0.00    +0.000 N 
ATOM     24  H   UNL     1       4.856   5.189  15.432  0.00  0.00    +0.000 HD
BRANCH  21  26
ATOM     25  C   UNL     1       6.444   3.590  12.593  0.00  0.00    +0.000 C 
ATOM     26  C   UNL     1       6.292   4.882  13.380  0.00  0.00    +0.000 C 
ENDBRANCH  21  26
ENDBRANCH  15  23
ENDBRANCH   1  15
TORSDOF 5
ENDMDL
