MODEL 1
REMARK VINA RESULT:      -9.1      0.000      0.000
REMARK  Name = 
REMARK  8 active torsions:
REMARK  status: ('A' for Active; 'I' for Inactive)
REMARK    1  A    between atoms: C_1  and  C_2
REMARK    2  A    between atoms: C_2  and  C_3
REMARK    3  A    between atoms: C_2  and  C_4
REMARK    4  A    between atoms: C_2  and  C_5
REMARK    5  A    between atoms: C_8  and  C_9
REMARK    6  A    between atoms: N_11  and  C_12
REMARK    7  A    between atoms: C_15  and  O_16
REMARK    8  A    between atoms: C_21  and  C_22
REMARK                            x       y       z     vdW  Elec       q    Type
REMARK                         _______ _______ _______ _____ _____    ______ ____
ROOT
ATOM      1  C   UNL     1       6.605   6.685  17.128  0.00  0.00    +0.000 A 
ATOM      2  C   UNL     1       7.408   5.652  16.596  0.00  0.00    +0.000 A 
ATOM      3  C   UNL     1       6.918   4.373  16.352  0.00  0.00    +0.000 A 
ATOM      4  C   UNL     1       5.604   4.092  16.659  0.00  0.00    +0.000 A 
ATOM      5  C   UNL     1       4.799   5.080  17.238  0.00  0.00    +0.000 A 
ATOM      6  C   UNL     1       3.371   4.820  17.437  0.00  0.00    +0.000 A 
ATOM      7  O   UNL     1       2.835   3.722  17.433  0.00  0.00    +0.000 OA
ATOM      8  C   UNL     1       2.543   5.991  17.668  0.00  0.00    +0.000 A 
ATOM      9  C   UNL     1       3.099   7.100  18.163  0.00  0.00    +0.000 A 
ATOM     10  O   UNL     1       4.487   7.318  18.164  0.00  0.00    +0.000 OA
ATOM     11  C   UNL     1       5.291   6.370  17.530  0.00  0.00    +0.000 A 
ENDROOT
BRANCH   9  12
ATOM     12  C   UNL     1       2.172   8.123  18.755  0.00  0.00    +0.000 A 
ATOM     13  C   UNL     1       1.939   9.314  18.003  0.00  0.00    +0.000 A 
ATOM     14  C   UNL     1       1.234  10.408  18.503  0.00  0.00    +0.000 A 
ATOM     15  C   UNL     1       0.666  10.323  19.762  0.00  0.00    +0.000 A 
ATOM     16  C   UNL     1       0.785   9.137  20.489  0.00  0.00    +0.000 A 
ATOM     17  C   UNL     1       1.526   8.042  19.996  0.00  0.00    +0.000 A 
ATOM     18 CL   UNL     1       1.606   6.644  21.012  0.00  0.00    +0.000 Cl
ENDBRANCH   9  12
BRANCH   1  21
ATOM     19  C   UNL     1       8.074   8.413  18.127  0.00  0.00    +0.000 C 
ATOM     20  O   UNL     1       8.609   7.639  18.924  0.00  0.00    +0.000 OA
ATOM     21  N   UNL     1       7.123   8.019  17.177  0.00  0.00    +0.000 N 
ATOM     22  H   UNL     1       6.962   8.600  16.362  0.00  0.00    +0.000 HD
BRANCH  19  26
ATOM     23  C   UNL     1       9.646  12.451  18.468  0.00  0.00    +0.000 A 
ATOM     24  C   UNL     1      10.124  11.382  19.231  0.00  0.00    +0.000 A 
ATOM     25  C   UNL     1       9.584  10.103  19.094  0.00  0.00    +0.000 A 
ATOM     26  C   UNL     1       8.539   9.832  18.193  0.00  0.00    +0.000 A 
ATOM     27  C   UNL     1       8.015  10.892  17.459  0.00  0.00    +0.000 A 
ATOM     28  C   UNL     1       8.566  12.183  17.597  0.00  0.00    +0.000 A 
BRANCH  23  30
ATOM     29  C   UNL     1      11.211  14.026  19.783  0.00  0.00    +0.000 C 
ATOM     30  C   UNL     1      10.286  13.850  18.552  0.00  0.00    +0.000 C 
ATOM     31  C   UNL     1       9.202  14.943  18.640  0.00  0.00    +0.000 C 
ATOM     32  C   UNL     1      11.151  14.103  17.299  0.00  0.00    +0.000 C 
ENDBRANCH  23  30
ENDBRANCH  19  26
ENDBRANCH   1  21
BRANCH   4  33
ATOM     33  O   UNL     1       5.110   2.860  16.353  0.00  0.00    +0.000 OA
ATOM     34  H   UNL     1       4.633   2.486  17.104  0.00  0.00    +0.000 HD
ENDBRANCH   4  33
TORSDOF 5
ENDMDL
MODEL 2
REMARK VINA RESULT:      -8.9      0.991      1.346
REMARK  Name = 
REMARK  8 active torsions:
REMARK  status: ('A' for Active; 'I' for Inactive)
REMARK    1  A    between atoms: C_1  and  C_2
REMARK    2  A    between atoms: C_2  and  C_3
REMARK    3  A    between atoms: C_2  and  C_4
REMARK    4  A    between atoms: C_2  and  C_5
REMARK    5  A    between atoms: C_8  and  C_9
REMARK    6  A    between atoms: N_11  and  C_12
REMARK    7  A    between atoms: C_15  and  O_16
REMARK    8  A    between atoms: C_21  and  C_22
REMARK                            x       y       z     vdW  Elec       q    Type
REMARK                         _______ _______ _______ _____ _____    ______ ____
ROOT
ATOM      1  C   UNL     1       6.370   6.518  17.118  0.00  0.00    +0.000 A 
ATOM      2  C   UNL     1       7.117   5.556  16.403  0.00  0.00    +0.000 A 
ATOM      3  C   UNL     1       6.621   4.291  16.107  0.00  0.00    +0.000 A 
ATOM      4  C   UNL     1       5.358   3.951  16.543  0.00  0.00    +0.000 A 
ATOM      5  C   UNL     1       4.615   4.863  17.300  0.00  0.00    +0.000 A 
ATOM      6  C   UNL     1       3.225   4.550  17.644  0.00  0.00    +0.000 A 
ATOM      7  O   UNL     1       2.710   3.444  17.608  0.00  0.00    +0.000 OA
ATOM      8  C   UNL     1       2.414   5.675  18.077  0.00  0.00    +0.000 A 
ATOM      9  C   UNL     1       3.010   6.751  18.598  0.00  0.00    +0.000 A 
ATOM     10  O   UNL     1       4.384   7.005  18.452  0.00  0.00    +0.000 OA
ATOM     11  C   UNL     1       5.119   6.135  17.645  0.00  0.00    +0.000 A 
ENDROOT
BRANCH   9  12
ATOM     12  C   UNL     1       2.146   7.696  19.385  0.00  0.00    +0.000 A 
ATOM     13  C   UNL     1       1.715   7.272  20.678  0.00  0.00    +0.000 A 
ATOM     14  C   UNL     1       0.786   7.976  21.443  0.00  0.00    +0.000 A 
ATOM     15  C   UNL     1       0.302   9.182  20.968  0.00  0.00    +0.000 A 
ATOM     16  C   UNL     1       0.775   9.682  19.754  0.00  0.00    +0.000 A 
ATOM     17  C   UNL     1       1.691   8.954  18.965  0.00  0.00    +0.000 A 
ATOM     18 CL   UNL     1       2.178   9.684  17.474  0.00  0.00    +0.000 Cl
ENDBRANCH   9  12
BRANCH   1  21
ATOM     19  C   UNL     1       7.921   8.191  18.086  0.00  0.00    +0.000 C 
ATOM     20  O   UNL     1       8.559   7.365  18.743  0.00  0.00    +0.000 OA
ATOM     21  N   UNL     1       6.869   7.856  17.223  0.00  0.00    +0.000 N 
ATOM     22  H   UNL     1       6.604   8.500  16.487  0.00  0.00    +0.000 HD
BRANCH  19  26
ATOM     23  C   UNL     1       9.427  12.229  18.650  0.00  0.00    +0.000 A 
ATOM     24  C   UNL     1       9.828  11.150  19.442  0.00  0.00    +0.000 A 
ATOM     25  C   UNL     1       9.312   9.871  19.231  0.00  0.00    +0.000 A 
ATOM     26  C   UNL     1       8.369   9.610  18.221  0.00  0.00    +0.000 A 
ATOM     27  C   UNL     1       7.919  10.680  17.452  0.00  0.00    +0.000 A 
ATOM     28  C   UNL     1       8.446  11.970  17.667  0.00  0.00    +0.000 A 
BRANCH  23  30
ATOM     29  C   UNL     1      10.857  13.782  20.134  0.00  0.00    +0.000 C 
ATOM     30  C   UNL     1      10.047  13.629  18.822  0.00  0.00    +0.000 C 
ATOM     31  C   UNL     1       8.952  14.714  18.835  0.00  0.00    +0.000 C 
ATOM     32  C   UNL     1      11.019  13.914  17.656  0.00  0.00    +0.000 C 
ENDBRANCH  23  30
ENDBRANCH  19  26
ENDBRANCH   1  21
BRANCH   4  33
ATOM     33  O   UNL     1       4.850   2.737  16.190  0.00  0.00    +0.000 OA
ATOM     34  H   UNL     1       5.557   2.120  15.966  0.00  0.00    +0.000 HD
ENDBRANCH   4  33
TORSDOF 5
ENDMDL
MODEL 3
REMARK VINA RESULT:      -8.2      5.045      9.626
REMARK  Name = 
REMARK  8 active torsions:
REMARK  status: ('A' for Active; 'I' for Inactive)
REMARK    1  A    between atoms: C_1  and  C_2
REMARK    2  A    between atoms: C_2  and  C_3
REMARK    3  A    between atoms: C_2  and  C_4
REMARK    4  A    between atoms: C_2  and  C_5
REMARK    5  A    between atoms: C_8  and  C_9
REMARK    6  A    between atoms: N_11  and  C_12
REMARK    7  A    between atoms: C_15  and  O_16
REMARK    8  A    between atoms: C_21  and  C_22
REMARK                            x       y       z     vdW  Elec       q    Type
REMARK                         _______ _______ _______ _____ _____    ______ ____
ROOT
ATOM      1  C   UNL     1      -0.077  11.179  22.038  0.00  0.00    +0.000 A 
ATOM      2  C   UNL     1      -1.184  10.777  22.817  0.00  0.00    +0.000 A 
ATOM      3  C   UNL     1      -2.158  11.670  23.253  0.00  0.00    +0.000 A 
ATOM      4  C   UNL     1      -2.030  13.004  22.931  0.00  0.00    +0.000 A 
ATOM      5  C   UNL     1      -0.916  13.442  22.206  0.00  0.00    +0.000 A 
ATOM      6  C   UNL     1      -0.853  14.833  21.751  0.00  0.00    +0.000 A 
ATOM      7  O   UNL     1      -1.524  15.759  22.182  0.00  0.00    +0.000 OA
ATOM      8  C   UNL     1       0.110  15.110  20.700  0.00  0.00    +0.000 A 
ATOM      9  C   UNL     1       1.166  14.306  20.549  0.00  0.00    +0.000 A 
ATOM     10  O   UNL     1       1.233  13.025  21.123  0.00  0.00    +0.000 OA
ATOM     11  C   UNL     1       0.101  12.556  21.792  0.00  0.00    +0.000 A 
ENDROOT
BRANCH   9  12
ATOM     12  C   UNL     1       2.319  14.835  19.745  0.00  0.00    +0.000 A 
ATOM     13  C   UNL     1       2.810  16.135  20.074  0.00  0.00    +0.000 A 
ATOM     14  C   UNL     1       3.762  16.808  19.310  0.00  0.00    +0.000 A 
ATOM     15  C   UNL     1       4.319  16.170  18.216  0.00  0.00    +0.000 A 
ATOM     16  C   UNL     1       3.941  14.859  17.920  0.00  0.00    +0.000 A 
ATOM     17  C   UNL     1       2.953  14.190  18.674  0.00  0.00    +0.000 A 
ATOM     18 CL   UNL     1       2.568  12.576  18.183  0.00  0.00    +0.000 Cl
ENDBRANCH   9  12
BRANCH   1  21
ATOM     19  C   UNL     1       0.606   9.711  20.162  0.00  0.00    +0.000 C 
ATOM     20  O   UNL     1      -0.217  10.175  19.369  0.00  0.00    +0.000 OA
ATOM     21  N   UNL     1       0.778  10.181  21.470  0.00  0.00    +0.000 N 
ATOM     22  H   UNL     1       1.650  10.000  21.954  0.00  0.00    +0.000 HD
BRANCH  19  26
ATOM     23  C   UNL     1       3.203   6.705  18.397  0.00  0.00    +0.000 A 
ATOM     24  C   UNL     1       2.832   7.876  17.730  0.00  0.00    +0.000 A 
ATOM     25  C   UNL     1       1.988   8.810  18.333  0.00  0.00    +0.000 A 
ATOM     26  C   UNL     1       1.475   8.618  19.627  0.00  0.00    +0.000 A 
ATOM     27  C   UNL     1       1.792   7.436  20.291  0.00  0.00    +0.000 A 
ATOM     28  C   UNL     1       2.648   6.497  19.680  0.00  0.00    +0.000 A 
BRANCH  23  30
ATOM     29  C   UNL     1       3.530   4.376  17.336  0.00  0.00    +0.000 C 
ATOM     30  C   UNL     1       4.196   5.704  17.775  0.00  0.00    +0.000 C 
ATOM     31  C   UNL     1       5.309   5.343  18.780  0.00  0.00    +0.000 C 
ATOM     32  C   UNL     1       4.840   6.323  16.516  0.00  0.00    +0.000 C 
ENDBRANCH  23  30
ENDBRANCH  19  26
ENDBRANCH   1  21
BRANCH   4  33
ATOM     33  O   UNL     1      -3.022  13.864  23.300  0.00  0.00    +0.000 OA
ATOM     34  H   UNL     1      -2.981  14.048  24.246  0.00  0.00    +0.000 HD
ENDBRANCH   4  33
TORSDOF 5
ENDMDL
MODEL 4
REMARK VINA RESULT:      -8.2      5.044      9.271
REMARK  Name = 
REMARK  8 active torsions:
REMARK  status: ('A' for Active; 'I' for Inactive)
REMARK    1  A    between atoms: C_1  and  C_2
REMARK    2  A    between atoms: C_2  and  C_3
REMARK    3  A    between atoms: C_2  and  C_4
REMARK    4  A    between atoms: C_2  and  C_5
REMARK    5  A    between atoms: C_8  and  C_9
REMARK    6  A    between atoms: N_11  and  C_12
REMARK    7  A    between atoms: C_15  and  O_16
REMARK    8  A    between atoms: C_21  and  C_22
REMARK                            x       y       z     vdW  Elec       q    Type
REMARK                         _______ _______ _______ _____ _____    ______ ____
ROOT
ATOM      1  C   UNL     1       0.339  10.552  21.919  0.00  0.00    +0.000 A 
ATOM      2  C   UNL     1      -0.647  10.004  22.768  0.00  0.00    +0.000 A 
ATOM      3  C   UNL     1      -1.660  10.772  23.334  0.00  0.00    +0.000 A 
ATOM      4  C   UNL     1      -1.694  12.125  23.075  0.00  0.00    +0.000 A 
ATOM      5  C   UNL     1      -0.699  12.707  22.281  0.00  0.00    +0.000 A 
ATOM      6  C   UNL     1      -0.815  14.117  21.898  0.00  0.00    +0.000 A 
ATOM      7  O   UNL     1      -1.531  14.949  22.434  0.00  0.00    +0.000 OA
ATOM      8  C   UNL     1       0.016  14.538  20.784  0.00  0.00    +0.000 A 
ATOM      9  C   UNL     1       1.128  13.854  20.499  0.00  0.00    +0.000 A 
ATOM     10  O   UNL     1       1.373  12.562  20.995  0.00  0.00    +0.000 OA
ATOM     11  C   UNL     1       0.358  11.950  21.733  0.00  0.00    +0.000 A 
ENDROOT
BRANCH   9  12
ATOM     12  C   UNL     1       2.145  14.535  19.629  0.00  0.00    +0.000 A 
ATOM     13  C   UNL     1       2.500  15.878  19.957  0.00  0.00    +0.000 A 
ATOM     14  C   UNL     1       3.305  16.676  19.145  0.00  0.00    +0.000 A 
ATOM     15  C   UNL     1       3.850  16.131  17.996  0.00  0.00    +0.000 A 
ATOM     16  C   UNL     1       3.609  14.790  17.692  0.00  0.00    +0.000 A 
ATOM     17  C   UNL     1       2.769  13.991  18.497  0.00  0.00    +0.000 A 
ATOM     18 CL   UNL     1       2.544  12.352  17.990  0.00  0.00    +0.000 Cl
ENDBRANCH   9  12
BRANCH   1  21
ATOM     19  C   UNL     1       1.023   9.300  19.893  0.00  0.00    +0.000 C 
ATOM     20  O   UNL     1       0.126   9.761  19.184  0.00  0.00    +0.000 OA
ATOM     21  N   UNL     1       1.233   9.674  21.227  0.00  0.00    +0.000 N 
ATOM     22  H   UNL     1       2.142   9.524  21.650  0.00  0.00    +0.000 HD
BRANCH  19  26
ATOM     23  C   UNL     1       3.609   6.278  18.139  0.00  0.00    +0.000 A 
ATOM     24  C   UNL     1       2.996   6.124  19.386  0.00  0.00    +0.000 A 
ATOM     25  C   UNL     1       2.180   7.125  19.914  0.00  0.00    +0.000 A 
ATOM     26  C   UNL     1       1.939   8.326  19.225  0.00  0.00    +0.000 A 
ATOM     27  C   UNL     1       2.579   8.521  18.004  0.00  0.00    +0.000 A 
ATOM     28  C   UNL     1       3.400   7.506  17.471  0.00  0.00    +0.000 A 
BRANCH  23  30
ATOM     29  C   UNL     1       5.595   4.656  18.427  0.00  0.00    +0.000 C 
ATOM     30  C   UNL     1       4.448   5.149  17.510  0.00  0.00    +0.000 C 
ATOM     31  C   UNL     1       5.094   5.620  16.190  0.00  0.00    +0.000 C 
ATOM     32  C   UNL     1       3.547   3.930  17.219  0.00  0.00    +0.000 C 
ENDBRANCH  23  30
ENDBRANCH  19  26
ENDBRANCH   1  21
BRANCH   4  33
ATOM     33  O   UNL     1      -2.727  12.861  23.573  0.00  0.00    +0.000 OA
ATOM     34  H   UNL     1      -2.716  13.757  23.214  0.00  0.00    +0.000 HD
ENDBRANCH   4  33
TORSDOF 5
ENDMDL
MODEL 5
REMARK VINA RESULT:      -8.1      5.545     10.050
REMARK  Name = 
REMARK  8 active torsions:
REMARK  status: ('A' for Active; 'I' for Inactive)
REMARK    1  A    between atoms: C_1  and  C_2
REMARK    2  A    between atoms: C_2  and  C_3
REMARK    3  A    between atoms: C_2  and  C_4
REMARK    4  A    between atoms: C_2  and  C_5
REMARK    5  A    between atoms: C_8  and  C_9
REMARK    6  A    between atoms: N_11  and  C_12
REMARK    7  A    between atoms: C_15  and  O_16
REMARK    8  A    between atoms: C_21  and  C_22
REMARK                            x       y       z     vdW  Elec       q    Type
REMARK                         _______ _______ _______ _____ _____    ______ ____
ROOT
ATOM      1  C   UNL     1      -0.570  11.759  22.020  0.00  0.00    +0.000 A 
ATOM      2  C   UNL     1      -1.568  11.345  22.929  0.00  0.00    +0.000 A 
ATOM      3  C   UNL     1      -2.556  12.204  23.401  0.00  0.00    +0.000 A 
ATOM      4  C   UNL     1      -2.551  13.518  22.983  0.00  0.00    +0.000 A 
ATOM      5  C   UNL     1      -1.542  13.972  22.125  0.00  0.00    +0.000 A 
ATOM      6  C   UNL     1      -1.619  15.329  21.578  0.00  0.00    +0.000 A 
ATOM      7  O   UNL     1      -2.308  16.239  22.013  0.00  0.00    +0.000 OA
ATOM      8  C   UNL     1      -0.780  15.590  20.421  0.00  0.00    +0.000 A 
ATOM      9  C   UNL     1       0.310  14.844  20.219  0.00  0.00    +0.000 A 
ATOM     10  O   UNL     1       0.518  13.614  20.864  0.00  0.00    +0.000 OA
ATOM     11  C   UNL     1      -0.511  13.124  21.670  0.00  0.00    +0.000 A 
ENDROOT
BRANCH   9  12
ATOM     12  C   UNL     1       1.342  15.387  19.273  0.00  0.00    +0.000 A 
ATOM     13  C   UNL     1       1.344  16.794  19.035  0.00  0.00    +0.000 A 
ATOM     14  C   UNL     1       2.137  17.405  18.065  0.00  0.00    +0.000 A 
ATOM     15  C   UNL     1       3.023  16.631  17.337  0.00  0.00    +0.000 A 
ATOM     16  C   UNL     1       3.126  15.266  17.609  0.00  0.00    +0.000 A 
ATOM     17  C   UNL     1       2.300  14.642  18.569  0.00  0.00    +0.000 A 
ATOM     18 CL   UNL     1       2.520  12.941  18.790  0.00  0.00    +0.000 Cl
ENDBRANCH   9  12
BRANCH   1  21
ATOM     19  C   UNL     1       0.160  10.368  20.103  0.00  0.00    +0.000 C 
ATOM     20  O   UNL     1      -0.634  10.874  19.307  0.00  0.00    +0.000 OA
ATOM     21  N   UNL     1       0.295  10.779  21.436  0.00  0.00    +0.000 N 
ATOM     22  H   UNL     1       1.150  10.569  21.938  0.00  0.00    +0.000 HD
BRANCH  19  26
ATOM     23  C   UNL     1       2.660   7.092  18.722  0.00  0.00    +0.000 A 
ATOM     24  C   UNL     1       2.200   7.195  20.038  0.00  0.00    +0.000 A 
ATOM     25  C   UNL     1       1.406   8.270  20.440  0.00  0.00    +0.000 A 
ATOM     26  C   UNL     1       1.036   9.292  19.548  0.00  0.00    +0.000 A 
ATOM     27  C   UNL     1       1.523   9.234  18.245  0.00  0.00    +0.000 A 
ATOM     28  C   UNL     1       2.322   8.145  17.842  0.00  0.00    +0.000 A 
BRANCH  23  30
ATOM     29  C   UNL     1       2.582   4.696  17.769  0.00  0.00    +0.000 C 
ATOM     30  C   UNL     1       3.471   5.871  18.246  0.00  0.00    +0.000 C 
ATOM     31  C   UNL     1       4.365   5.333  19.382  0.00  0.00    +0.000 C 
ATOM     32  C   UNL     1       4.366   6.273  17.054  0.00  0.00    +0.000 C 
ENDBRANCH  23  30
ENDBRANCH  19  26
ENDBRANCH   1  21
BRANCH   4  33
ATOM     33  O   UNL     1      -3.560  14.337  23.392  0.00  0.00    +0.000 OA
ATOM     34  H   UNL     1      -4.106  14.609  22.644  0.00  0.00    +0.000 HD
ENDBRANCH   4  33
TORSDOF 5
ENDMDL
MODEL 6
REMARK VINA RESULT:      -8.1      4.911      9.640
REMARK  Name = 
REMARK  8 active torsions:
REMARK  status: ('A' for Active; 'I' for Inactive)
REMARK    1  A    between atoms: C_1  and  C_2
REMARK    2  A    between atoms: C_2  and  C_3
REMARK    3  A    between atoms: C_2  and  C_4
REMARK    4  A    between atoms: C_2  and  C_5
REMARK    5  A    between atoms: C_8  and  C_9
REMARK    6  A    between atoms: N_11  and  C_12
REMARK    7  A    between atoms: C_15  and  O_16
REMARK    8  A    between atoms: C_21  and  C_22
REMARK                            x       y       z     vdW  Elec       q    Type
REMARK                         _______ _______ _______ _____ _____    ______ ____
ROOT
ATOM      1  C   UNL     1      -0.015  11.212  22.001  0.00  0.00    +0.000 A 
ATOM      2  C   UNL     1      -1.162  10.869  22.750  0.00  0.00    +0.000 A 
ATOM      3  C   UNL     1      -2.103  11.811  23.154  0.00  0.00    +0.000 A 
ATOM      4  C   UNL     1      -1.901  13.135  22.830  0.00  0.00    +0.000 A 
ATOM      5  C   UNL     1      -0.746  13.514  22.136  0.00  0.00    +0.000 A 
ATOM      6  C   UNL     1      -0.604  14.898  21.676  0.00  0.00    +0.000 A 
ATOM      7  O   UNL     1      -1.240  15.858  22.084  0.00  0.00    +0.000 OA
ATOM      8  C   UNL     1       0.402  15.121  20.652  0.00  0.00    +0.000 A 
ATOM      9  C   UNL     1       1.421  14.266  20.535  0.00  0.00    +0.000 A 
ATOM     10  O   UNL     1       1.409  12.987  21.116  0.00  0.00    +0.000 OA
ATOM     11  C   UNL     1       0.238  12.577  21.754  0.00  0.00    +0.000 A 
ENDROOT
BRANCH   9  12
ATOM     12  C   UNL     1       2.621  14.734  19.762  0.00  0.00    +0.000 A 
ATOM     13  C   UNL     1       2.408  15.187  18.426  0.00  0.00    +0.000 A 
ATOM     14  C   UNL     1       3.447  15.496  17.549  0.00  0.00    +0.000 A 
ATOM     15  C   UNL     1       4.752  15.431  18.004  0.00  0.00    +0.000 A 
ATOM     16  C   UNL     1       4.998  15.090  19.335  0.00  0.00    +0.000 A 
ATOM     17  C   UNL     1       3.949  14.747  20.213  0.00  0.00    +0.000 A 
ATOM     18 CL   UNL     1       4.401  14.326  21.829  0.00  0.00    +0.000 Cl
ENDBRANCH   9  12
BRANCH   1  21
ATOM     19  C   UNL     1       0.663   9.716  20.145  0.00  0.00    +0.000 C 
ATOM     20  O   UNL     1      -0.098  10.229  19.322  0.00  0.00    +0.000 OA
ATOM     21  N   UNL     1       0.807  10.171  21.463  0.00  0.00    +0.000 N 
ATOM     22  H   UNL     1       1.647   9.939  21.981  0.00  0.00    +0.000 HD
BRANCH  19  26
ATOM     23  C   UNL     1       3.148   6.573  18.460  0.00  0.00    +0.000 A 
ATOM     24  C   UNL     1       2.815   7.736  17.761  0.00  0.00    +0.000 A 
ATOM     25  C   UNL     1       2.006   8.716  18.339  0.00  0.00    +0.000 A 
ATOM     26  C   UNL     1       1.492   8.580  19.640  0.00  0.00    +0.000 A 
ATOM     27  C   UNL     1       1.771   7.407  20.336  0.00  0.00    +0.000 A 
ATOM     28  C   UNL     1       2.591   6.421  19.750  0.00  0.00    +0.000 A 
BRANCH  23  30
ATOM     29  C   UNL     1       3.381   4.227  17.412  0.00  0.00    +0.000 C 
ATOM     30  C   UNL     1       4.103   5.521  17.864  0.00  0.00    +0.000 C 
ATOM     31  C   UNL     1       5.172   5.107  18.896  0.00  0.00    +0.000 C 
ATOM     32  C   UNL     1       4.808   6.102  16.620  0.00  0.00    +0.000 C 
ENDBRANCH  23  30
ENDBRANCH  19  26
ENDBRANCH   1  21
BRANCH   4  33
ATOM     33  O   UNL     1      -2.859  14.043  23.166  0.00  0.00    +0.000 OA
ATOM     34  H   UNL     1      -2.516  14.943  23.105  0.00  0.00    +0.000 HD
ENDBRANCH   4  33
TORSDOF 5
ENDMDL
MODEL 7
REMARK VINA RESULT:      -8.1      4.821      9.441
REMARK  Name = 
REMARK  8 active torsions:
REMARK  status: ('A' for Active; 'I' for Inactive)
REMARK    1  A    between atoms: C_1  and  C_2
REMARK    2  A    between atoms: C_2  and  C_3
REMARK    3  A    between atoms: C_2  and  C_4
REMARK    4  A    between atoms: C_2  and  C_5
REMARK    5  A    between atoms: C_8  and  C_9
REMARK    6  A    between atoms: N_11  and  C_12
REMARK    7  A    between atoms: C_15  and  O_16
REMARK    8  A    between atoms: C_21  and  C_22
REMARK                            x       y       z     vdW  Elec       q    Type
REMARK                         _______ _______ _______ _____ _____    ______ ____
ROOT
ATOM      1  C   UNL     1       0.317  10.822  21.831  0.00  0.00    +0.000 A 
ATOM      2  C   UNL     1      -0.784  10.387  22.602  0.00  0.00    +0.000 A 
ATOM      3  C   UNL     1      -1.740  11.264  23.104  0.00  0.00    +0.000 A 
ATOM      4  C   UNL     1      -1.601  12.613  22.859  0.00  0.00    +0.000 A 
ATOM      5  C   UNL     1      -0.492  13.080  22.145  0.00  0.00    +0.000 A 
ATOM      6  C   UNL     1      -0.420  14.495  21.771  0.00  0.00    +0.000 A 
ATOM      7  O   UNL     1      -1.072  15.401  22.266  0.00  0.00    +0.000 OA
ATOM      8  C   UNL     1       0.532  14.822  20.723  0.00  0.00    +0.000 A 
ATOM      9  C   UNL     1       1.576  14.017  20.510  0.00  0.00    +0.000 A 
ATOM     10  O   UNL     1       1.636  12.704  21.006  0.00  0.00    +0.000 OA
ATOM     11  C   UNL     1       0.508  12.209  21.663  0.00  0.00    +0.000 A 
ENDROOT
BRANCH   9  12
ATOM     12  C   UNL     1       2.723  14.580  19.721  0.00  0.00    +0.000 A 
ATOM     13  C   UNL     1       2.455  15.023  18.392  0.00  0.00    +0.000 A 
ATOM     14  C   UNL     1       3.452  15.416  17.500  0.00  0.00    +0.000 A 
ATOM     15  C   UNL     1       4.766  15.448  17.934  0.00  0.00    +0.000 A 
ATOM     16  C   UNL     1       5.060  15.119  19.258  0.00  0.00    +0.000 A 
ATOM     17  C   UNL     1       4.054  14.691  20.151  0.00  0.00    +0.000 A 
ATOM     18 CL   UNL     1       4.563  14.296  21.756  0.00  0.00    +0.000 Cl
ENDBRANCH   9  12
BRANCH   1  21
ATOM     19  C   UNL     1       0.964   9.470  19.857  0.00  0.00    +0.000 C 
ATOM     20  O   UNL     1       0.145  10.000  19.102  0.00  0.00    +0.000 OA
ATOM     21  N   UNL     1       1.152   9.850  21.193  0.00  0.00    +0.000 N 
ATOM     22  H   UNL     1       2.023   9.623  21.658  0.00  0.00    +0.000 HD
BRANCH  19  26
ATOM     23  C   UNL     1       3.345   6.191  18.284  0.00  0.00    +0.000 A 
ATOM     24  C   UNL     1       2.759   6.165  19.553  0.00  0.00    +0.000 A 
ATOM     25  C   UNL     1       2.009   7.245  20.020  0.00  0.00    +0.000 A 
ATOM     26  C   UNL     1       1.811   8.401  19.246  0.00  0.00    +0.000 A 
ATOM     27  C   UNL     1       2.427   8.468  17.999  0.00  0.00    +0.000 A 
ATOM     28  C   UNL     1       3.181   7.374  17.528  0.00  0.00    +0.000 A 
BRANCH  23  30
ATOM     29  C   UNL     1       5.139   4.389  18.723  0.00  0.00    +0.000 C 
ATOM     30  C   UNL     1       4.109   4.975  17.725  0.00  0.00    +0.000 C 
ATOM     31  C   UNL     1       4.882   5.357  16.446  0.00  0.00    +0.000 C 
ATOM     32  C   UNL     1       3.113   3.845  17.388  0.00  0.00    +0.000 C 
ENDBRANCH  23  30
ENDBRANCH  19  26
ENDBRANCH   1  21
BRANCH   4  33
ATOM     33  O   UNL     1      -2.577  13.460  23.293  0.00  0.00    +0.000 OA
ATOM     34  H   UNL     1      -2.331  14.379  23.130  0.00  0.00    +0.000 HD
ENDBRANCH   4  33
TORSDOF 5
ENDMDL
MODEL 8
REMARK VINA RESULT:      -8.0      5.339     10.083
REMARK  Name = 
REMARK  8 active torsions:
REMARK  status: ('A' for Active; 'I' for Inactive)
REMARK    1  A    between atoms: C_1  and  C_2
REMARK    2  A    between atoms: C_2  and  C_3
REMARK    3  A    between atoms: C_2  and  C_4
REMARK    4  A    between atoms: C_2  and  C_5
REMARK    5  A    between atoms: C_8  and  C_9
REMARK    6  A    between atoms: N_11  and  C_12
REMARK    7  A    between atoms: C_15  and  O_16
REMARK    8  A    between atoms: C_21  and  C_22
REMARK                            x       y       z     vdW  Elec       q    Type
REMARK                         _______ _______ _______ _____ _____    ______ ____
ROOT
ATOM      1  C   UNL     1      -0.404  11.718  22.138  0.00  0.00    +0.000 A 
ATOM      2  C   UNL     1      -1.558  11.365  22.872  0.00  0.00    +0.000 A 
ATOM      3  C   UNL     1      -2.477  12.308  23.322  0.00  0.00    +0.000 A 
ATOM      4  C   UNL     1      -2.247  13.641  23.060  0.00  0.00    +0.000 A 
ATOM      5  C   UNL     1      -1.084  14.026  22.383  0.00  0.00    +0.000 A 
ATOM      6  C   UNL     1      -0.910  15.427  21.990  0.00  0.00    +0.000 A 
ATOM      7  O   UNL     1      -1.524  16.380  22.443  0.00  0.00    +0.000 OA
ATOM      8  C   UNL     1       0.099  15.676  20.975  0.00  0.00    +0.000 A 
ATOM      9  C   UNL     1       1.100  14.805  20.817  0.00  0.00    +0.000 A 
ATOM     10  O   UNL     1       1.059  13.500  21.336  0.00  0.00    +0.000 OA
ATOM     11  C   UNL     1      -0.121  13.087  21.956  0.00  0.00    +0.000 A 
ENDROOT
BRANCH   9  12
ATOM     12  C   UNL     1       2.309  15.282  20.065  0.00  0.00    +0.000 A 
ATOM     13  C   UNL     1       3.004  16.415  20.586  0.00  0.00    +0.000 A 
ATOM     14  C   UNL     1       4.039  17.056  19.906  0.00  0.00    +0.000 A 
ATOM     15  C   UNL     1       4.471  16.538  18.698  0.00  0.00    +0.000 A 
ATOM     16  C   UNL     1       3.886  15.372  18.203  0.00  0.00    +0.000 A 
ATOM     17  C   UNL     1       2.817  14.742  18.875  0.00  0.00    +0.000 A 
ATOM     18 CL   UNL     1       2.174  13.315  18.137  0.00  0.00    +0.000 Cl
ENDBRANCH   9  12
BRANCH   1  21
ATOM     19  C   UNL     1       0.335  10.388  20.182  0.00  0.00    +0.000 C 
ATOM     20  O   UNL     1      -0.321  11.040  19.366  0.00  0.00    +0.000 OA
ATOM     21  N   UNL     1       0.394  10.685  21.550  0.00  0.00    +0.000 N 
ATOM     22  H   UNL     1       1.171  10.339  22.102  0.00  0.00    +0.000 HD
BRANCH  19  26
ATOM     23  C   UNL     1       2.595   6.954  18.769  0.00  0.00    +0.000 A 
ATOM     24  C   UNL     1       2.164   7.089  20.092  0.00  0.00    +0.000 A 
ATOM     25  C   UNL     1       1.447   8.214  20.503  0.00  0.00    +0.000 A 
ATOM     26  C   UNL     1       1.130   9.256  19.616  0.00  0.00    +0.000 A 
ATOM     27  C   UNL     1       1.592   9.166  18.305  0.00  0.00    +0.000 A 
ATOM     28  C   UNL     1       2.313   8.026  17.892  0.00  0.00    +0.000 A 
BRANCH  23  30
ATOM     29  C   UNL     1       4.160   4.999  19.389  0.00  0.00    +0.000 C 
ATOM     30  C   UNL     1       3.318   5.683  18.283  0.00  0.00    +0.000 C 
ATOM     31  C   UNL     1       4.277   6.011  17.121  0.00  0.00    +0.000 C 
ATOM     32  C   UNL     1       2.281   4.647  17.799  0.00  0.00    +0.000 C 
ENDBRANCH  23  30
ENDBRANCH  19  26
ENDBRANCH   1  21
BRANCH   4  33
ATOM     33  O   UNL     1      -3.184  14.554  23.441  0.00  0.00    +0.000 OA
ATOM     34  H   UNL     1      -2.981  15.425  23.080  0.00  0.00    +0.000 HD
ENDBRANCH   4  33
TORSDOF 5
ENDMDL
MODEL 9
REMARK VINA RESULT:      -7.8      5.583      9.947
REMARK  Name = 
REMARK  8 active torsions:
REMARK  status: ('A' for Active; 'I' for Inactive)
REMARK    1  A    between atoms: C_1  and  C_2
REMARK    2  A    between atoms: C_2  and  C_3
REMARK    3  A    between atoms: C_2  and  C_4
REMARK    4  A    between atoms: C_2  and  C_5
REMARK    5  A    between atoms: C_8  and  C_9
REMARK    6  A    between atoms: N_11  and  C_12
REMARK    7  A    between atoms: C_15  and  O_16
REMARK    8  A    between atoms: C_21  and  C_22
REMARK                            x       y       z     vdW  Elec       q    Type
REMARK                         _______ _______ _______ _____ _____    ______ ____
ROOT
ATOM      1  C   UNL     1      -0.325  11.489  21.890  0.00  0.00    +0.000 A 
ATOM      2  C   UNL     1      -1.254  11.002  22.836  0.00  0.00    +0.000 A 
ATOM      3  C   UNL     1      -2.282  11.786  23.351  0.00  0.00    +0.000 A 
ATOM      4  C   UNL     1      -2.389  13.097  22.940  0.00  0.00    +0.000 A 
ATOM      5  C   UNL     1      -1.451  13.625  22.046  0.00  0.00    +0.000 A 
ATOM      6  C   UNL     1      -1.647  14.975  21.509  0.00  0.00    +0.000 A 
ATOM      7  O   UNL     1      -2.382  15.832  21.975  0.00  0.00    +0.000 OA
ATOM      8  C   UNL     1      -0.876  15.299  20.322  0.00  0.00    +0.000 A 
ATOM      9  C   UNL     1       0.257  14.635  20.073  0.00  0.00    +0.000 A 
ATOM     10  O   UNL     1       0.579  13.421  20.703  0.00  0.00    +0.000 OA
ATOM     11  C   UNL     1      -0.379  12.856  21.546  0.00  0.00    +0.000 A 
ENDROOT
BRANCH   9  12
ATOM     12  C   UNL     1       1.209  15.253  19.090  0.00  0.00    +0.000 A 
ATOM     13  C   UNL     1       2.309  14.458  18.648  0.00  0.00    +0.000 A 
ATOM     14  C   UNL     1       3.349  14.959  17.867  0.00  0.00    +0.000 A 
ATOM     15  C   UNL     1       3.293  16.271  17.434  0.00  0.00    +0.000 A 
ATOM     16  C   UNL     1       2.184  17.054  17.760  0.00  0.00    +0.000 A 
ATOM     17  C   UNL     1       1.146  16.557  18.577  0.00  0.00    +0.000 A 
ATOM     18 CL   UNL     1      -0.157  17.643  18.917  0.00  0.00    +0.000 Cl
ENDBRANCH   9  12
BRANCH   1  21
ATOM     19  C   UNL     1       0.314   9.989  20.025  0.00  0.00    +0.000 C 
ATOM     20  O   UNL     1      -0.663  10.276  19.329  0.00  0.00    +0.000 OA
ATOM     21  N   UNL     1       0.585  10.576  21.268  0.00  0.00    +0.000 N 
ATOM     22  H   UNL     1       1.528  10.552  21.635  0.00  0.00    +0.000 HD
BRANCH  19  26
ATOM     23  C   UNL     1       2.991   6.905  18.535  0.00  0.00    +0.000 A 
ATOM     24  C   UNL     1       2.445   6.882  19.821  0.00  0.00    +0.000 A 
ATOM     25  C   UNL     1       1.595   7.898  20.260  0.00  0.00    +0.000 A 
ATOM     26  C   UNL     1       1.254   8.986  19.438  0.00  0.00    +0.000 A 
ATOM     27  C   UNL     1       1.826   9.055  18.171  0.00  0.00    +0.000 A 
ATOM     28  C   UNL     1       2.680   8.024  17.729  0.00  0.00    +0.000 A 
BRANCH  23  30
ATOM     29  C   UNL     1       4.704   6.137  16.766  0.00  0.00    +0.000 C 
ATOM     30  C   UNL     1       3.866   5.751  18.010  0.00  0.00    +0.000 C 
ATOM     31  C   UNL     1       2.994   4.542  17.613  0.00  0.00    +0.000 C 
ATOM     32  C   UNL     1       4.860   5.311  19.106  0.00  0.00    +0.000 C 
ENDBRANCH  23  30
ENDBRANCH  19  26
ENDBRANCH   1  21
BRANCH   4  33
ATOM     33  O   UNL     1      -3.438  13.840  23.392  0.00  0.00    +0.000 OA
ATOM     34  H   UNL     1      -4.261  13.341  23.339  0.00  0.00    +0.000 HD
ENDBRANCH   4  33
TORSDOF 5
ENDMDL
