MODEL 1
REMARK VINA RESULT:      -5.7      0.000      0.000
REMARK  Name = 
REMARK  9 active torsions:
REMARK  status: ('A' for Active; 'I' for Inactive)
REMARK    1  A    between atoms: C_2  and  C_3
REMARK    2  A    between atoms: C_3  and  C_4
REMARK    3  A    between atoms: C_4  and  C_5
REMARK    4  A    between atoms: C_5  and  C_6
REMARK    5  A    between atoms: C_5  and  N_9
REMARK    6  A    between atoms: C_6  and  C_7
REMARK    7  A    between atoms: N_12  and  C_13
REMARK    8  A    between atoms: C_13  and  C_14
REMARK    9  A    between atoms: C_14  and  O_15
REMARK                            x       y       z     vdW  Elec       q    Type
REMARK                         _______ _______ _______ _____ _____    ______ ____
ROOT
ATOM      1  N   UNL     1       4.333   4.748  17.846  0.00  0.00    +0.000 NA
ATOM      2  C   UNL     1       3.035   4.202  17.362  0.00  0.00    +0.000 C 
ATOM      3  C   UNL     1       2.789   2.699  17.658  0.00  0.00    +0.000 C 
ATOM      4  N   UNL     1       2.953   2.300  19.073  0.00  0.00    +0.000 NA
ATOM      5  C   UNL     1       4.239   2.855  19.563  0.00  0.00    +0.000 C 
ATOM      6  C   UNL     1       4.430   4.369  19.281  0.00  0.00    +0.000 C 
ENDROOT
BRANCH   1   7
ATOM      7  C   UNL     1       5.513   4.341  17.020  0.00  0.00    +0.000 C 
BRANCH   7   8
ATOM      8  C   UNL     1       5.371   4.822  15.533  0.00  0.00    +0.000 C 
BRANCH   8   9
ATOM      9  C   UNL     1       6.191   4.033  14.496  0.00  0.00    +0.000 C 
BRANCH   9  11
ATOM     10  N   UNL     1       8.147   5.670  13.389  0.00  0.00    +0.000 NA
ATOM     11  C   UNL     1       7.259   4.928  13.890  0.00  0.00    +0.000 C 
ENDBRANCH   9  11
ENDBRANCH   8   9
ENDBRANCH   7   8
BRANCH   7  12
ATOM     12  C   UNL     1       6.882   4.818  17.596  0.00  0.00    +0.000 C 
BRANCH  12  13
ATOM     13  C   UNL     1       7.186   6.226  17.292  0.00  0.00    +0.000 C 
ATOM     14  N   UNL     1       7.469   7.320  17.032  0.00  0.00    +0.000 NA
ENDBRANCH  12  13
ENDBRANCH   7  12
ENDBRANCH   1   7
BRANCH   4  15
ATOM     15  C   UNL     1       1.837   2.748  19.941  0.00  0.00    +0.000 C 
BRANCH  15  16
ATOM     16  C   UNL     1       1.977   2.322  21.413  0.00  0.00    +0.000 C 
BRANCH  16  17
ATOM     17  O   UNL     1       2.214   3.451  22.245  0.00  0.00    +0.000 OA
ATOM     18  H   UNL     1       1.329   3.804  22.462  0.00  0.00    +0.000 HD
ENDBRANCH  16  17
ENDBRANCH  15  16
ENDBRANCH   4  15
TORSDOF 9
ENDMDL
MODEL 2
REMARK VINA RESULT:      -5.6      1.105      1.145
REMARK  Name = 
REMARK  9 active torsions:
REMARK  status: ('A' for Active; 'I' for Inactive)
REMARK    1  A    between atoms: C_2  and  C_3
REMARK    2  A    between atoms: C_3  and  C_4
REMARK    3  A    between atoms: C_4  and  C_5
REMARK    4  A    between atoms: C_5  and  C_6
REMARK    5  A    between atoms: C_5  and  N_9
REMARK    6  A    between atoms: C_6  and  C_7
REMARK    7  A    between atoms: N_12  and  C_13
REMARK    8  A    between atoms: C_13  and  C_14
REMARK    9  A    between atoms: C_14  and  O_15
REMARK                            x       y       z     vdW  Elec       q    Type
REMARK                         _______ _______ _______ _____ _____    ______ ____
ROOT
ATOM      1  N   UNL     1       4.831   5.029  17.818  0.00  0.00    +0.000 NA
ATOM      2  C   UNL     1       3.434   4.840  17.337  0.00  0.00    +0.000 C 
ATOM      3  C   UNL     1       2.844   3.419  17.537  0.00  0.00    +0.000 C 
ATOM      4  N   UNL     1       2.927   2.891  18.917  0.00  0.00    +0.000 NA
ATOM      5  C   UNL     1       4.313   3.091  19.405  0.00  0.00    +0.000 C 
ATOM      6  C   UNL     1       4.853   4.534  19.221  0.00  0.00    +0.000 C 
ENDROOT
BRANCH   1   7
ATOM      7  C   UNL     1       5.870   4.419  16.932  0.00  0.00    +0.000 C 
BRANCH   7   8
ATOM      8  C   UNL     1       5.454   4.486  15.421  0.00  0.00    +0.000 C 
BRANCH   8   9
ATOM      9  C   UNL     1       6.602   4.331  14.406  0.00  0.00    +0.000 C 
BRANCH   9  11
ATOM     10  N   UNL     1       5.655   3.131  12.083  0.00  0.00    +0.000 NA
ATOM     11  C   UNL     1       6.085   3.676  13.136  0.00  0.00    +0.000 C 
ENDBRANCH   9  11
ENDBRANCH   8   9
ENDBRANCH   7   8
BRANCH   7  12
ATOM     12  C   UNL     1       7.293   5.033  17.111  0.00  0.00    +0.000 C 
BRANCH  12  13
ATOM     13  C   UNL     1       7.292   6.504  17.168  0.00  0.00    +0.000 C 
ATOM     14  N   UNL     1       7.262   7.660  17.253  0.00  0.00    +0.000 NA
ENDBRANCH  12  13
ENDBRANCH   7  12
ENDBRANCH   1   7
BRANCH   4  15
ATOM     15  C   UNL     1       1.959   3.524  19.846  0.00  0.00    +0.000 C 
BRANCH  15  16
ATOM     16  C   UNL     1       1.629   2.672  21.084  0.00  0.00    +0.000 C 
BRANCH  16  17
ATOM     17  O   UNL     1       2.199   3.243  22.256  0.00  0.00    +0.000 OA
ATOM     18  H   UNL     1       3.153   3.036  22.208  0.00  0.00    +0.000 HD
ENDBRANCH  16  17
ENDBRANCH  15  16
ENDBRANCH   4  15
TORSDOF 9
ENDMDL
MODEL 3
REMARK VINA RESULT:      -5.6      1.136      2.850
REMARK  Name = 
REMARK  9 active torsions:
REMARK  status: ('A' for Active; 'I' for Inactive)
REMARK    1  A    between atoms: C_2  and  C_3
REMARK    2  A    between atoms: C_3  and  C_4
REMARK    3  A    between atoms: C_4  and  C_5
REMARK    4  A    between atoms: C_5  and  C_6
REMARK    5  A    between atoms: C_5  and  N_9
REMARK    6  A    between atoms: C_6  and  C_7
REMARK    7  A    between atoms: N_12  and  C_13
REMARK    8  A    between atoms: C_13  and  C_14
REMARK    9  A    between atoms: C_14  and  O_15
REMARK                            x       y       z     vdW  Elec       q    Type
REMARK                         _______ _______ _______ _____ _____    ______ ____
ROOT
ATOM      1  N   UNL     1       4.666   3.573  17.576  0.00  0.00    +0.000 NA
ATOM      2  C   UNL     1       4.695   3.654  19.062  0.00  0.00    +0.000 C 
ATOM      3  C   UNL     1       3.924   4.849  19.683  0.00  0.00    +0.000 C 
ATOM      4  N   UNL     1       2.518   4.987  19.245  0.00  0.00    +0.000 NA
ATOM      5  C   UNL     1       2.483   4.892  17.765  0.00  0.00    +0.000 C 
ATOM      6  C   UNL     1       3.233   3.662  17.186  0.00  0.00    +0.000 C 
ENDROOT
BRANCH   1   7
ATOM      7  C   UNL     1       5.554   4.563  16.892  0.00  0.00    +0.000 C 
BRANCH   7   8
ATOM      8  C   UNL     1       7.051   4.399  17.333  0.00  0.00    +0.000 C 
BRANCH   8   9
ATOM      9  C   UNL     1       7.583   5.474  18.299  0.00  0.00    +0.000 C 
BRANCH   9  11
ATOM     10  N   UNL     1       7.324   7.992  17.148  0.00  0.00    +0.000 NA
ATOM     11  C   UNL     1       7.441   6.851  17.671  0.00  0.00    +0.000 C 
ENDBRANCH   9  11
ENDBRANCH   8   9
ENDBRANCH   7   8
BRANCH   7  12
ATOM     12  C   UNL     1       5.460   4.527  15.335  0.00  0.00    +0.000 C 
BRANCH  12  13
ATOM     13  C   UNL     1       6.676   5.015  14.664  0.00  0.00    +0.000 C 
ATOM     14  N   UNL     1       7.661   5.379  14.173  0.00  0.00    +0.000 NA
ENDBRANCH  12  13
ENDBRANCH   7  12
ENDBRANCH   1   7
BRANCH   4  15
ATOM     15  C   UNL     1       1.615   3.975  19.846  0.00  0.00    +0.000 C 
BRANCH  15  16
ATOM     16  C   UNL     1       1.845   3.742  21.350  0.00  0.00    +0.000 C 
BRANCH  16  17
ATOM     17  O   UNL     1       1.482   2.417  21.717  0.00  0.00    +0.000 OA
ATOM     18  H   UNL     1       0.888   2.514  22.487  0.00  0.00    +0.000 HD
ENDBRANCH  16  17
ENDBRANCH  15  16
ENDBRANCH   4  15
TORSDOF 9
ENDMDL
MODEL 4
REMARK VINA RESULT:      -5.5      2.013      3.469
REMARK  Name = 
REMARK  9 active torsions:
REMARK  status: ('A' for Active; 'I' for Inactive)
REMARK    1  A    between atoms: C_2  and  C_3
REMARK    2  A    between atoms: C_3  and  C_4
REMARK    3  A    between atoms: C_4  and  C_5
REMARK    4  A    between atoms: C_5  and  C_6
REMARK    5  A    between atoms: C_5  and  N_9
REMARK    6  A    between atoms: C_6  and  C_7
REMARK    7  A    between atoms: N_12  and  C_13
REMARK    8  A    between atoms: C_13  and  C_14
REMARK    9  A    between atoms: C_14  and  O_15
REMARK                            x       y       z     vdW  Elec       q    Type
REMARK                         _______ _______ _______ _____ _____    ______ ____
ROOT
ATOM      1  N   UNL     1       5.011   4.456  18.035  0.00  0.00    +0.000 NA
ATOM      2  C   UNL     1       4.225   5.295  18.982  0.00  0.00    +0.000 C 
ATOM      3  C   UNL     1       2.812   5.710  18.494  0.00  0.00    +0.000 C 
ATOM      4  N   UNL     1       1.948   4.596  18.045  0.00  0.00    +0.000 NA
ATOM      5  C   UNL     1       2.732   3.749  17.113  0.00  0.00    +0.000 C 
ATOM      6  C   UNL     1       4.124   3.324  17.653  0.00  0.00    +0.000 C 
ENDROOT
BRANCH   1   7
ATOM      7  C   UNL     1       5.579   5.212  16.876  0.00  0.00    +0.000 C 
BRANCH   7   8
ATOM      8  C   UNL     1       6.151   6.605  17.319  0.00  0.00    +0.000 C 
BRANCH   8   9
ATOM      9  C   UNL     1       7.625   6.609  17.765  0.00  0.00    +0.000 C 
BRANCH   9  11
ATOM     10  N   UNL     1       7.862   5.393  20.255  0.00  0.00    +0.000 NA
ATOM     11  C   UNL     1       7.755   5.945  19.126  0.00  0.00    +0.000 C 
ENDBRANCH   9  11
ENDBRANCH   8   9
ENDBRANCH   7   8
BRANCH   7  12
ATOM     12  C   UNL     1       6.669   4.427  16.083  0.00  0.00    +0.000 C 
BRANCH  12  13
ATOM     13  C   UNL     1       6.285   4.135  14.693  0.00  0.00    +0.000 C 
ATOM     14  N   UNL     1       5.979   3.856  13.610  0.00  0.00    +0.000 NA
ENDBRANCH  12  13
ENDBRANCH   7  12
ENDBRANCH   1   7
BRANCH   4  15
ATOM     15  C   UNL     1       1.421   3.776  19.163  0.00  0.00    +0.000 C 
BRANCH  15  16
ATOM     16  C   UNL     1       0.792   2.442  18.721  0.00  0.00    +0.000 C 
BRANCH  16  17
ATOM     17  O   UNL     1       1.619   1.347  19.096  0.00  0.00    +0.000 OA
ATOM     18  H   UNL     1       1.769   1.450  20.056  0.00  0.00    +0.000 HD
ENDBRANCH  16  17
ENDBRANCH  15  16
ENDBRANCH   4  15
TORSDOF 9
ENDMDL
MODEL 5
REMARK VINA RESULT:      -5.4      1.013      1.270
REMARK  Name = 
REMARK  9 active torsions:
REMARK  status: ('A' for Active; 'I' for Inactive)
REMARK    1  A    between atoms: C_2  and  C_3
REMARK    2  A    between atoms: C_3  and  C_4
REMARK    3  A    between atoms: C_4  and  C_5
REMARK    4  A    between atoms: C_5  and  C_6
REMARK    5  A    between atoms: C_5  and  N_9
REMARK    6  A    between atoms: C_6  and  C_7
REMARK    7  A    between atoms: N_12  and  C_13
REMARK    8  A    between atoms: C_13  and  C_14
REMARK    9  A    between atoms: C_14  and  O_15
REMARK                            x       y       z     vdW  Elec       q    Type
REMARK                         _______ _______ _______ _____ _____    ______ ____
ROOT
ATOM      1  N   UNL     1       3.867   4.427  17.296  0.00  0.00    +0.000 NA
ATOM      2  C   UNL     1       3.840   2.946  17.441  0.00  0.00    +0.000 C 
ATOM      3  C   UNL     1       4.159   2.407  18.860  0.00  0.00    +0.000 C 
ATOM      4  N   UNL     1       3.348   2.988  19.952  0.00  0.00    +0.000 NA
ATOM      5  C   UNL     1       3.360   4.464  19.802  0.00  0.00    +0.000 C 
ATOM      6  C   UNL     1       2.999   4.964  18.378  0.00  0.00    +0.000 C 
ENDROOT
BRANCH   1   7
ATOM      7  C   UNL     1       5.243   5.013  17.262  0.00  0.00    +0.000 C 
BRANCH   7   8
ATOM      8  C   UNL     1       6.183   4.225  16.283  0.00  0.00    +0.000 C 
BRANCH   8   9
ATOM      9  C   UNL     1       5.877   4.395  14.783  0.00  0.00    +0.000 C 
BRANCH   9  11
ATOM     10  N   UNL     1       8.061   5.536  13.495  0.00  0.00    +0.000 NA
ATOM     11  C   UNL     1       7.070   5.018  14.078  0.00  0.00    +0.000 C 
ENDBRANCH   9  11
ENDBRANCH   8   9
ENDBRANCH   7   8
BRANCH   7  12
ATOM     12  C   UNL     1       5.274   6.532  16.908  0.00  0.00    +0.000 C 
BRANCH  12  13
ATOM     13  C   UNL     1       6.589   7.157  17.128  0.00  0.00    +0.000 C 
ATOM     14  N   UNL     1       7.601   7.689  17.322  0.00  0.00    +0.000 NA
ENDBRANCH  12  13
ENDBRANCH   7  12
ENDBRANCH   1   7
BRANCH   4  15
ATOM     15  C   UNL     1       1.952   2.486  19.976  0.00  0.00    +0.000 C 
BRANCH  15  16
ATOM     16  C   UNL     1       1.101   3.054  21.125  0.00  0.00    +0.000 C 
BRANCH  16  17
ATOM     17  O   UNL     1       1.455   2.450  22.363  0.00  0.00    +0.000 OA
ATOM     18  H   UNL     1       0.819   2.802  23.016  0.00  0.00    +0.000 HD
ENDBRANCH  16  17
ENDBRANCH  15  16
ENDBRANCH   4  15
TORSDOF 9
ENDMDL
MODEL 6
REMARK VINA RESULT:      -5.4      0.921      1.029
REMARK  Name = 
REMARK  9 active torsions:
REMARK  status: ('A' for Active; 'I' for Inactive)
REMARK    1  A    between atoms: C_2  and  C_3
REMARK    2  A    between atoms: C_3  and  C_4
REMARK    3  A    between atoms: C_4  and  C_5
REMARK    4  A    between atoms: C_5  and  C_6
REMARK    5  A    between atoms: C_5  and  N_9
REMARK    6  A    between atoms: C_6  and  C_7
REMARK    7  A    between atoms: N_12  and  C_13
REMARK    8  A    between atoms: C_13  and  C_14
REMARK    9  A    between atoms: C_14  and  O_15
REMARK                            x       y       z     vdW  Elec       q    Type
REMARK                         _______ _______ _______ _____ _____    ______ ____
ROOT
ATOM      1  N   UNL     1       4.633   4.496  18.406  0.00  0.00    +0.000 NA
ATOM      2  C   UNL     1       3.255   4.340  17.863  0.00  0.00    +0.000 C 
ATOM      3  C   UNL     1       2.815   2.882  17.565  0.00  0.00    +0.000 C 
ATOM      4  N   UNL     1       2.974   1.934  18.690  0.00  0.00    +0.000 NA
ATOM      5  C   UNL     1       4.341   2.097  19.243  0.00  0.00    +0.000 C 
ATOM      6  C   UNL     1       4.728   3.566  19.563  0.00  0.00    +0.000 C 
ENDROOT
BRANCH   1   7
ATOM      7  C   UNL     1       5.715   4.326  17.387  0.00  0.00    +0.000 C 
BRANCH   7   8
ATOM      8  C   UNL     1       5.288   4.898  15.989  0.00  0.00    +0.000 C 
BRANCH   8   9
ATOM      9  C   UNL     1       5.818   4.130  14.764  0.00  0.00    +0.000 C 
BRANCH   9  11
ATOM     10  N   UNL     1       7.945   5.515  13.627  0.00  0.00    +0.000 NA
ATOM     11  C   UNL     1       6.981   4.886  14.143  0.00  0.00    +0.000 C 
ENDBRANCH   9  11
ENDBRANCH   8   9
ENDBRANCH   7   8
BRANCH   7  12
ATOM     12  C   UNL     1       7.083   4.943  17.809  0.00  0.00    +0.000 C 
BRANCH  12  13
ATOM     13  C   UNL     1       7.238   6.351  17.409  0.00  0.00    +0.000 C 
ATOM     14  N   UNL     1       7.410   7.453  17.092  0.00  0.00    +0.000 NA
ENDBRANCH  12  13
ENDBRANCH   7  12
ENDBRANCH   1   7
BRANCH   4  15
ATOM     15  C   UNL     1       1.962   2.118  19.759  0.00  0.00    +0.000 C 
BRANCH  15  16
ATOM     16  C   UNL     1       0.709   2.890  19.310  0.00  0.00    +0.000 C 
BRANCH  16  17
ATOM     17  O   UNL     1       0.364   3.888  20.263  0.00  0.00    +0.000 OA
ATOM     18  H   UNL     1      -0.462   4.292  19.929  0.00  0.00    +0.000 HD
ENDBRANCH  16  17
ENDBRANCH  15  16
ENDBRANCH   4  15
TORSDOF 9
ENDMDL
MODEL 7
REMARK VINA RESULT:      -5.4      1.565      3.314
REMARK  Name = 
REMARK  9 active torsions:
REMARK  status: ('A' for Active; 'I' for Inactive)
REMARK    1  A    between atoms: C_2  and  C_3
REMARK    2  A    between atoms: C_3  and  C_4
REMARK    3  A    between atoms: C_4  and  C_5
REMARK    4  A    between atoms: C_5  and  C_6
REMARK    5  A    between atoms: C_5  and  N_9
REMARK    6  A    between atoms: C_6  and  C_7
REMARK    7  A    between atoms: N_12  and  C_13
REMARK    8  A    between atoms: C_13  and  C_14
REMARK    9  A    between atoms: C_14  and  O_15
REMARK                            x       y       z     vdW  Elec       q    Type
REMARK                         _______ _______ _______ _____ _____    ______ ____
ROOT
ATOM      1  N   UNL     1       4.889   3.626  17.996  0.00  0.00    +0.000 NA
ATOM      2  C   UNL     1       4.782   4.107  19.401  0.00  0.00    +0.000 C 
ATOM      3  C   UNL     1       3.678   5.166  19.664  0.00  0.00    +0.000 C 
ATOM      4  N   UNL     1       2.323   4.791  19.203  0.00  0.00    +0.000 NA
ATOM      5  C   UNL     1       2.428   4.297  17.808  0.00  0.00    +0.000 C 
ATOM      6  C   UNL     1       3.518   3.212  17.596  0.00  0.00    +0.000 C 
ENDROOT
BRANCH   1   7
ATOM      7  C   UNL     1       5.536   4.602  17.064  0.00  0.00    +0.000 C 
BRANCH   7   8
ATOM      8  C   UNL     1       7.070   4.751  17.356  0.00  0.00    +0.000 C 
BRANCH   8   9
ATOM      9  C   UNL     1       7.484   6.023  18.120  0.00  0.00    +0.000 C 
BRANCH   9  11
ATOM     10  N   UNL     1       8.150   5.376  20.741  0.00  0.00    +0.000 NA
ATOM     11  C   UNL     1       7.847   5.670  19.553  0.00  0.00    +0.000 C 
ENDBRANCH   9  11
ENDBRANCH   8   9
ENDBRANCH   7   8
BRANCH   7  12
ATOM     12  C   UNL     1       5.319   4.273  15.555  0.00  0.00    +0.000 C 
BRANCH  12  13
ATOM     13  C   UNL     1       6.411   4.748  14.690  0.00  0.00    +0.000 C 
ATOM     14  N   UNL     1       7.243   5.160  13.996  0.00  0.00    +0.000 NA
ENDBRANCH  12  13
ENDBRANCH   7  12
ENDBRANCH   1   7
BRANCH   4  15
ATOM     15  C   UNL     1       1.675   3.769  20.062  0.00  0.00    +0.000 C 
BRANCH  15  16
ATOM     16  C   UNL     1       2.102   3.827  21.539  0.00  0.00    +0.000 C 
BRANCH  16  17
ATOM     17  O   UNL     1       2.643   2.580  21.958  0.00  0.00    +0.000 OA
ATOM     18  H   UNL     1       2.057   1.900  21.571  0.00  0.00    +0.000 HD
ENDBRANCH  16  17
ENDBRANCH  15  16
ENDBRANCH   4  15
TORSDOF 9
ENDMDL
MODEL 8
REMARK VINA RESULT:      -5.3      1.100      1.146
REMARK  Name = 
REMARK  9 active torsions:
REMARK  status: ('A' for Active; 'I' for Inactive)
REMARK    1  A    between atoms: C_2  and  C_3
REMARK    2  A    between atoms: C_3  and  C_4
REMARK    3  A    between atoms: C_4  and  C_5
REMARK    4  A    between atoms: C_5  and  C_6
REMARK    5  A    between atoms: C_5  and  N_9
REMARK    6  A    between atoms: C_6  and  C_7
REMARK    7  A    between atoms: N_12  and  C_13
REMARK    8  A    between atoms: C_13  and  C_14
REMARK    9  A    between atoms: C_14  and  O_15
REMARK                            x       y       z     vdW  Elec       q    Type
REMARK                         _______ _______ _______ _____ _____    ______ ____
ROOT
ATOM      1  N   UNL     1       4.923   4.774  18.351  0.00  0.00    +0.000 NA
ATOM      2  C   UNL     1       3.577   5.277  17.962  0.00  0.00    +0.000 C 
ATOM      3  C   UNL     1       2.530   4.186  17.612  0.00  0.00    +0.000 C 
ATOM      4  N   UNL     1       2.348   3.136  18.638  0.00  0.00    +0.000 NA
ATOM      5  C   UNL     1       3.688   2.643  19.039  0.00  0.00    +0.000 C 
ATOM      6  C   UNL     1       4.694   3.763  19.417  0.00  0.00    +0.000 C 
ENDROOT
BRANCH   1   7
ATOM      7  C   UNL     1       5.747   4.283  17.203  0.00  0.00    +0.000 C 
BRANCH   7   8
ATOM      8  C   UNL     1       5.271   4.904  15.842  0.00  0.00    +0.000 C 
BRANCH   8   9
ATOM      9  C   UNL     1       5.786   4.201  14.572  0.00  0.00    +0.000 C 
BRANCH   9  11
ATOM     10  N   UNL     1       7.983   5.570  13.556  0.00  0.00    +0.000 NA
ATOM     11  C   UNL     1       6.986   4.950  14.016  0.00  0.00    +0.000 C 
ENDBRANCH   9  11
ENDBRANCH   8   9
ENDBRANCH   7   8
BRANCH   7  12
ATOM     12  C   UNL     1       7.279   4.519  17.378  0.00  0.00    +0.000 C 
BRANCH  12  13
ATOM     13  C   UNL     1       7.630   5.161  18.655  0.00  0.00    +0.000 C 
ATOM     14  N   UNL     1       7.864   5.649  19.680  0.00  0.00    +0.000 NA
ENDBRANCH  12  13
ENDBRANCH   7  12
ENDBRANCH   1   7
BRANCH   4  15
ATOM     15  C   UNL     1       1.596   3.604  19.828  0.00  0.00    +0.000 C 
BRANCH  15  16
ATOM     16  C   UNL     1       1.590   2.606  20.999  0.00  0.00    +0.000 C 
BRANCH  16  17
ATOM     17  O   UNL     1       2.151   3.193  22.167  0.00  0.00    +0.000 OA
ATOM     18  H   UNL     1       2.317   4.128  21.933  0.00  0.00    +0.000 HD
ENDBRANCH  16  17
ENDBRANCH  15  16
ENDBRANCH   4  15
TORSDOF 9
ENDMDL
MODEL 9
REMARK VINA RESULT:      -5.2      1.769      3.174
REMARK  Name = 
REMARK  9 active torsions:
REMARK  status: ('A' for Active; 'I' for Inactive)
REMARK    1  A    between atoms: C_2  and  C_3
REMARK    2  A    between atoms: C_3  and  C_4
REMARK    3  A    between atoms: C_4  and  C_5
REMARK    4  A    between atoms: C_5  and  C_6
REMARK    5  A    between atoms: C_5  and  N_9
REMARK    6  A    between atoms: C_6  and  C_7
REMARK    7  A    between atoms: N_12  and  C_13
REMARK    8  A    between atoms: C_13  and  C_14
REMARK    9  A    between atoms: C_14  and  O_15
REMARK                            x       y       z     vdW  Elec       q    Type
REMARK                         _______ _______ _______ _____ _____    ______ ____
ROOT
ATOM      1  N   UNL     1       5.224   4.338  18.781  0.00  0.00    +0.000 NA
ATOM      2  C   UNL     1       4.268   5.310  19.380  0.00  0.00    +0.000 C 
ATOM      3  C   UNL     1       3.026   5.647  18.515  0.00  0.00    +0.000 C 
ATOM      4  N   UNL     1       2.252   4.478  18.040  0.00  0.00    +0.000 NA
ATOM      5  C   UNL     1       3.203   3.501  17.456  0.00  0.00    +0.000 C 
ATOM      6  C   UNL     1       4.412   3.162  18.368  0.00  0.00    +0.000 C 
ENDROOT
BRANCH   1   7
ATOM      7  C   UNL     1       6.077   4.911  17.693  0.00  0.00    +0.000 C 
BRANCH   7   8
ATOM      8  C   UNL     1       7.583   5.000  18.125  0.00  0.00    +0.000 C 
BRANCH   8   9
ATOM      9  C   UNL     1       7.973   6.256  18.927  0.00  0.00    +0.000 C 
BRANCH   9  11
ATOM     10  N   UNL     1       7.735   8.514  17.320  0.00  0.00    +0.000 NA
ATOM     11  C   UNL     1       7.843   7.491  18.050  0.00  0.00    +0.000 C 
ENDBRANCH   9  11
ENDBRANCH   8   9
ENDBRANCH   7   8
BRANCH   7  12
ATOM     12  C   UNL     1       5.966   4.150  16.337  0.00  0.00    +0.000 C 
BRANCH  12  13
ATOM     13  C   UNL     1       6.823   4.710  15.279  0.00  0.00    +0.000 C 
ATOM     14  N   UNL     1       7.514   5.186  14.479  0.00  0.00    +0.000 NA
ENDBRANCH  12  13
ENDBRANCH   7  12
ENDBRANCH   1   7
BRANCH   4  15
ATOM     15  C   UNL     1       1.448   3.836  19.108  0.00  0.00    +0.000 C 
BRANCH  15  16
ATOM     16  C   UNL     1       1.398   2.300  19.019  0.00  0.00    +0.000 C 
BRANCH  16  17
ATOM     17  O   UNL     1       0.220   1.872  18.348  0.00  0.00    +0.000 OA
ATOM     18  H   UNL     1      -0.318   1.422  19.029  0.00  0.00    +0.000 HD
ENDBRANCH  16  17
ENDBRANCH  15  16
ENDBRANCH   4  15
TORSDOF 9
ENDMDL
