MODEL 1
REMARK VINA RESULT:      -7.5      0.000      0.000
REMARK  Name = 
REMARK  7 active torsions:
REMARK  status: ('A' for Active; 'I' for Inactive)
REMARK    1  A    between atoms: C_1  and  C_2
REMARK    2  A    between atoms: C_2  and  C_3
REMARK    3  A    between atoms: C_2  and  C_4
REMARK    4  A    between atoms: C_2  and  O_5
REMARK    5  A    between atoms: O_5  and  C_6
REMARK    6  A    between atoms: C_14  and  N_15
REMARK    7  A    between atoms: C_16  and  C_18
REMARK                            x       y       z     vdW  Elec       q    Type
REMARK                         _______ _______ _______ _____ _____    ______ ____
ROOT
ATOM      1  C   UNL     1      -1.628  12.161  21.079  0.00  0.00    +0.000 C 
ATOM      2  O   UNL     1      -1.176  12.673  20.063  0.00  0.00    +0.000 OA
ATOM      3  N   UNL     1      -1.131  11.069  21.726  0.00  0.00    +0.000 N 
ATOM      4  C   UNL     1      -0.191  10.213  21.202  0.00  0.00    +0.000 A 
ATOM      5  N   UNL     1       0.039   9.036  21.729  0.00  0.00    +0.000 NA
ATOM      6  C   UNL     1       0.890   8.316  20.901  0.00  0.00    +0.000 A 
ATOM      7  C   UNL     1       1.289   6.984  21.083  0.00  0.00    +0.000 A 
ATOM      8  C   UNL     1       2.128   6.371  20.140  0.00  0.00    +0.000 A 
ATOM      9  C   UNL     1       2.598   7.058  19.019  0.00  0.00    +0.000 A 
ATOM     10  C   UNL     1       2.216   8.394  18.831  0.00  0.00    +0.000 A 
ATOM     11  C   UNL     1       1.361   8.996  19.778  0.00  0.00    +0.000 A 
ATOM     12  S   UNL     1       0.715  10.583  19.802  0.00  0.00    +0.000 S 
ATOM     13  H   UNL     1      -1.628  10.732  22.535  0.00  0.00    +0.000 HD
ENDROOT
BRANCH   9  14
ATOM     14  N   UNL     1       3.451   6.477  18.048  0.00  0.00    +0.000 N 
ATOM     15  C   UNL     1       4.618   5.768  18.297  0.00  0.00    +0.000 C 
ATOM     16  O   UNL     1       5.080   5.534  19.407  0.00  0.00    +0.000 OA
ATOM     17  H   UNL     1       3.117   6.502  17.091  0.00  0.00    +0.000 HD
BRANCH  15  18
ATOM     18  C   UNL     1       5.347   5.200  17.122  0.00  0.00    +0.000 A 
ATOM     19  C   UNL     1       4.761   4.147  16.388  0.00  0.00    +0.000 A 
ATOM     20 CL   UNL     1       3.354   3.275  16.906  0.00  0.00    +0.000 Cl
ATOM     21  C   UNL     1       5.331   3.707  15.184  0.00  0.00    +0.000 A 
ATOM     22  C   UNL     1       6.497   4.289  14.702  0.00  0.00    +0.000 A 
ATOM     23  C   UNL     1       7.108   5.303  15.434  0.00  0.00    +0.000 A 
ATOM     24  C   UNL     1       6.540   5.761  16.634  0.00  0.00    +0.000 A 
ATOM     25 CL   UNL     1       7.387   7.055  17.414  0.00  0.00    +0.000 Cl
ENDBRANCH  15  18
ENDBRANCH   9  14
BRANCH   1  26
ATOM     26  O   UNL     1      -2.774  12.588  21.680  0.00  0.00    +0.000 OA
BRANCH  26  28
ATOM     27  C   UNL     1      -1.171  13.749  23.139  0.00  0.00    +0.000 C 
ATOM     28  C   UNL     1      -2.651  13.550  22.769  0.00  0.00    +0.000 C 
ATOM     29  C   UNL     1      -3.507  13.152  23.982  0.00  0.00    +0.000 C 
ATOM     30  C   UNL     1      -3.180  14.893  22.240  0.00  0.00    +0.000 C 
ENDBRANCH  26  28
ENDBRANCH   1  26
TORSDOF 4
ENDMDL
MODEL 2
REMARK VINA RESULT:      -7.5      4.951      9.953
REMARK  Name = 
REMARK  7 active torsions:
REMARK  status: ('A' for Active; 'I' for Inactive)
REMARK    1  A    between atoms: C_1  and  C_2
REMARK    2  A    between atoms: C_2  and  C_3
REMARK    3  A    between atoms: C_2  and  C_4
REMARK    4  A    between atoms: C_2  and  O_5
REMARK    5  A    between atoms: O_5  and  C_6
REMARK    6  A    between atoms: C_14  and  N_15
REMARK    7  A    between atoms: C_16  and  C_18
REMARK                            x       y       z     vdW  Elec       q    Type
REMARK                         _______ _______ _______ _____ _____    ______ ____
ROOT
ATOM      1  C   UNL     1       2.812   6.254  19.522  0.00  0.00    +0.000 C 
ATOM      2  O   UNL     1       3.110   6.573  18.379  0.00  0.00    +0.000 OA
ATOM      3  N   UNL     1       1.971   6.926  20.358  0.00  0.00    +0.000 N 
ATOM      4  C   UNL     1       1.517   8.206  20.144  0.00  0.00    +0.000 A 
ATOM      5  N   UNL     1       0.955   8.907  21.098  0.00  0.00    +0.000 NA
ATOM      6  C   UNL     1       0.767  10.212  20.663  0.00  0.00    +0.000 A 
ATOM      7  C   UNL     1       0.279  11.278  21.434  0.00  0.00    +0.000 A 
ATOM      8  C   UNL     1       0.176  12.558  20.870  0.00  0.00    +0.000 A 
ATOM      9  C   UNL     1       0.532  12.807  19.544  0.00  0.00    +0.000 A 
ATOM     10  C   UNL     1       1.011  11.748  18.758  0.00  0.00    +0.000 A 
ATOM     11  C   UNL     1       1.124  10.468  19.340  0.00  0.00    +0.000 A 
ATOM     12  S   UNL     1       1.690   9.008  18.645  0.00  0.00    +0.000 S 
ATOM     13  H   UNL     1       1.844   6.566  21.291  0.00  0.00    +0.000 HD
ENDROOT
BRANCH   9  14
ATOM     14  N   UNL     1       0.437  14.084  18.936  0.00  0.00    +0.000 N 
ATOM     15  C   UNL     1       1.116  15.232  19.323  0.00  0.00    +0.000 C 
ATOM     16  O   UNL     1       1.910  15.303  20.253  0.00  0.00    +0.000 OA
ATOM     17  H   UNL     1      -0.104  14.130  18.080  0.00  0.00    +0.000 HD
BRANCH  15  18
ATOM     18  C   UNL     1       0.901  16.469  18.513  0.00  0.00    +0.000 A 
ATOM     19  C   UNL     1       1.907  16.893  17.619  0.00  0.00    +0.000 A 
ATOM     20 CL   UNL     1       3.505  16.221  17.575  0.00  0.00    +0.000 Cl
ATOM     21  C   UNL     1       1.673  17.945  16.721  0.00  0.00    +0.000 A 
ATOM     22  C   UNL     1       0.449  18.603  16.710  0.00  0.00    +0.000 A 
ATOM     23  C   UNL     1      -0.541  18.221  17.611  0.00  0.00    +0.000 A 
ATOM     24  C   UNL     1      -0.323  17.161  18.506  0.00  0.00    +0.000 A 
ATOM     25 CL   UNL     1      -1.657  16.770  19.539  0.00  0.00    +0.000 Cl
ENDBRANCH  15  18
ENDBRANCH   9  14
BRANCH   1  26
ATOM     26  O   UNL     1       3.359   5.182  20.161  0.00  0.00    +0.000 OA
BRANCH  26  28
ATOM     27  C   UNL     1       3.759   2.830  19.562  0.00  0.00    +0.000 C 
ATOM     28  C   UNL     1       2.719   3.884  19.977  0.00  0.00    +0.000 C 
ATOM     29  C   UNL     1       1.542   3.963  18.992  0.00  0.00    +0.000 C 
ATOM     30  C   UNL     1       2.158   3.466  21.347  0.00  0.00    +0.000 C 
ENDBRANCH  26  28
ENDBRANCH   1  26
TORSDOF 4
ENDMDL
MODEL 3
REMARK VINA RESULT:      -7.5      4.390     11.113
REMARK  Name = 
REMARK  7 active torsions:
REMARK  status: ('A' for Active; 'I' for Inactive)
REMARK    1  A    between atoms: C_1  and  C_2
REMARK    2  A    between atoms: C_2  and  C_3
REMARK    3  A    between atoms: C_2  and  C_4
REMARK    4  A    between atoms: C_2  and  O_5
REMARK    5  A    between atoms: O_5  and  C_6
REMARK    6  A    between atoms: C_14  and  N_15
REMARK    7  A    between atoms: C_16  and  C_18
REMARK                            x       y       z     vdW  Elec       q    Type
REMARK                         _______ _______ _______ _____ _____    ______ ____
ROOT
ATOM      1  C   UNL     1       2.718   8.019  18.138  0.00  0.00    +0.000 C 
ATOM      2  O   UNL     1       2.289   8.835  17.333  0.00  0.00    +0.000 OA
ATOM      3  N   UNL     1       2.208   7.756  19.374  0.00  0.00    +0.000 N 
ATOM      4  C   UNL     1       1.283   8.541  20.020  0.00  0.00    +0.000 A 
ATOM      5  N   UNL     1       1.042   8.412  21.301  0.00  0.00    +0.000 NA
ATOM      6  C   UNL     1       0.213   9.443  21.723  0.00  0.00    +0.000 A 
ATOM      7  C   UNL     1      -0.187   9.694  23.044  0.00  0.00    +0.000 A 
ATOM      8  C   UNL     1      -1.002  10.800  23.328  0.00  0.00    +0.000 A 
ATOM      9  C   UNL     1      -1.447  11.661  22.324  0.00  0.00    +0.000 A 
ATOM     10  C   UNL     1      -1.064  11.416  20.997  0.00  0.00    +0.000 A 
ATOM     11  C   UNL     1      -0.233  10.309  20.725  0.00  0.00    +0.000 A 
ATOM     12  S   UNL     1       0.409   9.778  19.228  0.00  0.00    +0.000 S 
ATOM     13  H   UNL     1       2.687   7.080  19.948  0.00  0.00    +0.000 HD
ENDROOT
BRANCH   9  14
ATOM     14  N   UNL     1      -2.276  12.785  22.570  0.00  0.00    +0.000 N 
ATOM     15  C   UNL     1      -3.391  12.820  23.395  0.00  0.00    +0.000 C 
ATOM     16  O   UNL     1      -3.820  11.873  24.043  0.00  0.00    +0.000 OA
ATOM     17  H   UNL     1      -1.959  13.665  22.179  0.00  0.00    +0.000 HD
BRANCH  15  18
ATOM     18  C   UNL     1      -4.100  14.127  23.547  0.00  0.00    +0.000 A 
ATOM     19  C   UNL     1      -5.344  14.317  22.908  0.00  0.00    +0.000 A 
ATOM     20 CL   UNL     1      -6.001  13.226  21.731  0.00  0.00    +0.000 Cl
ATOM     21  C   UNL     1      -6.116  15.459  23.167  0.00  0.00    +0.000 A 
ATOM     22  C   UNL     1      -5.659  16.435  24.044  0.00  0.00    +0.000 A 
ATOM     23  C   UNL     1      -4.418  16.280  24.654  0.00  0.00    +0.000 A 
ATOM     24  C   UNL     1      -3.641  15.135  24.413  0.00  0.00    +0.000 A 
ATOM     25 CL   UNL     1      -2.139  15.058  25.272  0.00  0.00    +0.000 Cl
ENDBRANCH  15  18
ENDBRANCH   9  14
BRANCH   1  26
ATOM     26  O   UNL     1       3.848   7.289  17.924  0.00  0.00    +0.000 OA
BRANCH  26  28
ATOM     27  C   UNL     1       2.290   5.386  17.903  0.00  0.00    +0.000 C 
ATOM     28  C   UNL     1       3.753   5.838  18.050  0.00  0.00    +0.000 C 
ATOM     29  C   UNL     1       4.392   5.335  19.354  0.00  0.00    +0.000 C 
ATOM     30  C   UNL     1       4.543   5.236  16.876  0.00  0.00    +0.000 C 
ENDBRANCH  26  28
ENDBRANCH   1  26
TORSDOF 4
ENDMDL
MODEL 4
REMARK VINA RESULT:      -7.5      0.700      1.189
REMARK  Name = 
REMARK  7 active torsions:
REMARK  status: ('A' for Active; 'I' for Inactive)
REMARK    1  A    between atoms: C_1  and  C_2
REMARK    2  A    between atoms: C_2  and  C_3
REMARK    3  A    between atoms: C_2  and  C_4
REMARK    4  A    between atoms: C_2  and  O_5
REMARK    5  A    between atoms: O_5  and  C_6
REMARK    6  A    between atoms: C_14  and  N_15
REMARK    7  A    between atoms: C_16  and  C_18
REMARK                            x       y       z     vdW  Elec       q    Type
REMARK                         _______ _______ _______ _____ _____    ______ ____
ROOT
ATOM      1  C   UNL     1      -2.010  12.508  20.278  0.00  0.00    +0.000 C 
ATOM      2  O   UNL     1      -1.643  12.877  19.171  0.00  0.00    +0.000 OA
ATOM      3  N   UNL     1      -1.395  11.584  21.069  0.00  0.00    +0.000 N 
ATOM      4  C   UNL     1      -0.404  10.730  20.645  0.00  0.00    +0.000 A 
ATOM      5  N   UNL     1      -0.052   9.681  21.346  0.00  0.00    +0.000 NA
ATOM      6  C   UNL     1       0.827   8.903  20.604  0.00  0.00    +0.000 A 
ATOM      7  C   UNL     1       1.348   7.656  20.981  0.00  0.00    +0.000 A 
ATOM      8  C   UNL     1       2.201   6.964  20.110  0.00  0.00    +0.000 A 
ATOM      9  C   UNL     1       2.567   7.488  18.869  0.00  0.00    +0.000 A 
ATOM     10  C   UNL     1       2.063   8.739  18.484  0.00  0.00    +0.000 A 
ATOM     11  C   UNL     1       1.194   9.420  19.362  0.00  0.00    +0.000 A 
ATOM     12  S   UNL     1       0.413  10.931  19.158  0.00  0.00    +0.000 S 
ATOM     13  H   UNL     1      -1.830  11.349  21.947  0.00  0.00    +0.000 HD
ENDROOT
BRANCH   9  14
ATOM     14  N   UNL     1       3.431   6.822  17.963  0.00  0.00    +0.000 N 
ATOM     15  C   UNL     1       4.413   5.898  18.292  0.00  0.00    +0.000 C 
ATOM     16  O   UNL     1       4.672   5.515  19.427  0.00  0.00    +0.000 OA
ATOM     17  H   UNL     1       3.240   6.968  16.979  0.00  0.00    +0.000 HD
BRANCH  15  18
ATOM     18  C   UNL     1       5.185   5.280  17.172  0.00  0.00    +0.000 A 
ATOM     19  C   UNL     1       4.631   4.190  16.468  0.00  0.00    +0.000 A 
ATOM     20 CL   UNL     1       3.212   3.333  16.978  0.00  0.00    +0.000 Cl
ATOM     21  C   UNL     1       5.245   3.698  15.307  0.00  0.00    +0.000 A 
ATOM     22  C   UNL     1       6.424   4.264  14.839  0.00  0.00    +0.000 A 
ATOM     23  C   UNL     1       7.003   5.316  15.543  0.00  0.00    +0.000 A 
ATOM     24  C   UNL     1       6.391   5.826  16.699  0.00  0.00    +0.000 A 
ATOM     25 CL   UNL     1       7.203   7.162  17.446  0.00  0.00    +0.000 Cl
ENDBRANCH  15  18
ENDBRANCH   9  14
BRANCH   1  26
ATOM     26  O   UNL     1      -3.166  12.937  20.859  0.00  0.00    +0.000 OA
BRANCH  26  28
ATOM     27  C   UNL     1      -4.431  14.902  21.626  0.00  0.00    +0.000 C 
ATOM     28  C   UNL     1      -3.102  14.130  21.697  0.00  0.00    +0.000 C 
ATOM     29  C   UNL     1      -1.894  15.012  21.343  0.00  0.00    +0.000 C 
ATOM     30  C   UNL     1      -2.924  13.647  23.146  0.00  0.00    +0.000 C 
ENDBRANCH  26  28
ENDBRANCH   1  26
TORSDOF 4
ENDMDL
MODEL 5
REMARK VINA RESULT:      -7.3      4.741     10.257
REMARK  Name = 
REMARK  7 active torsions:
REMARK  status: ('A' for Active; 'I' for Inactive)
REMARK    1  A    between atoms: C_1  and  C_2
REMARK    2  A    between atoms: C_2  and  C_3
REMARK    3  A    between atoms: C_2  and  C_4
REMARK    4  A    between atoms: C_2  and  O_5
REMARK    5  A    between atoms: O_5  and  C_6
REMARK    6  A    between atoms: C_14  and  N_15
REMARK    7  A    between atoms: C_16  and  C_18
REMARK                            x       y       z     vdW  Elec       q    Type
REMARK                         _______ _______ _______ _____ _____    ______ ____
ROOT
ATOM      1  C   UNL     1       3.261   6.310  18.637  0.00  0.00    +0.000 C 
ATOM      2  O   UNL     1       3.500   6.781  17.534  0.00  0.00    +0.000 OA
ATOM      3  N   UNL     1       2.386   6.805  19.558  0.00  0.00    +0.000 N 
ATOM      4  C   UNL     1       1.817   8.056  19.499  0.00  0.00    +0.000 A 
ATOM      5  N   UNL     1       1.221   8.591  20.535  0.00  0.00    +0.000 NA
ATOM      6  C   UNL     1       0.908   9.915  20.256  0.00  0.00    +0.000 A 
ATOM      7  C   UNL     1       0.349  10.839  21.152  0.00  0.00    +0.000 A 
ATOM      8  C   UNL     1       0.120  12.160  20.739  0.00  0.00    +0.000 A 
ATOM      9  C   UNL     1       0.419  12.587  19.445  0.00  0.00    +0.000 A 
ATOM     10  C   UNL     1       0.968  11.672  18.535  0.00  0.00    +0.000 A 
ATOM     11  C   UNL     1       1.207  10.350  18.965  0.00  0.00    +0.000 A 
ATOM     12  S   UNL     1       1.880   9.034  18.099  0.00  0.00    +0.000 S 
ATOM     13  H   UNL     1       2.316   6.333  20.445  0.00  0.00    +0.000 HD
ENDROOT
BRANCH   9  14
ATOM     14  N   UNL     1       0.197  13.911  18.989  0.00  0.00    +0.000 N 
ATOM     15  C   UNL     1       0.788  15.064  19.488  0.00  0.00    +0.000 C 
ATOM     16  O   UNL     1       1.603  15.100  20.402  0.00  0.00    +0.000 OA
ATOM     17  H   UNL     1      -0.374  14.005  18.156  0.00  0.00    +0.000 HD
BRANCH  15  18
ATOM     18  C   UNL     1       0.444  16.360  18.830  0.00  0.00    +0.000 A 
ATOM     19  C   UNL     1       1.343  16.922  17.898  0.00  0.00    +0.000 A 
ATOM     20 CL   UNL     1       2.959  16.344  17.646  0.00  0.00    +0.000 Cl
ATOM     21  C   UNL     1       0.979  18.042  17.135  0.00  0.00    +0.000 A 
ATOM     22  C   UNL     1      -0.269  18.631  17.299  0.00  0.00    +0.000 A 
ATOM     23  C   UNL     1      -1.152  18.111  18.240  0.00  0.00    +0.000 A 
ATOM     24  C   UNL     1      -0.804  16.983  19.001  0.00  0.00    +0.000 A 
ATOM     25 CL   UNL     1      -2.018  16.423  20.103  0.00  0.00    +0.000 Cl
ENDBRANCH  15  18
ENDBRANCH   9  14
BRANCH   1  26
ATOM     26  O   UNL     1       3.916   5.226  19.140  0.00  0.00    +0.000 OA
BRANCH  26  28
ATOM     27  C   UNL     1       4.635   3.814  17.259  0.00  0.00    +0.000 C 
ATOM     28  C   UNL     1       3.708   3.942  18.480  0.00  0.00    +0.000 C 
ATOM     29  C   UNL     1       2.231   3.719  18.117  0.00  0.00    +0.000 C 
ATOM     30  C   UNL     1       4.115   2.852  19.486  0.00  0.00    +0.000 C 
ENDBRANCH  26  28
ENDBRANCH   1  26
TORSDOF 4
ENDMDL
MODEL 6
REMARK VINA RESULT:      -7.3      4.784      9.792
REMARK  Name = 
REMARK  7 active torsions:
REMARK  status: ('A' for Active; 'I' for Inactive)
REMARK    1  A    between atoms: C_1  and  C_2
REMARK    2  A    between atoms: C_2  and  C_3
REMARK    3  A    between atoms: C_2  and  C_4
REMARK    4  A    between atoms: C_2  and  O_5
REMARK    5  A    between atoms: O_5  and  C_6
REMARK    6  A    between atoms: C_14  and  N_15
REMARK    7  A    between atoms: C_16  and  C_18
REMARK                            x       y       z     vdW  Elec       q    Type
REMARK                         _______ _______ _______ _____ _____    ______ ____
ROOT
ATOM      1  C   UNL     1       3.269   5.668  19.146  0.00  0.00    +0.000 C 
ATOM      2  O   UNL     1       3.568   6.041  18.019  0.00  0.00    +0.000 OA
ATOM      3  N   UNL     1       2.413   6.292  20.004  0.00  0.00    +0.000 N 
ATOM      4  C   UNL     1       1.943   7.574  19.843  0.00  0.00    +0.000 A 
ATOM      5  N   UNL     1       1.365   8.225  20.822  0.00  0.00    +0.000 NA
ATOM      6  C   UNL     1       1.161   9.545  20.443  0.00  0.00    +0.000 A 
ATOM      7  C   UNL     1       0.654  10.570  21.256  0.00  0.00    +0.000 A 
ATOM      8  C   UNL     1       0.535  11.871  20.746  0.00  0.00    +0.000 A 
ATOM      9  C   UNL     1       0.895  12.182  19.434  0.00  0.00    +0.000 A 
ATOM     10  C   UNL     1       1.394  11.165  18.607  0.00  0.00    +0.000 A 
ATOM     11  C   UNL     1       1.522   9.863  19.134  0.00  0.00    +0.000 A 
ATOM     12  S   UNL     1       2.112   8.442  18.381  0.00  0.00    +0.000 S 
ATOM     13  H   UNL     1       2.286   5.891  20.920  0.00  0.00    +0.000 HD
ENDROOT
BRANCH   9  14
ATOM     14  N   UNL     1       0.786  13.483  18.881  0.00  0.00    +0.000 N 
ATOM     15  C   UNL     1       1.458  14.619  19.311  0.00  0.00    +0.000 C 
ATOM     16  O   UNL     1       2.258  14.658  20.238  0.00  0.00    +0.000 OA
ATOM     17  H   UNL     1       0.238  13.559  18.032  0.00  0.00    +0.000 HD
BRANCH  15  18
ATOM     18  C   UNL     1       1.227  15.887  18.555  0.00  0.00    +0.000 A 
ATOM     19  C   UNL     1       0.068  16.647  18.818  0.00  0.00    +0.000 A 
ATOM     20 CL   UNL     1      -1.259  16.082  19.781  0.00  0.00    +0.000 Cl
ATOM     21  C   UNL     1      -0.097  17.923  18.257  0.00  0.00    +0.000 A 
ATOM     22  C   UNL     1       0.874  18.453  17.416  0.00  0.00    +0.000 A 
ATOM     23  C   UNL     1       2.006  17.700  17.118  0.00  0.00    +0.000 A 
ATOM     24  C   UNL     1       2.188  16.428  17.683  0.00  0.00    +0.000 A 
ATOM     25 CL   UNL     1       3.662  15.625  17.255  0.00  0.00    +0.000 Cl
ENDBRANCH  15  18
ENDBRANCH   9  14
BRANCH   1  26
ATOM     26  O   UNL     1       3.827   4.577  19.741  0.00  0.00    +0.000 OA
BRANCH  26  28
ATOM     27  C   UNL     1       1.953   3.381  18.690  0.00  0.00    +0.000 C 
ATOM     28  C   UNL     1       3.044   3.347  19.774  0.00  0.00    +0.000 C 
ATOM     29  C   UNL     1       2.469   3.074  21.173  0.00  0.00    +0.000 C 
ATOM     30  C   UNL     1       4.005   2.198  19.427  0.00  0.00    +0.000 C 
ENDBRANCH  26  28
ENDBRANCH   1  26
TORSDOF 4
ENDMDL
MODEL 7
REMARK VINA RESULT:      -7.3      4.423     11.211
REMARK  Name = 
REMARK  7 active torsions:
REMARK  status: ('A' for Active; 'I' for Inactive)
REMARK    1  A    between atoms: C_1  and  C_2
REMARK    2  A    between atoms: C_2  and  C_3
REMARK    3  A    between atoms: C_2  and  C_4
REMARK    4  A    between atoms: C_2  and  O_5
REMARK    5  A    between atoms: O_5  and  C_6
REMARK    6  A    between atoms: C_14  and  N_15
REMARK    7  A    between atoms: C_16  and  C_18
REMARK                            x       y       z     vdW  Elec       q    Type
REMARK                         _______ _______ _______ _____ _____    ______ ____
ROOT
ATOM      1  C   UNL     1       2.659   8.067  18.183  0.00  0.00    +0.000 C 
ATOM      2  O   UNL     1       2.194   8.843  17.358  0.00  0.00    +0.000 OA
ATOM      3  N   UNL     1       2.171   7.827  19.434  0.00  0.00    +0.000 N 
ATOM      4  C   UNL     1       1.228   8.602  20.065  0.00  0.00    +0.000 A 
ATOM      5  N   UNL     1       1.006   8.506  21.353  0.00  0.00    +0.000 NA
ATOM      6  C   UNL     1       0.147   9.522  21.752  0.00  0.00    +0.000 A 
ATOM      7  C   UNL     1      -0.246   9.802  23.069  0.00  0.00    +0.000 A 
ATOM      8  C   UNL     1      -1.094  10.888  23.328  0.00  0.00    +0.000 A 
ATOM      9  C   UNL     1      -1.579  11.702  22.302  0.00  0.00    +0.000 A 
ATOM     10  C   UNL     1      -1.203  11.427  20.980  0.00  0.00    +0.000 A 
ATOM     11  C   UNL     1      -0.338  10.340  20.733  0.00  0.00    +0.000 A 
ATOM     12  S   UNL     1       0.304   9.783  19.245  0.00  0.00    +0.000 S 
ATOM     13  H   UNL     1       2.679   7.186  20.023  0.00  0.00    +0.000 HD
ENDROOT
BRANCH   9  14
ATOM     14  N   UNL     1      -2.442  12.805  22.523  0.00  0.00    +0.000 N 
ATOM     15  C   UNL     1      -3.547  12.831  23.363  0.00  0.00    +0.000 C 
ATOM     16  O   UNL     1      -3.935  11.892  24.048  0.00  0.00    +0.000 OA
ATOM     17  H   UNL     1      -2.160  13.681  22.098  0.00  0.00    +0.000 HD
BRANCH  15  18
ATOM     18  C   UNL     1      -4.298  14.117  23.482  0.00  0.00    +0.000 A 
ATOM     19  C   UNL     1      -3.830  15.112  24.367  0.00  0.00    +0.000 A 
ATOM     20 CL   UNL     1      -2.576  14.850  25.537  0.00  0.00    +0.000 Cl
ATOM     21  C   UNL     1      -4.404  16.391  24.378  0.00  0.00    +0.000 A 
ATOM     22  C   UNL     1      -5.460  16.697  23.529  0.00  0.00    +0.000 A 
ATOM     23  C   UNL     1      -5.958  15.716  22.676  0.00  0.00    +0.000 A 
ATOM     24  C   UNL     1      -5.383  14.435  22.646  0.00  0.00    +0.000 A 
ATOM     25 CL   UNL     1      -6.078  13.331  21.507  0.00  0.00    +0.000 Cl
ENDBRANCH  15  18
ENDBRANCH   9  14
BRANCH   1  26
ATOM     26  O   UNL     1       3.810   7.369  17.980  0.00  0.00    +0.000 OA
BRANCH  26  28
ATOM     27  C   UNL     1       4.548   5.359  16.769  0.00  0.00    +0.000 C 
ATOM     28  C   UNL     1       3.723   5.913  17.943  0.00  0.00    +0.000 C 
ATOM     29  C   UNL     1       2.264   5.430  17.910  0.00  0.00    +0.000 C 
ATOM     30  C   UNL     1       4.361   5.395  19.242  0.00  0.00    +0.000 C 
ENDBRANCH  26  28
ENDBRANCH   1  26
TORSDOF 4
ENDMDL
MODEL 8
REMARK VINA RESULT:      -7.3      1.651      2.640
REMARK  Name = 
REMARK  7 active torsions:
REMARK  status: ('A' for Active; 'I' for Inactive)
REMARK    1  A    between atoms: C_1  and  C_2
REMARK    2  A    between atoms: C_2  and  C_3
REMARK    3  A    between atoms: C_2  and  C_4
REMARK    4  A    between atoms: C_2  and  O_5
REMARK    5  A    between atoms: O_5  and  C_6
REMARK    6  A    between atoms: C_14  and  N_15
REMARK    7  A    between atoms: C_16  and  C_18
REMARK                            x       y       z     vdW  Elec       q    Type
REMARK                         _______ _______ _______ _____ _____    ______ ____
ROOT
ATOM      1  C   UNL     1      -2.540  12.574  20.129  0.00  0.00    +0.000 C 
ATOM      2  O   UNL     1      -2.275  12.848  18.966  0.00  0.00    +0.000 OA
ATOM      3  N   UNL     1      -1.806  11.784  20.962  0.00  0.00    +0.000 N 
ATOM      4  C   UNL     1      -0.781  10.962  20.556  0.00  0.00    +0.000 A 
ATOM      5  N   UNL     1      -0.304  10.020  21.331  0.00  0.00    +0.000 NA
ATOM      6  C   UNL     1       0.583   9.231  20.609  0.00  0.00    +0.000 A 
ATOM      7  C   UNL     1       1.222   8.071  21.071  0.00  0.00    +0.000 A 
ATOM      8  C   UNL     1       2.068   7.352  20.214  0.00  0.00    +0.000 A 
ATOM      9  C   UNL     1       2.311   7.767  18.904  0.00  0.00    +0.000 A 
ATOM     10  C   UNL     1       1.688   8.931  18.432  0.00  0.00    +0.000 A 
ATOM     11  C   UNL     1       0.828   9.639  19.298  0.00  0.00    +0.000 A 
ATOM     12  S   UNL     1      -0.079  11.062  19.001  0.00  0.00    +0.000 S 
ATOM     13  H   UNL     1      -2.163  11.613  21.888  0.00  0.00    +0.000 HD
ENDROOT
BRANCH   9  14
ATOM     14  N   UNL     1       3.163   7.071  18.010  0.00  0.00    +0.000 N 
ATOM     15  C   UNL     1       4.097   6.102  18.350  0.00  0.00    +0.000 C 
ATOM     16  O   UNL     1       4.316   5.699  19.486  0.00  0.00    +0.000 OA
ATOM     17  H   UNL     1       2.999   7.233  17.023  0.00  0.00    +0.000 HD
BRANCH  15  18
ATOM     18  C   UNL     1       4.865   5.461  17.240  0.00  0.00    +0.000 A 
ATOM     19  C   UNL     1       6.094   6.023  16.834  0.00  0.00    +0.000 A 
ATOM     20 CL   UNL     1       6.665   7.575  17.358  0.00  0.00    +0.000 Cl
ATOM     21  C   UNL     1       6.922   5.356  15.919  0.00  0.00    +0.000 A 
ATOM     22  C   UNL     1       6.536   4.134  15.381  0.00  0.00    +0.000 A 
ATOM     23  C   UNL     1       5.310   3.584  15.743  0.00  0.00    +0.000 A 
ATOM     24  C   UNL     1       4.479   4.236  16.667  0.00  0.00    +0.000 A 
ATOM     25 CL   UNL     1       3.004   3.414  17.054  0.00  0.00    +0.000 Cl
ENDBRANCH  15  18
ENDBRANCH   9  14
BRANCH   1  26
ATOM     26  O   UNL     1      -3.685  12.979  20.745  0.00  0.00    +0.000 OA
BRANCH  26  28
ATOM     27  C   UNL     1      -4.757  11.706  18.934  0.00  0.00    +0.000 C 
ATOM     28  C   UNL     1      -4.948  12.743  20.054  0.00  0.00    +0.000 C 
ATOM     29  C   UNL     1      -5.569  14.051  19.539  0.00  0.00    +0.000 C 
ATOM     30  C   UNL     1      -5.915  12.138  21.085  0.00  0.00    +0.000 C 
ENDBRANCH  26  28
ENDBRANCH   1  26
TORSDOF 4
ENDMDL
MODEL 9
REMARK VINA RESULT:      -7.2      3.701     10.236
REMARK  Name = 
REMARK  7 active torsions:
REMARK  status: ('A' for Active; 'I' for Inactive)
REMARK    1  A    between atoms: C_1  and  C_2
REMARK    2  A    between atoms: C_2  and  C_3
REMARK    3  A    between atoms: C_2  and  C_4
REMARK    4  A    between atoms: C_2  and  O_5
REMARK    5  A    between atoms: O_5  and  C_6
REMARK    6  A    between atoms: C_14  and  N_15
REMARK    7  A    between atoms: C_16  and  C_18
REMARK                            x       y       z     vdW  Elec       q    Type
REMARK                         _______ _______ _______ _____ _____    ______ ____
ROOT
ATOM      1  C   UNL     1       4.322   6.159  17.409  0.00  0.00    +0.000 C 
ATOM      2  O   UNL     1       4.258   7.029  16.550  0.00  0.00    +0.000 OA
ATOM      3  N   UNL     1       3.513   6.036  18.499  0.00  0.00    +0.000 N 
ATOM      4  C   UNL     1       2.655   7.013  18.947  0.00  0.00    +0.000 A 
ATOM      5  N   UNL     1       2.121   6.965  20.143  0.00  0.00    +0.000 NA
ATOM      6  C   UNL     1       1.455   8.156  20.400  0.00  0.00    +0.000 A 
ATOM      7  C   UNL     1       0.840   8.515  21.608  0.00  0.00    +0.000 A 
ATOM      8  C   UNL     1       0.233   9.774  21.736  0.00  0.00    +0.000 A 
ATOM      9  C   UNL     1       0.207  10.687  20.680  0.00  0.00    +0.000 A 
ATOM     10  C   UNL     1       0.809  10.337  19.463  0.00  0.00    +0.000 A 
ATOM     11  C   UNL     1       1.428   9.074  19.350  0.00  0.00    +0.000 A 
ATOM     12  S   UNL     1       2.253   8.387  18.015  0.00  0.00    +0.000 S 
ATOM     13  H   UNL     1       3.703   5.288  19.146  0.00  0.00    +0.000 HD
ENDROOT
BRANCH   9  14
ATOM     14  N   UNL     1      -0.401  11.965  20.768  0.00  0.00    +0.000 N 
ATOM     15  C   UNL     1       0.222  13.147  21.145  0.00  0.00    +0.000 C 
ATOM     16  O   UNL     1       1.402  13.258  21.452  0.00  0.00    +0.000 OA
ATOM     17  H   UNL     1      -1.353  12.028  20.429  0.00  0.00    +0.000 HD
BRANCH  15  18
ATOM     18  C   UNL     1      -0.598  14.397  21.128  0.00  0.00    +0.000 A 
ATOM     19  C   UNL     1      -1.189  14.852  22.326  0.00  0.00    +0.000 A 
ATOM     20 CL   UNL     1      -1.252  13.918  23.787  0.00  0.00    +0.000 Cl
ATOM     21  C   UNL     1      -1.817  16.104  22.387  0.00  0.00    +0.000 A 
ATOM     22  C   UNL     1      -1.886  16.913  21.259  0.00  0.00    +0.000 A 
ATOM     23  C   UNL     1      -1.340  16.463  20.060  0.00  0.00    +0.000 A 
ATOM     24  C   UNL     1      -0.698  15.216  19.991  0.00  0.00    +0.000 A 
ATOM     25 CL   UNL     1      -0.030  14.806  18.446  0.00  0.00    +0.000 Cl
ENDBRANCH  15  18
ENDBRANCH   9  14
BRANCH   1  26
ATOM     26  O   UNL     1       5.293   5.203  17.428  0.00  0.00    +0.000 OA
BRANCH  26  28
ATOM     27  C   UNL     1       6.672   5.483  19.445  0.00  0.00    +0.000 C 
ATOM     28  C   UNL     1       6.614   5.588  17.911  0.00  0.00    +0.000 C 
ATOM     29  C   UNL     1       7.023   6.981  17.406  0.00  0.00    +0.000 C 
ATOM     30  C   UNL     1       7.613   4.569  17.339  0.00  0.00    +0.000 C 
ENDBRANCH  26  28
ENDBRANCH   1  26
TORSDOF 4
ENDMDL
