MODEL 1
REMARK VINA RESULT:      -7.2      0.000      0.000
REMARK  Name = 
REMARK  13 active torsions:
REMARK  status: ('A' for Active; 'I' for Inactive)
REMARK    1  A    between atoms: C_1  and  C_2
REMARK    2  A    between atoms: C_2  and  N_3
REMARK    3  A    between atoms: N_3  and  C_4
REMARK    4  A    between atoms: N_3  and  C_6
REMARK    5  A    between atoms: C_4  and  C_5
REMARK    6  A    between atoms: C_6  and  C_7
REMARK    7  A    between atoms: C_7  and  C_8
REMARK    8  A    between atoms: C_8  and  O_9
REMARK    9  A    between atoms: O_9  and  C_10
REMARK   10  A    between atoms: C_10  and  C_12
REMARK   11  A    between atoms: C_12  and  O_13
REMARK   12  A    between atoms: C_12  and  C_14
REMARK   13  A    between atoms: C_12  and  C_20
REMARK                            x       y       z     vdW  Elec       q    Type
REMARK                         _______ _______ _______ _____ _____    ______ ____
ROOT
ATOM      1  C   UNL     1       5.738   5.756  15.922  0.00  0.00    +0.000 C 
ENDROOT
BRANCH   1   2
ATOM      2  C   UNL     1       6.097   5.031  14.607  0.00  0.00    +0.000 A 
ATOM      3  C   UNL     1       7.330   5.286  13.973  0.00  0.00    +0.000 A 
ATOM      4  C   UNL     1       7.672   4.655  12.776  0.00  0.00    +0.000 A 
ATOM      5  C   UNL     1       6.797   3.746  12.192  0.00  0.00    +0.000 A 
ATOM      6  C   UNL     1       5.581   3.463  12.808  0.00  0.00    +0.000 A 
ATOM      7  C   UNL     1       5.234   4.097  14.004  0.00  0.00    +0.000 A 
ENDBRANCH   1   2
BRANCH   1   8
ATOM      8  C   UNL     1       4.687   4.982  16.741  0.00  0.00    +0.000 A 
ATOM      9  C   UNL     1       4.719   3.583  16.899  0.00  0.00    +0.000 A 
ATOM     10  C   UNL     1       3.729   2.911  17.619  0.00  0.00    +0.000 A 
ATOM     11  C   UNL     1       2.690   3.624  18.209  0.00  0.00    +0.000 A 
ATOM     12  C   UNL     1       2.649   5.009  18.093  0.00  0.00    +0.000 A 
ATOM     13  C   UNL     1       3.641   5.682  17.372  0.00  0.00    +0.000 A 
ENDBRANCH   1   8
BRANCH   1  14
ATOM     14  C   UNL     1       7.057   6.006  16.741  0.00  0.00    +0.000 C 
ATOM     15  O   UNL     1       7.732   5.129  17.276  0.00  0.00    +0.000 OA
BRANCH  14  16
ATOM     16  O   UNL     1       7.365   7.342  16.796  0.00  0.00    +0.000 OA
BRANCH  16  17
ATOM     17  C   UNL     1       7.995   7.761  18.025  0.00  0.00    +0.000 C 
BRANCH  17  18
ATOM     18  C   UNL     1       8.379   9.233  17.928  0.00  0.00    +0.000 C 
BRANCH  18  19
ATOM     19  C   UNL     1       9.052   9.776  19.194  0.00  0.00    +0.000 C 
BRANCH  19  20
ATOM     20  N   UNL     1       9.206  11.241  19.251  0.00  0.00    +0.000 NA
BRANCH  20  22
ATOM     21  C   UNL     1      10.367  12.425  21.160  0.00  0.00    +0.000 C 
ATOM     22  C   UNL     1      10.490  11.644  19.854  0.00  0.00    +0.000 C 
ENDBRANCH  20  22
BRANCH  20  23
ATOM     23  C   UNL     1       8.947  11.859  17.937  0.00  0.00    +0.000 C 
ATOM     24  C   UNL     1       9.965  12.895  17.465  0.00  0.00    +0.000 C 
ENDBRANCH  20  23
ENDBRANCH  19  20
ENDBRANCH  18  19
ENDBRANCH  17  18
ENDBRANCH  16  17
ENDBRANCH  14  16
ENDBRANCH   1  14
BRANCH   1  25
ATOM     25  O   UNL     1       5.108   7.015  15.598  0.00  0.00    +0.000 OA
ATOM     26  H   UNL     1       4.163   6.886  15.784  0.00  0.00    +0.000 HD
ENDBRANCH   1  25
TORSDOF 11
ENDMDL
MODEL 2
REMARK VINA RESULT:      -7.2      0.580      1.314
REMARK  Name = 
REMARK  13 active torsions:
REMARK  status: ('A' for Active; 'I' for Inactive)
REMARK    1  A    between atoms: C_1  and  C_2
REMARK    2  A    between atoms: C_2  and  N_3
REMARK    3  A    between atoms: N_3  and  C_4
REMARK    4  A    between atoms: N_3  and  C_6
REMARK    5  A    between atoms: C_4  and  C_5
REMARK    6  A    between atoms: C_6  and  C_7
REMARK    7  A    between atoms: C_7  and  C_8
REMARK    8  A    between atoms: C_8  and  O_9
REMARK    9  A    between atoms: O_9  and  C_10
REMARK   10  A    between atoms: C_10  and  C_12
REMARK   11  A    between atoms: C_12  and  O_13
REMARK   12  A    between atoms: C_12  and  C_14
REMARK   13  A    between atoms: C_12  and  C_20
REMARK                            x       y       z     vdW  Elec       q    Type
REMARK                         _______ _______ _______ _____ _____    ______ ____
ROOT
ATOM      1  C   UNL     1       5.839   5.600  15.816  0.00  0.00    +0.000 C 
ENDROOT
BRANCH   1   2
ATOM      2  C   UNL     1       6.073   4.866  14.477  0.00  0.00    +0.000 A 
ATOM      3  C   UNL     1       7.294   5.022  13.791  0.00  0.00    +0.000 A 
ATOM      4  C   UNL     1       7.525   4.382  12.572  0.00  0.00    +0.000 A 
ATOM      5  C   UNL     1       6.547   3.562  12.018  0.00  0.00    +0.000 A 
ATOM      6  C   UNL     1       5.339   3.378  12.686  0.00  0.00    +0.000 A 
ATOM      7  C   UNL     1       5.104   4.021  13.905  0.00  0.00    +0.000 A 
ENDBRANCH   1   2
BRANCH   1   8
ATOM      8  C   UNL     1       4.745   4.922  16.663  0.00  0.00    +0.000 A 
ATOM      9  C   UNL     1       4.673   3.527  16.846  0.00  0.00    +0.000 A 
ATOM     10  C   UNL     1       3.646   2.945  17.592  0.00  0.00    +0.000 A 
ATOM     11  C   UNL     1       2.674   3.744  18.184  0.00  0.00    +0.000 A 
ATOM     12  C   UNL     1       2.737   5.127  18.044  0.00  0.00    +0.000 A 
ATOM     13  C   UNL     1       3.765   5.710  17.297  0.00  0.00    +0.000 A 
ENDBRANCH   1   8
BRANCH   1  14
ATOM     14  C   UNL     1       7.206   5.699  16.586  0.00  0.00    +0.000 C 
ATOM     15  O   UNL     1       7.755   4.768  17.172  0.00  0.00    +0.000 OA
BRANCH  14  16
ATOM     16  O   UNL     1       7.717   6.971  16.535  0.00  0.00    +0.000 OA
BRANCH  16  17
ATOM     17  C   UNL     1       7.273   7.838  17.600  0.00  0.00    +0.000 C 
BRANCH  17  18
ATOM     18  C   UNL     1       8.479   8.496  18.261  0.00  0.00    +0.000 C 
BRANCH  18  19
ATOM     19  C   UNL     1       8.429  10.028  18.243  0.00  0.00    +0.000 C 
BRANCH  19  20
ATOM     20  N   UNL     1       9.611  10.708  18.804  0.00  0.00    +0.000 NA
BRANCH  20  22
ATOM     21  C   UNL     1       8.719  12.740  17.593  0.00  0.00    +0.000 C 
ATOM     22  C   UNL     1       9.932  11.954  18.084  0.00  0.00    +0.000 C 
ENDBRANCH  20  22
BRANCH  20  23
ATOM     23  C   UNL     1       9.489  10.879  20.263  0.00  0.00    +0.000 C 
ATOM     24  C   UNL     1      10.351  11.973  20.889  0.00  0.00    +0.000 C 
ENDBRANCH  20  23
ENDBRANCH  19  20
ENDBRANCH  18  19
ENDBRANCH  17  18
ENDBRANCH  16  17
ENDBRANCH  14  16
ENDBRANCH   1  14
BRANCH   1  25
ATOM     25  O   UNL     1       5.329   6.922  15.535  0.00  0.00    +0.000 OA
ATOM     26  H   UNL     1       5.743   7.504  16.194  0.00  0.00    +0.000 HD
ENDBRANCH   1  25
TORSDOF 11
ENDMDL
MODEL 3
REMARK VINA RESULT:      -6.9      0.616      1.227
REMARK  Name = 
REMARK  13 active torsions:
REMARK  status: ('A' for Active; 'I' for Inactive)
REMARK    1  A    between atoms: C_1  and  C_2
REMARK    2  A    between atoms: C_2  and  N_3
REMARK    3  A    between atoms: N_3  and  C_4
REMARK    4  A    between atoms: N_3  and  C_6
REMARK    5  A    between atoms: C_4  and  C_5
REMARK    6  A    between atoms: C_6  and  C_7
REMARK    7  A    between atoms: C_7  and  C_8
REMARK    8  A    between atoms: C_8  and  O_9
REMARK    9  A    between atoms: O_9  and  C_10
REMARK   10  A    between atoms: C_10  and  C_12
REMARK   11  A    between atoms: C_12  and  O_13
REMARK   12  A    between atoms: C_12  and  C_14
REMARK   13  A    between atoms: C_12  and  C_20
REMARK                            x       y       z     vdW  Elec       q    Type
REMARK                         _______ _______ _______ _____ _____    ______ ____
ROOT
ATOM      1  C   UNL     1       5.891   5.516  15.776  0.00  0.00    +0.000 C 
ENDROOT
BRANCH   1   2
ATOM      2  C   UNL     1       6.064   4.800  14.419  0.00  0.00    +0.000 A 
ATOM      3  C   UNL     1       5.004   4.044  13.879  0.00  0.00    +0.000 A 
ATOM      4  C   UNL     1       5.141   3.375  12.661  0.00  0.00    +0.000 A 
ATOM      5  C   UNL     1       6.334   3.456  11.950  0.00  0.00    +0.000 A 
ATOM      6  C   UNL     1       7.389   4.212  12.454  0.00  0.00    +0.000 A 
ATOM      7  C   UNL     1       7.256   4.880  13.674  0.00  0.00    +0.000 A 
ENDBRANCH   1   2
BRANCH   1   8
ATOM      8  C   UNL     1       4.781   4.875  16.631  0.00  0.00    +0.000 A 
ATOM      9  C   UNL     1       4.663   3.484  16.813  0.00  0.00    +0.000 A 
ATOM     10  C   UNL     1       3.622   2.936  17.566  0.00  0.00    +0.000 A 
ATOM     11  C   UNL     1       2.682   3.767  18.165  0.00  0.00    +0.000 A 
ATOM     12  C   UNL     1       2.790   5.147  18.025  0.00  0.00    +0.000 A 
ATOM     13  C   UNL     1       3.832   5.695  17.271  0.00  0.00    +0.000 A 
ENDBRANCH   1   8
BRANCH   1  14
ATOM     14  C   UNL     1       7.275   5.532  16.522  0.00  0.00    +0.000 C 
ATOM     15  O   UNL     1       7.947   4.537  16.784  0.00  0.00    +0.000 OA
BRANCH  14  16
ATOM     16  O   UNL     1       7.645   6.810  16.860  0.00  0.00    +0.000 OA
BRANCH  16  17
ATOM     17  C   UNL     1       7.636   7.080  18.278  0.00  0.00    +0.000 C 
BRANCH  17  18
ATOM     18  C   UNL     1       8.626   8.196  18.593  0.00  0.00    +0.000 C 
BRANCH  18  19
ATOM     19  C   UNL     1       8.279   9.531  17.922  0.00  0.00    +0.000 C 
BRANCH  19  20
ATOM     20  N   UNL     1       8.646  10.738  18.686  0.00  0.00    +0.000 NA
BRANCH  20  22
ATOM     21  C   UNL     1      10.145  11.636  20.514  0.00  0.00    +0.000 C 
ATOM     22  C   UNL     1       9.495  10.424  19.850  0.00  0.00    +0.000 C 
ENDBRANCH  20  22
BRANCH  20  23
ATOM     23  C   UNL     1       9.206  11.779  17.805  0.00  0.00    +0.000 C 
ATOM     24  C   UNL     1       8.369  13.046  17.640  0.00  0.00    +0.000 C 
ENDBRANCH  20  23
ENDBRANCH  19  20
ENDBRANCH  18  19
ENDBRANCH  17  18
ENDBRANCH  16  17
ENDBRANCH  14  16
ENDBRANCH   1  14
BRANCH   1  25
ATOM     25  O   UNL     1       5.443   6.867  15.531  0.00  0.00    +0.000 OA
ATOM     26  H   UNL     1       5.478   6.981  14.567  0.00  0.00    +0.000 HD
ENDBRANCH   1  25
TORSDOF 11
ENDMDL
MODEL 4
REMARK VINA RESULT:      -6.9      0.935      3.897
REMARK  Name = 
REMARK  13 active torsions:
REMARK  status: ('A' for Active; 'I' for Inactive)
REMARK    1  A    between atoms: C_1  and  C_2
REMARK    2  A    between atoms: C_2  and  N_3
REMARK    3  A    between atoms: N_3  and  C_4
REMARK    4  A    between atoms: N_3  and  C_6
REMARK    5  A    between atoms: C_4  and  C_5
REMARK    6  A    between atoms: C_6  and  C_7
REMARK    7  A    between atoms: C_7  and  C_8
REMARK    8  A    between atoms: C_8  and  O_9
REMARK    9  A    between atoms: O_9  and  C_10
REMARK   10  A    between atoms: C_10  and  C_12
REMARK   11  A    between atoms: C_12  and  O_13
REMARK   12  A    between atoms: C_12  and  C_14
REMARK   13  A    between atoms: C_12  and  C_20
REMARK                            x       y       z     vdW  Elec       q    Type
REMARK                         _______ _______ _______ _____ _____    ______ ____
ROOT
ATOM      1  C   UNL     1       6.690   5.034  16.405  0.00  0.00    +0.000 C 
ENDROOT
BRANCH   1   2
ATOM      2  C   UNL     1       5.487   4.382  17.122  0.00  0.00    +0.000 A 
ATOM      3  C   UNL     1       5.571   4.062  18.493  0.00  0.00    +0.000 A 
ATOM      4  C   UNL     1       4.504   3.459  19.160  0.00  0.00    +0.000 A 
ATOM      5  C   UNL     1       3.326   3.172  18.478  0.00  0.00    +0.000 A 
ATOM      6  C   UNL     1       3.213   3.494  17.128  0.00  0.00    +0.000 A 
ATOM      7  C   UNL     1       4.281   4.095  16.456  0.00  0.00    +0.000 A 
ENDBRANCH   1   2
BRANCH   1   8
ATOM      8  C   UNL     1       6.719   4.697  14.902  0.00  0.00    +0.000 A 
ATOM      9  C   UNL     1       5.888   3.719  14.321  0.00  0.00    +0.000 A 
ATOM     10  C   UNL     1       5.968   3.415  12.960  0.00  0.00    +0.000 A 
ATOM     11  C   UNL     1       6.870   4.090  12.146  0.00  0.00    +0.000 A 
ATOM     12  C   UNL     1       7.683   5.081  12.687  0.00  0.00    +0.000 A 
ATOM     13  C   UNL     1       7.604   5.385  14.050  0.00  0.00    +0.000 A 
ENDBRANCH   1   8
BRANCH   1  14
ATOM     14  C   UNL     1       6.653   6.585  16.661  0.00  0.00    +0.000 C 
ATOM     15  O   UNL     1       5.636   7.276  16.661  0.00  0.00    +0.000 OA
BRANCH  14  16
ATOM     16  O   UNL     1       7.912   7.085  16.880  0.00  0.00    +0.000 OA
BRANCH  16  17
ATOM     17  C   UNL     1       8.096   7.700  18.172  0.00  0.00    +0.000 C 
BRANCH  17  18
ATOM     18  C   UNL     1       8.303   9.201  18.000  0.00  0.00    +0.000 C 
BRANCH  18  19
ATOM     19  C   UNL     1       9.147   9.835  19.112  0.00  0.00    +0.000 C 
BRANCH  19  20
ATOM     20  N   UNL     1       9.432  11.273  18.950  0.00  0.00    +0.000 NA
BRANCH  20  22
ATOM     21  C   UNL     1       8.973  11.624  21.412  0.00  0.00    +0.000 C 
ATOM     22  C   UNL     1       9.874  11.899  20.210  0.00  0.00    +0.000 C 
ENDBRANCH  20  22
BRANCH  20  23
ATOM     23  C   UNL     1      10.341  11.514  17.815  0.00  0.00    +0.000 C 
ATOM     24  C   UNL     1      10.504  12.968  17.377  0.00  0.00    +0.000 C 
ENDBRANCH  20  23
ENDBRANCH  19  20
ENDBRANCH  18  19
ENDBRANCH  17  18
ENDBRANCH  16  17
ENDBRANCH  14  16
ENDBRANCH   1  14
BRANCH   1  25
ATOM     25  O   UNL     1       7.907   4.470  16.939  0.00  0.00    +0.000 OA
ATOM     26  H   UNL     1       7.950   4.775  17.861  0.00  0.00    +0.000 HD
ENDBRANCH   1  25
TORSDOF 11
ENDMDL
MODEL 5
REMARK VINA RESULT:      -6.9      4.675      6.878
REMARK  Name = 
REMARK  13 active torsions:
REMARK  status: ('A' for Active; 'I' for Inactive)
REMARK    1  A    between atoms: C_1  and  C_2
REMARK    2  A    between atoms: C_2  and  N_3
REMARK    3  A    between atoms: N_3  and  C_4
REMARK    4  A    between atoms: N_3  and  C_6
REMARK    5  A    between atoms: C_4  and  C_5
REMARK    6  A    between atoms: C_6  and  C_7
REMARK    7  A    between atoms: C_7  and  C_8
REMARK    8  A    between atoms: C_8  and  O_9
REMARK    9  A    between atoms: O_9  and  C_10
REMARK   10  A    between atoms: C_10  and  C_12
REMARK   11  A    between atoms: C_12  and  O_13
REMARK   12  A    between atoms: C_12  and  C_14
REMARK   13  A    between atoms: C_12  and  C_20
REMARK                            x       y       z     vdW  Elec       q    Type
REMARK                         _______ _______ _______ _____ _____    ______ ____
ROOT
ATOM      1  C   UNL     1       2.616   5.186  18.333  0.00  0.00    +0.000 C 
ENDROOT
BRANCH   1   2
ATOM      2  C   UNL     1       4.004   5.050  17.670  0.00  0.00    +0.000 A 
ATOM      3  C   UNL     1       4.225   4.058  16.693  0.00  0.00    +0.000 A 
ATOM      4  C   UNL     1       5.475   3.904  16.089  0.00  0.00    +0.000 A 
ATOM      5  C   UNL     1       6.526   4.745  16.437  0.00  0.00    +0.000 A 
ATOM      6  C   UNL     1       6.328   5.744  17.386  0.00  0.00    +0.000 A 
ATOM      7  C   UNL     1       5.079   5.898  17.995  0.00  0.00    +0.000 A 
ENDBRANCH   1   2
BRANCH   1   8
ATOM      8  C   UNL     1       2.426   4.183  19.487  0.00  0.00    +0.000 A 
ATOM      9  C   UNL     1       1.180   3.951  20.101  0.00  0.00    +0.000 A 
ATOM     10  C   UNL     1       1.052   3.060  21.169  0.00  0.00    +0.000 A 
ATOM     11  C   UNL     1       2.164   2.371  21.640  0.00  0.00    +0.000 A 
ATOM     12  C   UNL     1       3.402   2.560  21.034  0.00  0.00    +0.000 A 
ATOM     13  C   UNL     1       3.530   3.451  19.965  0.00  0.00    +0.000 A 
ENDBRANCH   1   8
BRANCH   1  14
ATOM     14  C   UNL     1       2.423   6.673  18.805  0.00  0.00    +0.000 C 
ATOM     15  O   UNL     1       2.442   7.050  19.975  0.00  0.00    +0.000 OA
BRANCH  14  16
ATOM     16  O   UNL     1       2.219   7.513  17.740  0.00  0.00    +0.000 OA
BRANCH  16  17
ATOM     17  C   UNL     1       2.181   8.914  18.081  0.00  0.00    +0.000 C 
BRANCH  17  18
ATOM     18  C   UNL     1       0.775   9.459  17.855  0.00  0.00    +0.000 C 
BRANCH  18  19
ATOM     19  C   UNL     1       0.169  10.126  19.095  0.00  0.00    +0.000 C 
BRANCH  19  20
ATOM     20  N   UNL     1      -1.202  10.645  18.929  0.00  0.00    +0.000 NA
BRANCH  20  22
ATOM     21  C   UNL     1      -0.458  13.006  18.413  0.00  0.00    +0.000 C 
ATOM     22  C   UNL     1      -1.303  12.074  19.278  0.00  0.00    +0.000 C 
ENDBRANCH  20  22
BRANCH  20  23
ATOM     23  C   UNL     1      -1.741  10.319  17.596  0.00  0.00    +0.000 C 
ATOM     24  C   UNL     1      -3.135   9.697  17.565  0.00  0.00    +0.000 C 
ENDBRANCH  20  23
ENDBRANCH  19  20
ENDBRANCH  18  19
ENDBRANCH  17  18
ENDBRANCH  16  17
ENDBRANCH  14  16
ENDBRANCH   1  14
BRANCH   1  25
ATOM     25  O   UNL     1       1.604   4.837  17.363  0.00  0.00    +0.000 OA
ATOM     26  H   UNL     1       0.945   5.550  17.410  0.00  0.00    +0.000 HD
ENDBRANCH   1  25
TORSDOF 11
ENDMDL
MODEL 6
REMARK VINA RESULT:      -6.8      0.603      1.567
REMARK  Name = 
REMARK  13 active torsions:
REMARK  status: ('A' for Active; 'I' for Inactive)
REMARK    1  A    between atoms: C_1  and  C_2
REMARK    2  A    between atoms: C_2  and  N_3
REMARK    3  A    between atoms: N_3  and  C_4
REMARK    4  A    between atoms: N_3  and  C_6
REMARK    5  A    between atoms: C_4  and  C_5
REMARK    6  A    between atoms: C_6  and  C_7
REMARK    7  A    between atoms: C_7  and  C_8
REMARK    8  A    between atoms: C_8  and  O_9
REMARK    9  A    between atoms: O_9  and  C_10
REMARK   10  A    between atoms: C_10  and  C_12
REMARK   11  A    between atoms: C_12  and  O_13
REMARK   12  A    between atoms: C_12  and  C_14
REMARK   13  A    between atoms: C_12  and  C_20
REMARK                            x       y       z     vdW  Elec       q    Type
REMARK                         _______ _______ _______ _____ _____    ______ ____
ROOT
ATOM      1  C   UNL     1       5.614   5.683  16.189  0.00  0.00    +0.000 C 
ENDROOT
BRANCH   1   2
ATOM      2  C   UNL     1       6.036   5.036  14.852  0.00  0.00    +0.000 A 
ATOM      3  C   UNL     1       7.267   5.380  14.258  0.00  0.00    +0.000 A 
ATOM      4  C   UNL     1       7.664   4.820  13.042  0.00  0.00    +0.000 A 
ATOM      5  C   UNL     1       6.847   3.896  12.399  0.00  0.00    +0.000 A 
ATOM      6  C   UNL     1       5.635   3.526  12.975  0.00  0.00    +0.000 A 
ATOM      7  C   UNL     1       5.233   4.088  14.190  0.00  0.00    +0.000 A 
ENDBRANCH   1   2
BRANCH   1   8
ATOM      8  C   UNL     1       4.480   4.901  16.878  0.00  0.00    +0.000 A 
ATOM      9  C   UNL     1       3.304   5.516  17.352  0.00  0.00    +0.000 A 
ATOM     10  C   UNL     1       2.313   4.780  18.003  0.00  0.00    +0.000 A 
ATOM     11  C   UNL     1       2.466   3.410  18.186  0.00  0.00    +0.000 A 
ATOM     12  C   UNL     1       3.604   2.771  17.703  0.00  0.00    +0.000 A 
ATOM     13  C   UNL     1       4.597   3.508  17.050  0.00  0.00    +0.000 A 
ENDBRANCH   1   8
BRANCH   1  14
ATOM     14  C   UNL     1       6.882   5.818  17.109  0.00  0.00    +0.000 C 
ATOM     15  O   UNL     1       7.788   4.991  17.189  0.00  0.00    +0.000 OA
BRANCH  14  16
ATOM     16  O   UNL     1       6.852   6.984  17.833  0.00  0.00    +0.000 OA
BRANCH  16  17
ATOM     17  C   UNL     1       8.148   7.474  18.233  0.00  0.00    +0.000 C 
BRANCH  17  18
ATOM     18  C   UNL     1       8.253   8.962  17.919  0.00  0.00    +0.000 C 
BRANCH  18  19
ATOM     19  C   UNL     1       9.068   9.751  18.951  0.00  0.00    +0.000 C 
BRANCH  19  20
ATOM     20  N   UNL     1       9.684  10.995  18.454  0.00  0.00    +0.000 NA
BRANCH  20  22
ATOM     21  C   UNL     1       9.069  13.396  17.948  0.00  0.00    +0.000 C 
ATOM     22  C   UNL     1       8.688  11.919  17.879  0.00  0.00    +0.000 C 
ENDBRANCH  20  22
BRANCH  20  23
ATOM     23  C   UNL     1      10.545  11.613  19.479  0.00  0.00    +0.000 C 
ATOM     24  C   UNL     1      12.048  11.564  19.217  0.00  0.00    +0.000 C 
ENDBRANCH  20  23
ENDBRANCH  19  20
ENDBRANCH  18  19
ENDBRANCH  17  18
ENDBRANCH  16  17
ENDBRANCH  14  16
ENDBRANCH   1  14
BRANCH   1  25
ATOM     25  O   UNL     1       5.057   6.987  15.915  0.00  0.00    +0.000 OA
ATOM     26  H   UNL     1       5.373   7.560  16.634  0.00  0.00    +0.000 HD
ENDBRANCH   1  25
TORSDOF 11
ENDMDL
MODEL 7
REMARK VINA RESULT:      -6.8      4.607      6.488
REMARK  Name = 
REMARK  13 active torsions:
REMARK  status: ('A' for Active; 'I' for Inactive)
REMARK    1  A    between atoms: C_1  and  C_2
REMARK    2  A    between atoms: C_2  and  N_3
REMARK    3  A    between atoms: N_3  and  C_4
REMARK    4  A    between atoms: N_3  and  C_6
REMARK    5  A    between atoms: C_4  and  C_5
REMARK    6  A    between atoms: C_6  and  C_7
REMARK    7  A    between atoms: C_7  and  C_8
REMARK    8  A    between atoms: C_8  and  O_9
REMARK    9  A    between atoms: O_9  and  C_10
REMARK   10  A    between atoms: C_10  and  C_12
REMARK   11  A    between atoms: C_12  and  O_13
REMARK   12  A    between atoms: C_12  and  C_14
REMARK   13  A    between atoms: C_12  and  C_20
REMARK                            x       y       z     vdW  Elec       q    Type
REMARK                         _______ _______ _______ _____ _____    ______ ____
ROOT
ATOM      1  C   UNL     1       2.765   5.262  18.414  0.00  0.00    +0.000 C 
ENDROOT
BRANCH   1   2
ATOM      2  C   UNL     1       4.169   5.025  17.815  0.00  0.00    +0.000 A 
ATOM      3  C   UNL     1       4.318   4.240  16.653  0.00  0.00    +0.000 A 
ATOM      4  C   UNL     1       5.577   3.998  16.101  0.00  0.00    +0.000 A 
ATOM      5  C   UNL     1       6.713   4.545  16.688  0.00  0.00    +0.000 A 
ATOM      6  C   UNL     1       6.590   5.339  17.825  0.00  0.00    +0.000 A 
ATOM      7  C   UNL     1       5.331   5.579  18.382  0.00  0.00    +0.000 A 
ENDBRANCH   1   2
BRANCH   1   8
ATOM      8  C   UNL     1       2.437   4.256  19.533  0.00  0.00    +0.000 A 
ATOM      9  C   UNL     1       3.428   3.620  20.305  0.00  0.00    +0.000 A 
ATOM     10  C   UNL     1       3.094   2.686  21.289  0.00  0.00    +0.000 A 
ATOM     11  C   UNL     1       1.761   2.375  21.532  0.00  0.00    +0.000 A 
ATOM     12  C   UNL     1       0.759   3.009  20.804  0.00  0.00    +0.000 A 
ATOM     13  C   UNL     1       1.093   3.944  19.820  0.00  0.00    +0.000 A 
ENDBRANCH   1   8
BRANCH   1  14
ATOM     14  C   UNL     1       2.670   6.750  18.911  0.00  0.00    +0.000 C 
ATOM     15  O   UNL     1       2.504   7.095  20.079  0.00  0.00    +0.000 OA
BRANCH  14  16
ATOM     16  O   UNL     1       2.787   7.634  17.868  0.00  0.00    +0.000 OA
BRANCH  16  17
ATOM     17  C   UNL     1       1.626   8.461  17.650  0.00  0.00    +0.000 C 
BRANCH  17  18
ATOM     18  C   UNL     1       1.966   9.915  17.961  0.00  0.00    +0.000 C 
BRANCH  18  19
ATOM     19  C   UNL     1       1.290  10.444  19.231  0.00  0.00    +0.000 C 
BRANCH  19  20
ATOM     20  N   UNL     1      -0.124  10.063  19.403  0.00  0.00    +0.000 NA
BRANCH  20  22
ATOM     21  C   UNL     1      -0.211   8.789  21.586  0.00  0.00    +0.000 C 
ATOM     22  C   UNL     1      -0.535  10.069  20.820  0.00  0.00    +0.000 C 
ENDBRANCH  20  22
BRANCH  20  23
ATOM     23  C   UNL     1      -1.003  10.858  18.526  0.00  0.00    +0.000 C 
ATOM     24  C   UNL     1      -1.817  10.075  17.499  0.00  0.00    +0.000 C 
ENDBRANCH  20  23
ENDBRANCH  19  20
ENDBRANCH  18  19
ENDBRANCH  17  18
ENDBRANCH  16  17
ENDBRANCH  14  16
ENDBRANCH   1  14
BRANCH   1  25
ATOM     25  O   UNL     1       1.778   5.016  17.388  0.00  0.00    +0.000 OA
ATOM     26  H   UNL     1       2.049   4.185  16.963  0.00  0.00    +0.000 HD
ENDBRANCH   1  25
TORSDOF 11
ENDMDL
MODEL 8
REMARK VINA RESULT:      -6.8      4.594      6.696
REMARK  Name = 
REMARK  13 active torsions:
REMARK  status: ('A' for Active; 'I' for Inactive)
REMARK    1  A    between atoms: C_1  and  C_2
REMARK    2  A    between atoms: C_2  and  N_3
REMARK    3  A    between atoms: N_3  and  C_4
REMARK    4  A    between atoms: N_3  and  C_6
REMARK    5  A    between atoms: C_4  and  C_5
REMARK    6  A    between atoms: C_6  and  C_7
REMARK    7  A    between atoms: C_7  and  C_8
REMARK    8  A    between atoms: C_8  and  O_9
REMARK    9  A    between atoms: O_9  and  C_10
REMARK   10  A    between atoms: C_10  and  C_12
REMARK   11  A    between atoms: C_12  and  O_13
REMARK   12  A    between atoms: C_12  and  C_14
REMARK   13  A    between atoms: C_12  and  C_20
REMARK                            x       y       z     vdW  Elec       q    Type
REMARK                         _______ _______ _______ _____ _____    ______ ____
ROOT
ATOM      1  C   UNL     1       2.598   5.171  18.297  0.00  0.00    +0.000 C 
ENDROOT
BRANCH   1   2
ATOM      2  C   UNL     1       3.973   5.068  17.600  0.00  0.00    +0.000 A 
ATOM      3  C   UNL     1       4.215   4.043  16.663  0.00  0.00    +0.000 A 
ATOM      4  C   UNL     1       5.454   3.918  16.032  0.00  0.00    +0.000 A 
ATOM      5  C   UNL     1       6.474   4.821  16.312  0.00  0.00    +0.000 A 
ATOM      6  C   UNL     1       6.253   5.853  17.220  0.00  0.00    +0.000 A 
ATOM      7  C   UNL     1       5.016   5.978  17.857  0.00  0.00    +0.000 A 
ENDBRANCH   1   2
BRANCH   1   8
ATOM      8  C   UNL     1       2.465   4.175  19.464  0.00  0.00    +0.000 A 
ATOM      9  C   UNL     1       1.245   3.930  20.125  0.00  0.00    +0.000 A 
ATOM     10  C   UNL     1       1.169   3.046  21.203  0.00  0.00    +0.000 A 
ATOM     11  C   UNL     1       2.307   2.375  21.638  0.00  0.00    +0.000 A 
ATOM     12  C   UNL     1       3.519   2.576  20.985  0.00  0.00    +0.000 A 
ATOM     13  C   UNL     1       3.596   3.461  19.905  0.00  0.00    +0.000 A 
ENDBRANCH   1   8
BRANCH   1  14
ATOM     14  C   UNL     1       2.375   6.657  18.760  0.00  0.00    +0.000 C 
ATOM     15  O   UNL     1       2.526   7.068  19.909  0.00  0.00    +0.000 OA
BRANCH  14  16
ATOM     16  O   UNL     1       1.976   7.452  17.715  0.00  0.00    +0.000 OA
BRANCH  16  17
ATOM     17  C   UNL     1       2.374   8.834  17.828  0.00  0.00    +0.000 C 
BRANCH  17  18
ATOM     18  C   UNL     1       1.139   9.710  18.007  0.00  0.00    +0.000 C 
BRANCH  18  19
ATOM     19  C   UNL     1       1.117  10.474  19.336  0.00  0.00    +0.000 C 
BRANCH  19  20
ATOM     20  N   UNL     1      -0.218  10.883  19.809  0.00  0.00    +0.000 NA
BRANCH  20  22
ATOM     21  C   UNL     1      -2.429  11.517  18.757  0.00  0.00    +0.000 C 
ATOM     22  C   UNL     1      -1.284  10.511  18.860  0.00  0.00    +0.000 C 
ENDBRANCH  20  22
BRANCH  20  23
ATOM     23  C   UNL     1      -0.462  10.421  21.188  0.00  0.00    +0.000 C 
ATOM     24  C   UNL     1      -0.186   8.945  21.464  0.00  0.00    +0.000 C 
ENDBRANCH  20  23
ENDBRANCH  19  20
ENDBRANCH  18  19
ENDBRANCH  17  18
ENDBRANCH  16  17
ENDBRANCH  14  16
ENDBRANCH   1  14
BRANCH   1  25
ATOM     25  O   UNL     1       1.574   4.785  17.355  0.00  0.00    +0.000 OA
ATOM     26  H   UNL     1       1.878   3.945  16.972  0.00  0.00    +0.000 HD
ENDBRANCH   1  25
TORSDOF 11
ENDMDL
MODEL 9
REMARK VINA RESULT:      -6.7      1.489      4.239
REMARK  Name = 
REMARK  13 active torsions:
REMARK  status: ('A' for Active; 'I' for Inactive)
REMARK    1  A    between atoms: C_1  and  C_2
REMARK    2  A    between atoms: C_2  and  N_3
REMARK    3  A    between atoms: N_3  and  C_4
REMARK    4  A    between atoms: N_3  and  C_6
REMARK    5  A    between atoms: C_4  and  C_5
REMARK    6  A    between atoms: C_6  and  C_7
REMARK    7  A    between atoms: C_7  and  C_8
REMARK    8  A    between atoms: C_8  and  O_9
REMARK    9  A    between atoms: O_9  and  C_10
REMARK   10  A    between atoms: C_10  and  C_12
REMARK   11  A    between atoms: C_12  and  O_13
REMARK   12  A    between atoms: C_12  and  C_14
REMARK   13  A    between atoms: C_12  and  C_20
REMARK                            x       y       z     vdW  Elec       q    Type
REMARK                         _______ _______ _______ _____ _____    ______ ____
ROOT
ATOM      1  C   UNL     1       6.004   4.895  17.788  0.00  0.00    +0.000 C 
ENDROOT
BRANCH   1   2
ATOM      2  C   UNL     1       4.774   5.763  18.135  0.00  0.00    +0.000 A 
ATOM      3  C   UNL     1       4.005   5.472  19.280  0.00  0.00    +0.000 A 
ATOM      4  C   UNL     1       2.880   6.231  19.608  0.00  0.00    +0.000 A 
ATOM      5  C   UNL     1       2.506   7.305  18.807  0.00  0.00    +0.000 A 
ATOM      6  C   UNL     1       3.260   7.624  17.681  0.00  0.00    +0.000 A 
ATOM      7  C   UNL     1       4.384   6.863  17.348  0.00  0.00    +0.000 A 
ENDBRANCH   1   2
BRANCH   1   8
ATOM      8  C   UNL     1       6.115   4.629  16.275  0.00  0.00    +0.000 A 
ATOM      9  C   UNL     1       5.117   3.959  15.541  0.00  0.00    +0.000 A 
ATOM     10  C   UNL     1       5.268   3.704  14.176  0.00  0.00    +0.000 A 
ATOM     11  C   UNL     1       6.415   4.124  13.510  0.00  0.00    +0.000 A 
ATOM     12  C   UNL     1       7.404   4.813  14.204  0.00  0.00    +0.000 A 
ATOM     13  C   UNL     1       7.252   5.069  15.570  0.00  0.00    +0.000 A 
ENDBRANCH   1   8
BRANCH   1  14
ATOM     14  C   UNL     1       7.293   5.590  18.362  0.00  0.00    +0.000 C 
ATOM     15  O   UNL     1       7.930   5.199  19.338  0.00  0.00    +0.000 OA
BRANCH  14  16
ATOM     16  O   UNL     1       7.622   6.708  17.637  0.00  0.00    +0.000 OA
BRANCH  16  17
ATOM     17  C   UNL     1       8.121   7.807  18.426  0.00  0.00    +0.000 C 
BRANCH  17  18
ATOM     18  C   UNL     1       8.169   9.070  17.574  0.00  0.00    +0.000 C 
BRANCH  18  19
ATOM     19  C   UNL     1       8.311  10.358  18.393  0.00  0.00    +0.000 C 
BRANCH  19  20
ATOM     20  N   UNL     1       9.640  10.587  18.989  0.00  0.00    +0.000 NA
BRANCH  20  22
ATOM     21  C   UNL     1       9.642  12.612  17.475  0.00  0.00    +0.000 C 
ATOM     22  C   UNL     1      10.447  11.538  18.203  0.00  0.00    +0.000 C 
ENDBRANCH  20  22
BRANCH  20  23
ATOM     23  C   UNL     1       9.534  10.936  20.417  0.00  0.00    +0.000 C 
ATOM     24  C   UNL     1      10.442  12.062  20.907  0.00  0.00    +0.000 C 
ENDBRANCH  20  23
ENDBRANCH  19  20
ENDBRANCH  18  19
ENDBRANCH  17  18
ENDBRANCH  16  17
ENDBRANCH  14  16
ENDBRANCH   1  14
BRANCH   1  25
ATOM     25  O   UNL     1       5.833   3.592  18.386  0.00  0.00    +0.000 OA
ATOM     26  H   UNL     1       5.316   3.745  19.195  0.00  0.00    +0.000 HD
ENDBRANCH   1  25
TORSDOF 11
ENDMDL
