MODEL 1
REMARK VINA RESULT:      -8.9      0.000      0.000
REMARK  Name = 
REMARK  6 active torsions:
REMARK  status: ('A' for Active; 'I' for Inactive)
REMARK    1  A    between atoms: C_1  and  C_2
REMARK    2  A    between atoms: C_4  and  N_5
REMARK    3  A    between atoms: N_5  and  C_6
REMARK    4  A    between atoms: C_15  and  C_16
REMARK    5  A    between atoms: C_16  and  C_17
REMARK    6  A    between atoms: C_16  and  C_18
REMARK                            x       y       z     vdW  Elec       q    Type
REMARK                         _______ _______ _______ _____ _____    ______ ____
ROOT
ATOM      1  C   UNL     1       7.863   6.818  18.326  0.00  0.00    +0.000 C 
ATOM      2  C   UNL     1       7.210   5.900  17.325  0.00  0.00    +0.000 A 
ATOM      3  C   UNL     1       6.265   4.876  17.859  0.00  0.00    +0.000 A 
ATOM      4  C   UNL     1       5.717   4.020  16.976  0.00  0.00    +0.000 A 
ATOM      5  N   UNL     1       6.031   4.201  15.610  0.00  0.00    +0.000 N 
ATOM      6  N   UNL     1       5.588   3.498  14.529  0.00  0.00    +0.000 NA
ATOM      7  C   UNL     1       6.255   4.083  13.526  0.00  0.00    +0.000 A 
ATOM      8  N   UNL     1       7.068   5.117  13.888  0.00  0.00    +0.000 NA
ATOM      9  C   UNL     1       6.923   5.195  15.191  0.00  0.00    +0.000 A 
ATOM     10  N   UNL     1       7.519   6.050  16.072  0.00  0.00    +0.000 NA
ENDROOT
BRANCH   7  11
ATOM     11  C   UNL     1       6.121   3.657  12.098  0.00  0.00    +0.000 C 
ATOM     12  C   UNL     1       7.054   2.485  11.785  0.00  0.00    +0.000 C 
ATOM     13  C   UNL     1       4.675   3.282  11.760  0.00  0.00    +0.000 C 
ENDBRANCH   7  11
BRANCH   4  14
ATOM     14  N   UNL     1       4.847   2.985  17.312  0.00  0.00    +0.000 N 
ATOM     15  H   UNL     1       5.354   2.144  17.609  0.00  0.00    +0.000 HD
BRANCH  14  16
ATOM     16  C   UNL     1       3.645   3.135  18.054  0.00  0.00    +0.000 A 
ATOM     17  C   UNL     1       2.523   3.681  17.411  0.00  0.00    +0.000 A 
ATOM     18  C   UNL     1       1.329   3.906  18.109  0.00  0.00    +0.000 A 
ATOM     19  C   UNL     1       1.246   3.603  19.464  0.00  0.00    +0.000 A 
ATOM     20  C   UNL     1       2.352   3.070  20.114  0.00  0.00    +0.000 A 
ATOM     21 CL   UNL     1       2.262   2.698  21.792  0.00  0.00    +0.000 Cl
ATOM     22  C   UNL     1       3.538   2.835  19.418  0.00  0.00    +0.000 A 
ENDBRANCH  14  16
ENDBRANCH   4  14
TORSDOF 3
ENDMDL
MODEL 2
REMARK VINA RESULT:      -8.9      1.148      1.444
REMARK  Name = 
REMARK  6 active torsions:
REMARK  status: ('A' for Active; 'I' for Inactive)
REMARK    1  A    between atoms: C_1  and  C_2
REMARK    2  A    between atoms: C_4  and  N_5
REMARK    3  A    between atoms: N_5  and  C_6
REMARK    4  A    between atoms: C_15  and  C_16
REMARK    5  A    between atoms: C_16  and  C_17
REMARK    6  A    between atoms: C_16  and  C_18
REMARK                            x       y       z     vdW  Elec       q    Type
REMARK                         _______ _______ _______ _____ _____    ______ ____
ROOT
ATOM      1  C   UNL     1       8.105   7.829  18.377  0.00  0.00    +0.000 C 
ATOM      2  C   UNL     1       7.486   6.672  17.635  0.00  0.00    +0.000 A 
ATOM      3  C   UNL     1       6.763   5.652  18.450  0.00  0.00    +0.000 A 
ATOM      4  C   UNL     1       6.252   4.590  17.799  0.00  0.00    +0.000 A 
ATOM      5  N   UNL     1       6.384   4.560  16.393  0.00  0.00    +0.000 N 
ATOM      6  N   UNL     1       5.931   3.624  15.510  0.00  0.00    +0.000 NA
ATOM      7  C   UNL     1       6.392   4.097  14.345  0.00  0.00    +0.000 A 
ATOM      8  N   UNL     1       7.082   5.272  14.422  0.00  0.00    +0.000 NA
ATOM      9  C   UNL     1       7.071   5.564  15.703  0.00  0.00    +0.000 A 
ATOM     10  N   UNL     1       7.630   6.631  16.345  0.00  0.00    +0.000 NA
ENDROOT
BRANCH   7  11
ATOM     11  C   UNL     1       6.165   3.407  13.036  0.00  0.00    +0.000 C 
ATOM     12  C   UNL     1       4.731   3.617  12.548  0.00  0.00    +0.000 C 
ATOM     13  C   UNL     1       7.158   3.886  11.973  0.00  0.00    +0.000 C 
ENDBRANCH   7  11
BRANCH   4  14
ATOM     14  N   UNL     1       5.582   3.533  18.413  0.00  0.00    +0.000 N 
ATOM     15  H   UNL     1       6.092   3.186  19.234  0.00  0.00    +0.000 HD
BRANCH  14  16
ATOM     16  C   UNL     1       4.180   3.467  18.629  0.00  0.00    +0.000 A 
ATOM     17  C   UNL     1       3.427   2.557  17.871  0.00  0.00    +0.000 A 
ATOM     18  C   UNL     1       2.032   2.490  17.999  0.00  0.00    +0.000 A 
ATOM     19  C   UNL     1       1.372   3.343  18.875  0.00  0.00    +0.000 A 
ATOM     20  C   UNL     1       2.105   4.254  19.626  0.00  0.00    +0.000 A 
ATOM     21 CL   UNL     1       1.296   5.319  20.710  0.00  0.00    +0.000 Cl
ATOM     22  C   UNL     1       3.494   4.314  19.507  0.00  0.00    +0.000 A 
ENDBRANCH  14  16
ENDBRANCH   4  14
TORSDOF 3
ENDMDL
MODEL 3
REMARK VINA RESULT:      -8.5      1.386      1.806
REMARK  Name = 
REMARK  6 active torsions:
REMARK  status: ('A' for Active; 'I' for Inactive)
REMARK    1  A    between atoms: C_1  and  C_2
REMARK    2  A    between atoms: C_4  and  N_5
REMARK    3  A    between atoms: N_5  and  C_6
REMARK    4  A    between atoms: C_15  and  C_16
REMARK    5  A    between atoms: C_16  and  C_17
REMARK    6  A    between atoms: C_16  and  C_18
REMARK                            x       y       z     vdW  Elec       q    Type
REMARK                         _______ _______ _______ _____ _____    ______ ____
ROOT
ATOM      1  C   UNL     1       7.946   7.397  18.322  0.00  0.00    +0.000 C 
ATOM      2  C   UNL     1       7.263   6.347  17.483  0.00  0.00    +0.000 A 
ATOM      3  C   UNL     1       6.299   5.444  18.179  0.00  0.00    +0.000 A 
ATOM      4  C   UNL     1       5.724   4.473  17.446  0.00  0.00    +0.000 A 
ATOM      5  N   UNL     1       6.029   4.427  16.067  0.00  0.00    +0.000 N 
ATOM      6  N   UNL     1       5.559   3.572  15.114  0.00  0.00    +0.000 NA
ATOM      7  C   UNL     1       6.230   3.974  14.027  0.00  0.00    +0.000 A 
ATOM      8  N   UNL     1       7.070   5.033  14.215  0.00  0.00    +0.000 NA
ATOM      9  C   UNL     1       6.939   5.320  15.491  0.00  0.00    +0.000 A 
ATOM     10  N   UNL     1       7.562   6.289  16.221  0.00  0.00    +0.000 NA
ENDROOT
BRANCH   7  11
ATOM     11  C   UNL     1       6.072   3.330  12.685  0.00  0.00    +0.000 C 
ATOM     12  C   UNL     1       4.667   3.561  12.128  0.00  0.00    +0.000 C 
ATOM     13  C   UNL     1       7.122   3.840  11.694  0.00  0.00    +0.000 C 
ENDBRANCH   7  11
BRANCH   4  14
ATOM     14  N   UNL     1       4.832   3.526  17.948  0.00  0.00    +0.000 N 
ATOM     15  H   UNL     1       5.244   2.586  17.957  0.00  0.00    +0.000 HD
BRANCH  14  16
ATOM     16  C   UNL     1       3.984   3.715  19.071  0.00  0.00    +0.000 A 
ATOM     17  C   UNL     1       3.778   2.636  19.945  0.00  0.00    +0.000 A 
ATOM     18  C   UNL     1       2.905   2.747  21.036  0.00  0.00    +0.000 A 
ATOM     19  C   UNL     1       2.215   3.933  21.258  0.00  0.00    +0.000 A 
ATOM     20  C   UNL     1       2.405   5.006  20.396  0.00  0.00    +0.000 A 
ATOM     21 CL   UNL     1       1.550   6.477  20.658  0.00  0.00    +0.000 Cl
ATOM     22  C   UNL     1       3.281   4.900  19.315  0.00  0.00    +0.000 A 
ENDBRANCH  14  16
ENDBRANCH   4  14
TORSDOF 3
ENDMDL
MODEL 4
REMARK VINA RESULT:      -8.5      0.722      1.013
REMARK  Name = 
REMARK  6 active torsions:
REMARK  status: ('A' for Active; 'I' for Inactive)
REMARK    1  A    between atoms: C_1  and  C_2
REMARK    2  A    between atoms: C_4  and  N_5
REMARK    3  A    between atoms: N_5  and  C_6
REMARK    4  A    between atoms: C_15  and  C_16
REMARK    5  A    between atoms: C_16  and  C_17
REMARK    6  A    between atoms: C_16  and  C_18
REMARK                            x       y       z     vdW  Elec       q    Type
REMARK                         _______ _______ _______ _____ _____    ______ ____
ROOT
ATOM      1  C   UNL     1       7.711   6.243  19.248  0.00  0.00    +0.000 C 
ATOM      2  C   UNL     1       7.124   5.474  18.092  0.00  0.00    +0.000 A 
ATOM      3  C   UNL     1       6.012   4.529  18.402  0.00  0.00    +0.000 A 
ATOM      4  C   UNL     1       5.517   3.802  17.382  0.00  0.00    +0.000 A 
ATOM      5  N   UNL     1       6.045   4.039  16.094  0.00  0.00    +0.000 N 
ATOM      6  N   UNL     1       5.697   3.466  14.906  0.00  0.00    +0.000 NA
ATOM      7  C   UNL     1       6.562   4.039  14.058  0.00  0.00    +0.000 A 
ATOM      8  N   UNL     1       7.413   4.948  14.615  0.00  0.00    +0.000 NA
ATOM      9  C   UNL     1       7.085   4.953  15.888  0.00  0.00    +0.000 A 
ATOM     10  N   UNL     1       7.628   5.674  16.911  0.00  0.00    +0.000 NA
ENDROOT
BRANCH   7  11
ATOM     11  C   UNL     1       6.597   3.729  12.595  0.00  0.00    +0.000 C 
ATOM     12  C   UNL     1       5.188   3.493  12.050  0.00  0.00    +0.000 C 
ATOM     13  C   UNL     1       7.288   4.844  11.804  0.00  0.00    +0.000 C 
ENDBRANCH   7  11
BRANCH   4  14
ATOM     14  N   UNL     1       4.505   2.851  17.506  0.00  0.00    +0.000 N 
ATOM     15  H   UNL     1       4.886   1.911  17.666  0.00  0.00    +0.000 HD
BRANCH  14  16
ATOM     16  C   UNL     1       3.295   3.032  18.227  0.00  0.00    +0.000 A 
ATOM     17  C   UNL     1       2.251   3.744  17.616  0.00  0.00    +0.000 A 
ATOM     18  C   UNL     1       1.056   4.004  18.302  0.00  0.00    +0.000 A 
ATOM     19  C   UNL     1       0.897   3.569  19.613  0.00  0.00    +0.000 A 
ATOM     20  C   UNL     1       1.926   2.870  20.231  0.00  0.00    +0.000 A 
ATOM     21 CL   UNL     1       1.742   2.334  21.856  0.00  0.00    +0.000 Cl
ATOM     22  C   UNL     1       3.112   2.602  19.546  0.00  0.00    +0.000 A 
ENDBRANCH  14  16
ENDBRANCH   4  14
TORSDOF 3
ENDMDL
MODEL 5
REMARK VINA RESULT:      -8.4      1.276      1.629
REMARK  Name = 
REMARK  6 active torsions:
REMARK  status: ('A' for Active; 'I' for Inactive)
REMARK    1  A    between atoms: C_1  and  C_2
REMARK    2  A    between atoms: C_4  and  N_5
REMARK    3  A    between atoms: N_5  and  C_6
REMARK    4  A    between atoms: C_15  and  C_16
REMARK    5  A    between atoms: C_16  and  C_17
REMARK    6  A    between atoms: C_16  and  C_18
REMARK                            x       y       z     vdW  Elec       q    Type
REMARK                         _______ _______ _______ _____ _____    ______ ____
ROOT
ATOM      1  C   UNL     1       8.095   7.753  18.322  0.00  0.00    +0.000 C 
ATOM      2  C   UNL     1       7.437   6.629  17.563  0.00  0.00    +0.000 A 
ATOM      3  C   UNL     1       6.596   5.680  18.350  0.00  0.00    +0.000 A 
ATOM      4  C   UNL     1       6.047   4.645  17.686  0.00  0.00    +0.000 A 
ATOM      5  N   UNL     1       6.257   4.578  16.291  0.00  0.00    +0.000 N 
ATOM      6  N   UNL     1       5.788   3.661  15.397  0.00  0.00    +0.000 NA
ATOM      7  C   UNL     1       6.349   4.077  14.254  0.00  0.00    +0.000 A 
ATOM      8  N   UNL     1       7.117   5.201  14.353  0.00  0.00    +0.000 NA
ATOM      9  C   UNL     1       7.054   5.517  15.627  0.00  0.00    +0.000 A 
ATOM     10  N   UNL     1       7.651   6.553  16.284  0.00  0.00    +0.000 NA
ENDROOT
BRANCH   7  11
ATOM     11  C   UNL     1       6.147   3.380  12.945  0.00  0.00    +0.000 C 
ATOM     12  C   UNL     1       4.715   3.563  12.441  0.00  0.00    +0.000 C 
ATOM     13  C   UNL     1       7.143   3.874  11.891  0.00  0.00    +0.000 C 
ENDBRANCH   7  11
BRANCH   4  14
ATOM     14  N   UNL     1       5.268   3.651  18.276  0.00  0.00    +0.000 N 
ATOM     15  H   UNL     1       5.821   3.061  18.909  0.00  0.00    +0.000 HD
BRANCH  14  16
ATOM     16  C   UNL     1       3.952   3.833  18.779  0.00  0.00    +0.000 A 
ATOM     17  C   UNL     1       3.716   4.891  19.670  0.00  0.00    +0.000 A 
ATOM     18  C   UNL     1       2.451   5.082  20.245  0.00  0.00    +0.000 A 
ATOM     19  C   UNL     1       1.411   4.209  19.947  0.00  0.00    +0.000 A 
ATOM     20  C   UNL     1       1.635   3.153  19.072  0.00  0.00    +0.000 A 
ATOM     21 CL   UNL     1       0.356   2.062  18.702  0.00  0.00    +0.000 Cl
ATOM     22  C   UNL     1       2.890   2.967  18.492  0.00  0.00    +0.000 A 
ENDBRANCH  14  16
ENDBRANCH   4  14
TORSDOF 3
ENDMDL
MODEL 6
REMARK VINA RESULT:      -8.4      1.252      1.508
REMARK  Name = 
REMARK  6 active torsions:
REMARK  status: ('A' for Active; 'I' for Inactive)
REMARK    1  A    between atoms: C_1  and  C_2
REMARK    2  A    between atoms: C_4  and  N_5
REMARK    3  A    between atoms: N_5  and  C_6
REMARK    4  A    between atoms: C_15  and  C_16
REMARK    5  A    between atoms: C_16  and  C_17
REMARK    6  A    between atoms: C_16  and  C_18
REMARK                            x       y       z     vdW  Elec       q    Type
REMARK                         _______ _______ _______ _____ _____    ______ ____
ROOT
ATOM      1  C   UNL     1       8.008   7.734  18.261  0.00  0.00    +0.000 C 
ATOM      2  C   UNL     1       7.177   6.871  17.346  0.00  0.00    +0.000 A 
ATOM      3  C   UNL     1       5.752   6.651  17.731  0.00  0.00    +0.000 A 
ATOM      4  C   UNL     1       5.017   5.840  16.945  0.00  0.00    +0.000 A 
ATOM      5  N   UNL     1       5.636   5.317  15.788  0.00  0.00    +0.000 N 
ATOM      6  N   UNL     1       5.106   4.509  14.825  0.00  0.00    +0.000 NA
ATOM      7  C   UNL     1       6.160   4.306  14.024  0.00  0.00    +0.000 A 
ATOM      8  N   UNL     1       7.309   4.944  14.394  0.00  0.00    +0.000 NA
ATOM      9  C   UNL     1       6.978   5.581  15.494  0.00  0.00    +0.000 A 
ATOM     10  N   UNL     1       7.752   6.370  16.295  0.00  0.00    +0.000 NA
ENDROOT
BRANCH   7  11
ATOM     11  C   UNL     1       6.100   3.455  12.795  0.00  0.00    +0.000 C 
ATOM     12  C   UNL     1       4.700   3.483  12.177  0.00  0.00    +0.000 C 
ATOM     13  C   UNL     1       7.140   3.893  11.760  0.00  0.00    +0.000 C 
ENDBRANCH   7  11
BRANCH   4  14
ATOM     14  N   UNL     1       3.686   5.502  17.183  0.00  0.00    +0.000 N 
ATOM     15  H   UNL     1       3.111   5.615  16.341  0.00  0.00    +0.000 HD
BRANCH  14  16
ATOM     16  C   UNL     1       3.249   4.386  17.945  0.00  0.00    +0.000 A 
ATOM     17  C   UNL     1       2.955   3.189  17.273  0.00  0.00    +0.000 A 
ATOM     18  C   UNL     1       2.462   2.074  17.967  0.00  0.00    +0.000 A 
ATOM     19  C   UNL     1       2.244   2.148  19.338  0.00  0.00    +0.000 A 
ATOM     20  C   UNL     1       2.524   3.330  20.013  0.00  0.00    +0.000 A 
ATOM     21 CL   UNL     1       2.250   3.433  21.709  0.00  0.00    +0.000 Cl
ATOM     22  C   UNL     1       3.023   4.437  19.326  0.00  0.00    +0.000 A 
ENDBRANCH  14  16
ENDBRANCH   4  14
TORSDOF 3
ENDMDL
MODEL 7
REMARK VINA RESULT:      -8.3      1.005      1.067
REMARK  Name = 
REMARK  6 active torsions:
REMARK  status: ('A' for Active; 'I' for Inactive)
REMARK    1  A    between atoms: C_1  and  C_2
REMARK    2  A    between atoms: C_4  and  N_5
REMARK    3  A    between atoms: N_5  and  C_6
REMARK    4  A    between atoms: C_15  and  C_16
REMARK    5  A    between atoms: C_16  and  C_17
REMARK    6  A    between atoms: C_16  and  C_18
REMARK                            x       y       z     vdW  Elec       q    Type
REMARK                         _______ _______ _______ _____ _____    ______ ____
ROOT
ATOM      1  C   UNL     1       7.868   6.479  18.550  0.00  0.00    +0.000 C 
ATOM      2  C   UNL     1       7.170   5.669  17.487  0.00  0.00    +0.000 A 
ATOM      3  C   UNL     1       6.116   4.716  17.944  0.00  0.00    +0.000 A 
ATOM      4  C   UNL     1       5.524   3.953  17.005  0.00  0.00    +0.000 A 
ATOM      5  N   UNL     1       5.903   4.161  15.660  0.00  0.00    +0.000 N 
ATOM      6  N   UNL     1       5.436   3.549  14.534  0.00  0.00    +0.000 NA
ATOM      7  C   UNL     1       6.191   4.110  13.581  0.00  0.00    +0.000 A 
ATOM      8  N   UNL     1       7.082   5.048  14.016  0.00  0.00    +0.000 NA
ATOM      9  C   UNL     1       6.897   5.084  15.316  0.00  0.00    +0.000 A 
ATOM     10  N   UNL     1       7.537   5.842  16.253  0.00  0.00    +0.000 NA
ENDROOT
BRANCH   7  11
ATOM     11  C   UNL     1       6.070   3.759  12.131  0.00  0.00    +0.000 C 
ATOM     12  C   UNL     1       7.111   2.712  11.732  0.00  0.00    +0.000 C 
ATOM     13  C   UNL     1       4.663   3.257  11.794  0.00  0.00    +0.000 C 
ENDBRANCH   7  11
BRANCH   4  14
ATOM     14  N   UNL     1       4.549   2.992  17.266  0.00  0.00    +0.000 N 
ATOM     15  H   UNL     1       4.963   2.066  17.425  0.00  0.00    +0.000 HD
BRANCH  14  16
ATOM     16  C   UNL     1       3.412   3.182  18.095  0.00  0.00    +0.000 A 
ATOM     17  C   UNL     1       2.412   2.198  18.098  0.00  0.00    +0.000 A 
ATOM     18  C   UNL     1       1.241   2.361  18.852  0.00  0.00    +0.000 A 
ATOM     19  C   UNL     1       1.049   3.517  19.600  0.00  0.00    +0.000 A 
ATOM     20  C   UNL     1       2.028   4.503  19.599  0.00  0.00    +0.000 A 
ATOM     21 CL   UNL     1       1.797   5.941  20.516  0.00  0.00    +0.000 Cl
ATOM     22  C   UNL     1       3.199   4.337  18.857  0.00  0.00    +0.000 A 
ENDBRANCH  14  16
ENDBRANCH   4  14
TORSDOF 3
ENDMDL
MODEL 8
REMARK VINA RESULT:      -8.1      1.422      1.655
REMARK  Name = 
REMARK  6 active torsions:
REMARK  status: ('A' for Active; 'I' for Inactive)
REMARK    1  A    between atoms: C_1  and  C_2
REMARK    2  A    between atoms: C_4  and  N_5
REMARK    3  A    between atoms: N_5  and  C_6
REMARK    4  A    between atoms: C_15  and  C_16
REMARK    5  A    between atoms: C_16  and  C_17
REMARK    6  A    between atoms: C_16  and  C_18
REMARK                            x       y       z     vdW  Elec       q    Type
REMARK                         _______ _______ _______ _____ _____    ______ ____
ROOT
ATOM      1  C   UNL     1       7.875   7.587  18.227  0.00  0.00    +0.000 C 
ATOM      2  C   UNL     1       7.104   6.694  17.288  0.00  0.00    +0.000 A 
ATOM      3  C   UNL     1       5.721   6.311  17.699  0.00  0.00    +0.000 A 
ATOM      4  C   UNL     1       5.046   5.473  16.890  0.00  0.00    +0.000 A 
ATOM      5  N   UNL     1       5.676   5.076  15.690  0.00  0.00    +0.000 N 
ATOM      6  N   UNL     1       5.198   4.269  14.698  0.00  0.00    +0.000 NA
ATOM      7  C   UNL     1       6.241   4.215  13.859  0.00  0.00    +0.000 A 
ATOM      8  N   UNL     1       7.332   4.945  14.233  0.00  0.00    +0.000 NA
ATOM      9  C   UNL     1       6.975   5.488  15.375  0.00  0.00    +0.000 A 
ATOM     10  N   UNL     1       7.693   6.308  16.197  0.00  0.00    +0.000 NA
ENDROOT
BRANCH   7  11
ATOM     11  C   UNL     1       6.225   3.427  12.587  0.00  0.00    +0.000 C 
ATOM     12  C   UNL     1       4.822   3.396  11.978  0.00  0.00    +0.000 C 
ATOM     13  C   UNL     1       7.227   3.986  11.572  0.00  0.00    +0.000 C 
ENDBRANCH   7  11
BRANCH   4  14
ATOM     14  N   UNL     1       3.763   4.990  17.144  0.00  0.00    +0.000 N 
ATOM     15  H   UNL     1       3.595   4.095  16.672  0.00  0.00    +0.000 HD
BRANCH  14  16
ATOM     16  C   UNL     1       3.110   5.025  18.404  0.00  0.00    +0.000 A 
ATOM     17  C   UNL     1       2.527   6.230  18.825  0.00  0.00    +0.000 A 
ATOM     18  C   UNL     1       1.921   6.338  20.084  0.00  0.00    +0.000 A 
ATOM     19  C   UNL     1       1.904   5.247  20.945  0.00  0.00    +0.000 A 
ATOM     20  C   UNL     1       2.485   4.050  20.544  0.00  0.00    +0.000 A 
ATOM     21 CL   UNL     1       2.475   2.695  21.605  0.00  0.00    +0.000 Cl
ATOM     22  C   UNL     1       3.080   3.938  19.287  0.00  0.00    +0.000 A 
ENDBRANCH  14  16
ENDBRANCH   4  14
TORSDOF 3
ENDMDL
MODEL 9
REMARK VINA RESULT:      -8.0      1.212      1.441
REMARK  Name = 
REMARK  6 active torsions:
REMARK  status: ('A' for Active; 'I' for Inactive)
REMARK    1  A    between atoms: C_1  and  C_2
REMARK    2  A    between atoms: C_4  and  N_5
REMARK    3  A    between atoms: N_5  and  C_6
REMARK    4  A    between atoms: C_15  and  C_16
REMARK    5  A    between atoms: C_16  and  C_17
REMARK    6  A    between atoms: C_16  and  C_18
REMARK                            x       y       z     vdW  Elec       q    Type
REMARK                         _______ _______ _______ _____ _____    ______ ____
ROOT
ATOM      1  C   UNL     1       8.002   5.890  19.467  0.00  0.00    +0.000 C 
ATOM      2  C   UNL     1       7.177   5.487  18.271  0.00  0.00    +0.000 A 
ATOM      3  C   UNL     1       5.693   5.525  18.427  0.00  0.00    +0.000 A 
ATOM      4  C   UNL     1       4.951   5.118  17.380  0.00  0.00    +0.000 A 
ATOM      5  N   UNL     1       5.634   4.749  16.200  0.00  0.00    +0.000 N 
ATOM      6  N   UNL     1       5.120   4.338  15.005  0.00  0.00    +0.000 NA
ATOM      7  C   UNL     1       6.229   4.085  14.299  0.00  0.00    +0.000 A 
ATOM      8  N   UNL     1       7.405   4.329  14.947  0.00  0.00    +0.000 NA
ATOM      9  C   UNL     1       7.032   4.750  16.134  0.00  0.00    +0.000 A 
ATOM     10  N   UNL     1       7.806   5.124  17.195  0.00  0.00    +0.000 NA
ENDROOT
BRANCH   7  11
ATOM     11  C   UNL     1       6.203   3.584  12.889  0.00  0.00    +0.000 C 
ATOM     12  C   UNL     1       4.783   3.619  12.321  0.00  0.00    +0.000 C 
ATOM     13  C   UNL     1       7.148   4.390  11.992  0.00  0.00    +0.000 C 
ENDBRANCH   7  11
BRANCH   4  14
ATOM     14  N   UNL     1       3.559   5.057  17.373  0.00  0.00    +0.000 N 
ATOM     15  H   UNL     1       3.184   5.072  16.417  0.00  0.00    +0.000 HD
BRANCH  14  16
ATOM     16  C   UNL     1       2.771   4.222  18.209  0.00  0.00    +0.000 A 
ATOM     17  C   UNL     1       1.781   3.423  17.617  0.00  0.00    +0.000 A 
ATOM     18  C   UNL     1       0.934   2.624  18.399  0.00  0.00    +0.000 A 
ATOM     19  C   UNL     1       1.059   2.626  19.784  0.00  0.00    +0.000 A 
ATOM     20  C   UNL     1       2.031   3.418  20.382  0.00  0.00    +0.000 A 
ATOM     21 CL   UNL     1       2.188   3.432  22.096  0.00  0.00    +0.000 Cl
ATOM     22  C   UNL     1       2.880   4.206  19.605  0.00  0.00    +0.000 A 
ENDBRANCH  14  16
ENDBRANCH   4  14
TORSDOF 3
ENDMDL
