MODEL 1
REMARK VINA RESULT:      -7.8      0.000      0.000
REMARK  Name = 
REMARK  8 active torsions:
REMARK  status: ('A' for Active; 'I' for Inactive)
REMARK    1  A    between atoms: C_1  and  O_2
REMARK    2  A    between atoms: O_2  and  C_3
REMARK    3  A    between atoms: C_5  and  O_6
REMARK    4  A    between atoms: C_7  and  C_8
REMARK    5  A    between atoms: C_8  and  O_10
REMARK    6  A    between atoms: C_11  and  C_12
REMARK    7  A    between atoms: C_12  and  C_13
REMARK    8  A    between atoms: C_13  and  C_15
REMARK                            x       y       z     vdW  Elec       q    Type
REMARK                         _______ _______ _______ _____ _____    ______ ____
ROOT
ATOM      1  C   UNL     1       5.648   4.817  15.080  0.00  0.00    +0.000 A 
ATOM      2  C   UNL     1       6.786   4.192  15.573  0.00  0.00    +0.000 A 
ATOM      3  C   UNL     1       7.292   4.542  16.827  0.00  0.00    +0.000 A 
ATOM      4  C   UNL     1       6.666   5.517  17.634  0.00  0.00    +0.000 A 
ATOM      5  C   UNL     1       5.496   6.157  17.136  0.00  0.00    +0.000 A 
ATOM      6  C   UNL     1       5.023   5.794  15.853  0.00  0.00    +0.000 A 
ENDROOT
BRANCH   1   8
ATOM      7  C   UNL     1       6.185   3.652  13.081  0.00  0.00    +0.000 C 
ATOM      8  O   UNL     1       5.241   4.398  13.844  0.00  0.00    +0.000 OA
ENDBRANCH   1   8
BRANCH   3   9
ATOM      9  O   UNL     1       8.431   3.902  17.260  0.00  0.00    +0.000 OA
ATOM     10  H   UNL     1       8.321   2.941  17.125  0.00  0.00    +0.000 HD
ENDBRANCH   3   9
BRANCH   4  11
ATOM     11  C   UNL     1       7.217   5.876  18.993  0.00  0.00    +0.000 C 
ATOM     12  O   UNL     1       6.796   5.408  20.037  0.00  0.00    +0.000 OA
BRANCH  11  13
ATOM     13  O   UNL     1       8.233   6.767  19.001  0.00  0.00    +0.000 OA
ATOM     14  H   UNL     1       8.804   6.699  18.205  0.00  0.00    +0.000 HD
ENDBRANCH  11  13
ENDBRANCH   4  11
BRANCH   5  15
ATOM     15  C   UNL     1       4.759   7.236  17.923  0.00  0.00    +0.000 C 
BRANCH  15  16
ATOM     16  C   UNL     1       3.238   7.142  17.922  0.00  0.00    +0.000 C 
ATOM     17  O   UNL     1       2.549   7.986  17.347  0.00  0.00    +0.000 OA
BRANCH  16  18
ATOM     18  C   UNL     1       2.555   5.972  18.562  0.00  0.00    +0.000 A 
ATOM     19  C   UNL     1       2.022   4.907  17.823  0.00  0.00    +0.000 A 
ATOM     20  C   UNL     1       1.407   3.835  18.478  0.00  0.00    +0.000 A 
ATOM     21  C   UNL     1       1.313   3.834  19.865  0.00  0.00    +0.000 A 
ATOM     22  F   UNL     1       0.732   2.799  20.486  0.00  0.00    +0.000 F 
ATOM     23  C   UNL     1       1.810   4.892  20.614  0.00  0.00    +0.000 A 
ATOM     24  C   UNL     1       2.428   5.963  19.963  0.00  0.00    +0.000 A 
ENDBRANCH  16  18
ENDBRANCH  15  16
ENDBRANCH   5  15
TORSDOF 7
ENDMDL
MODEL 2
REMARK VINA RESULT:      -7.7      0.510      1.101
REMARK  Name = 
REMARK  8 active torsions:
REMARK  status: ('A' for Active; 'I' for Inactive)
REMARK    1  A    between atoms: C_1  and  O_2
REMARK    2  A    between atoms: O_2  and  C_3
REMARK    3  A    between atoms: C_5  and  O_6
REMARK    4  A    between atoms: C_7  and  C_8
REMARK    5  A    between atoms: C_8  and  O_10
REMARK    6  A    between atoms: C_11  and  C_12
REMARK    7  A    between atoms: C_12  and  C_13
REMARK    8  A    between atoms: C_13  and  C_15
REMARK                            x       y       z     vdW  Elec       q    Type
REMARK                         _______ _______ _______ _____ _____    ______ ____
ROOT
ATOM      1  C   UNL     1       5.607   4.716  15.032  0.00  0.00    +0.000 A 
ATOM      2  C   UNL     1       6.742   4.108  15.551  0.00  0.00    +0.000 A 
ATOM      3  C   UNL     1       7.253   4.515  16.786  0.00  0.00    +0.000 A 
ATOM      4  C   UNL     1       6.636   5.532  17.546  0.00  0.00    +0.000 A 
ATOM      5  C   UNL     1       5.469   6.155  17.021  0.00  0.00    +0.000 A 
ATOM      6  C   UNL     1       4.990   5.733  15.758  0.00  0.00    +0.000 A 
ENDROOT
BRANCH   1   8
ATOM      7  C   UNL     1       6.203   3.711  12.964  0.00  0.00    +0.000 C 
ATOM      8  O   UNL     1       5.194   4.240  13.819  0.00  0.00    +0.000 OA
ENDBRANCH   1   8
BRANCH   3   9
ATOM      9  O   UNL     1       8.390   3.889  17.247  0.00  0.00    +0.000 OA
ATOM     10  H   UNL     1       8.831   4.477  17.891  0.00  0.00    +0.000 HD
ENDBRANCH   3   9
BRANCH   4  11
ATOM     11  C   UNL     1       7.193   5.953  18.886  0.00  0.00    +0.000 C 
ATOM     12  O   UNL     1       6.829   5.477  19.947  0.00  0.00    +0.000 OA
BRANCH  11  13
ATOM     13  O   UNL     1       8.146   6.910  18.853  0.00  0.00    +0.000 OA
ATOM     14  H   UNL     1       8.395   7.229  19.747  0.00  0.00    +0.000 HD
ENDBRANCH  11  13
ENDBRANCH   4  11
BRANCH   5  15
ATOM     15  C   UNL     1       4.740   7.275  17.757  0.00  0.00    +0.000 C 
BRANCH  15  16
ATOM     16  C   UNL     1       3.265   7.033  18.050  0.00  0.00    +0.000 C 
ATOM     17  O   UNL     1       2.416   7.886  17.789  0.00  0.00    +0.000 OA
BRANCH  16  18
ATOM     18  C   UNL     1       2.813   5.713  18.598  0.00  0.00    +0.000 A 
ATOM     19  C   UNL     1       3.213   5.236  19.854  0.00  0.00    +0.000 A 
ATOM     20  C   UNL     1       2.747   4.001  20.317  0.00  0.00    +0.000 A 
ATOM     21  C   UNL     1       1.898   3.239  19.523  0.00  0.00    +0.000 A 
ATOM     22  F   UNL     1       1.447   2.063  19.978  0.00  0.00    +0.000 F 
ATOM     23  C   UNL     1       1.512   3.681  18.265  0.00  0.00    +0.000 A 
ATOM     24  C   UNL     1       1.972   4.916  17.800  0.00  0.00    +0.000 A 
ENDBRANCH  16  18
ENDBRANCH  15  16
ENDBRANCH   5  15
TORSDOF 7
ENDMDL
MODEL 3
REMARK VINA RESULT:      -7.7      3.131      6.114
REMARK  Name = 
REMARK  8 active torsions:
REMARK  status: ('A' for Active; 'I' for Inactive)
REMARK    1  A    between atoms: C_1  and  O_2
REMARK    2  A    between atoms: O_2  and  C_3
REMARK    3  A    between atoms: C_5  and  O_6
REMARK    4  A    between atoms: C_7  and  C_8
REMARK    5  A    between atoms: C_8  and  O_10
REMARK    6  A    between atoms: C_11  and  C_12
REMARK    7  A    between atoms: C_12  and  C_13
REMARK    8  A    between atoms: C_13  and  C_15
REMARK                            x       y       z     vdW  Elec       q    Type
REMARK                         _______ _______ _______ _____ _____    ______ ____
ROOT
ATOM      1  C   UNL     1       2.406   6.473  19.394  0.00  0.00    +0.000 A 
ATOM      2  C   UNL     1       2.316   5.574  20.448  0.00  0.00    +0.000 A 
ATOM      3  C   UNL     1       2.762   4.260  20.290  0.00  0.00    +0.000 A 
ATOM      4  C   UNL     1       3.324   3.808  19.075  0.00  0.00    +0.000 A 
ATOM      5  C   UNL     1       3.423   4.727  17.993  0.00  0.00    +0.000 A 
ATOM      6  C   UNL     1       2.943   6.045  18.181  0.00  0.00    +0.000 A 
ENDROOT
BRANCH   1   8
ATOM      7  C   UNL     1       1.449   7.965  20.976  0.00  0.00    +0.000 C 
ATOM      8  O   UNL     1       1.941   7.731  19.659  0.00  0.00    +0.000 OA
ENDBRANCH   1   8
BRANCH   3   9
ATOM      9  O   UNL     1       2.636   3.406  21.362  0.00  0.00    +0.000 OA
ATOM     10  H   UNL     1       3.341   3.607  22.007  0.00  0.00    +0.000 HD
ENDBRANCH   3   9
BRANCH   4  11
ATOM     11  C   UNL     1       3.814   2.388  18.922  0.00  0.00    +0.000 C 
ATOM     12  O   UNL     1       3.244   1.547  18.248  0.00  0.00    +0.000 OA
BRANCH  11  13
ATOM     13  O   UNL     1       4.951   2.081  19.585  0.00  0.00    +0.000 OA
ATOM     14  H   UNL     1       5.080   1.114  19.690  0.00  0.00    +0.000 HD
ENDBRANCH  11  13
ENDBRANCH   4  11
BRANCH   5  15
ATOM     15  C   UNL     1       3.998   4.332  16.637  0.00  0.00    +0.000 C 
BRANCH  15  16
ATOM     16  C   UNL     1       5.515   4.211  16.564  0.00  0.00    +0.000 C 
ATOM     17  O   UNL     1       6.052   3.315  15.912  0.00  0.00    +0.000 OA
BRANCH  16  18
ATOM     18  C   UNL     1       6.385   5.235  17.230  0.00  0.00    +0.000 A 
ATOM     19  C   UNL     1       7.112   4.968  18.398  0.00  0.00    +0.000 A 
ATOM     20  C   UNL     1       7.918   5.960  18.966  0.00  0.00    +0.000 A 
ATOM     21  C   UNL     1       7.984   7.219  18.379  0.00  0.00    +0.000 A 
ATOM     22  F   UNL     1       8.765   8.160  18.923  0.00  0.00    +0.000 F 
ATOM     23  C   UNL     1       7.249   7.511  17.238  0.00  0.00    +0.000 A 
ATOM     24  C   UNL     1       6.447   6.522  16.665  0.00  0.00    +0.000 A 
ENDBRANCH  16  18
ENDBRANCH  15  16
ENDBRANCH   5  15
TORSDOF 7
ENDMDL
MODEL 4
REMARK VINA RESULT:      -7.7      3.077      5.921
REMARK  Name = 
REMARK  8 active torsions:
REMARK  status: ('A' for Active; 'I' for Inactive)
REMARK    1  A    between atoms: C_1  and  O_2
REMARK    2  A    between atoms: O_2  and  C_3
REMARK    3  A    between atoms: C_5  and  O_6
REMARK    4  A    between atoms: C_7  and  C_8
REMARK    5  A    between atoms: C_8  and  O_10
REMARK    6  A    between atoms: C_11  and  C_12
REMARK    7  A    between atoms: C_12  and  C_13
REMARK    8  A    between atoms: C_13  and  C_15
REMARK                            x       y       z     vdW  Elec       q    Type
REMARK                         _______ _______ _______ _____ _____    ______ ____
ROOT
ATOM      1  C   UNL     1       2.469   6.495  19.275  0.00  0.00    +0.000 A 
ATOM      2  C   UNL     1       2.390   5.640  20.366  0.00  0.00    +0.000 A 
ATOM      3  C   UNL     1       2.808   4.312  20.249  0.00  0.00    +0.000 A 
ATOM      4  C   UNL     1       3.332   3.803  19.041  0.00  0.00    +0.000 A 
ATOM      5  C   UNL     1       3.420   4.677  17.921  0.00  0.00    +0.000 A 
ATOM      6  C   UNL     1       2.968   6.010  18.068  0.00  0.00    +0.000 A 
ENDROOT
BRANCH   1   8
ATOM      7  C   UNL     1       1.969   8.633  18.369  0.00  0.00    +0.000 C 
ATOM      8  O   UNL     1       2.033   7.771  19.501  0.00  0.00    +0.000 OA
ENDBRANCH   1   8
BRANCH   3   9
ATOM      9  O   UNL     1       2.693   3.504  21.357  0.00  0.00    +0.000 OA
ATOM     10  H   UNL     1       3.012   3.997  22.139  0.00  0.00    +0.000 HD
ENDBRANCH   3   9
BRANCH   4  11
ATOM     11  C   UNL     1       3.792   2.369  18.932  0.00  0.00    +0.000 C 
ATOM     12  O   UNL     1       3.212   1.522  18.275  0.00  0.00    +0.000 OA
BRANCH  11  13
ATOM     13  O   UNL     1       4.915   2.056  19.617  0.00  0.00    +0.000 OA
ATOM     14  H   UNL     1       5.695   2.577  19.326  0.00  0.00    +0.000 HD
ENDBRANCH  11  13
ENDBRANCH   4  11
BRANCH   5  15
ATOM     15  C   UNL     1       3.955   4.218  16.568  0.00  0.00    +0.000 C 
BRANCH  15  16
ATOM     16  C   UNL     1       5.471   4.153  16.436  0.00  0.00    +0.000 C 
ATOM     17  O   UNL     1       6.013   3.288  15.746  0.00  0.00    +0.000 OA
BRANCH  16  18
ATOM     18  C   UNL     1       6.329   5.193  17.089  0.00  0.00    +0.000 A 
ATOM     19  C   UNL     1       6.406   6.514  16.626  0.00  0.00    +0.000 A 
ATOM     20  C   UNL     1       7.215   7.445  17.286  0.00  0.00    +0.000 A 
ATOM     21  C   UNL     1       7.956   7.054  18.395  0.00  0.00    +0.000 A 
ATOM     22  F   UNL     1       8.720   7.952  19.028  0.00  0.00    +0.000 F 
ATOM     23  C   UNL     1       7.915   5.744  18.853  0.00  0.00    +0.000 A 
ATOM     24  C   UNL     1       7.105   4.812  18.199  0.00  0.00    +0.000 A 
ENDBRANCH  16  18
ENDBRANCH  15  16
ENDBRANCH   5  15
TORSDOF 7
ENDMDL
MODEL 5
REMARK VINA RESULT:      -7.6      1.881      3.265
REMARK  Name = 
REMARK  8 active torsions:
REMARK  status: ('A' for Active; 'I' for Inactive)
REMARK    1  A    between atoms: C_1  and  O_2
REMARK    2  A    between atoms: O_2  and  C_3
REMARK    3  A    between atoms: C_5  and  O_6
REMARK    4  A    between atoms: C_7  and  C_8
REMARK    5  A    between atoms: C_8  and  O_10
REMARK    6  A    between atoms: C_11  and  C_12
REMARK    7  A    between atoms: C_12  and  C_13
REMARK    8  A    between atoms: C_13  and  C_15
REMARK                            x       y       z     vdW  Elec       q    Type
REMARK                         _______ _______ _______ _____ _____    ______ ____
ROOT
ATOM      1  C   UNL     1       7.800   8.229  17.907  0.00  0.00    +0.000 A 
ATOM      2  C   UNL     1       8.386   7.267  18.718  0.00  0.00    +0.000 A 
ATOM      3  C   UNL     1       7.750   6.040  18.922  0.00  0.00    +0.000 A 
ATOM      4  C   UNL     1       6.515   5.733  18.310  0.00  0.00    +0.000 A 
ATOM      5  C   UNL     1       5.913   6.714  17.474  0.00  0.00    +0.000 A 
ATOM      6  C   UNL     1       6.573   7.954  17.305  0.00  0.00    +0.000 A 
ENDROOT
BRANCH   1   8
ATOM      7  C   UNL     1       9.024   9.962  18.976  0.00  0.00    +0.000 C 
ATOM      8  O   UNL     1       8.508   9.392  17.777  0.00  0.00    +0.000 OA
ENDBRANCH   1   8
BRANCH   3   9
ATOM      9  O   UNL     1       8.368   5.127  19.747  0.00  0.00    +0.000 OA
ATOM     10  H   UNL     1       8.261   5.419  20.674  0.00  0.00    +0.000 HD
ENDBRANCH   3   9
BRANCH   4  11
ATOM     11  C   UNL     1       5.846   4.397  18.530  0.00  0.00    +0.000 C 
ATOM     12  O   UNL     1       5.407   4.032  19.608  0.00  0.00    +0.000 OA
BRANCH  11  13
ATOM     13  O   UNL     1       5.748   3.600  17.444  0.00  0.00    +0.000 OA
ATOM     14  H   UNL     1       6.071   2.688  17.611  0.00  0.00    +0.000 HD
ENDBRANCH  11  13
ENDBRANCH   4  11
BRANCH   5  15
ATOM     15  C   UNL     1       4.572   6.486  16.784  0.00  0.00    +0.000 C 
BRANCH  15  16
ATOM     16  C   UNL     1       3.335   6.889  17.575  0.00  0.00    +0.000 C 
ATOM     17  O   UNL     1       2.882   8.033  17.509  0.00  0.00    +0.000 OA
BRANCH  16  18
ATOM     18  C   UNL     1       2.602   5.873  18.397  0.00  0.00    +0.000 A 
ATOM     19  C   UNL     1       2.059   4.702  17.849  0.00  0.00    +0.000 A 
ATOM     20  C   UNL     1       1.397   3.784  18.670  0.00  0.00    +0.000 A 
ATOM     21  C   UNL     1       1.263   4.040  20.030  0.00  0.00    +0.000 A 
ATOM     22  F   UNL     1       0.637   3.151  20.810  0.00  0.00    +0.000 F 
ATOM     23  C   UNL     1       1.770   5.207  20.587  0.00  0.00    +0.000 A 
ATOM     24  C   UNL     1       2.436   6.125  19.771  0.00  0.00    +0.000 A 
ENDBRANCH  16  18
ENDBRANCH  15  16
ENDBRANCH   5  15
TORSDOF 7
ENDMDL
MODEL 6
REMARK VINA RESULT:      -7.5      3.059      5.879
REMARK  Name = 
REMARK  8 active torsions:
REMARK  status: ('A' for Active; 'I' for Inactive)
REMARK    1  A    between atoms: C_1  and  O_2
REMARK    2  A    between atoms: O_2  and  C_3
REMARK    3  A    between atoms: C_5  and  O_6
REMARK    4  A    between atoms: C_7  and  C_8
REMARK    5  A    between atoms: C_8  and  O_10
REMARK    6  A    between atoms: C_11  and  C_12
REMARK    7  A    between atoms: C_12  and  C_13
REMARK    8  A    between atoms: C_13  and  C_15
REMARK                            x       y       z     vdW  Elec       q    Type
REMARK                         _______ _______ _______ _____ _____    ______ ____
ROOT
ATOM      1  C   UNL     1       2.476   6.415  19.049  0.00  0.00    +0.000 A 
ATOM      2  C   UNL     1       2.299   5.726  20.242  0.00  0.00    +0.000 A 
ATOM      3  C   UNL     1       2.696   4.391  20.347  0.00  0.00    +0.000 A 
ATOM      4  C   UNL     1       3.296   3.708  19.266  0.00  0.00    +0.000 A 
ATOM      5  C   UNL     1       3.484   4.411  18.042  0.00  0.00    +0.000 A 
ATOM      6  C   UNL     1       3.051   5.756  17.964  0.00  0.00    +0.000 A 
ENDROOT
BRANCH   1   8
ATOM      7  C   UNL     1       2.214   8.446  17.846  0.00  0.00    +0.000 C 
ATOM      8  O   UNL     1       2.053   7.714  19.058  0.00  0.00    +0.000 OA
ENDBRANCH   1   8
BRANCH   3   9
ATOM      9  O   UNL     1       2.484   3.751  21.547  0.00  0.00    +0.000 OA
ATOM     10  H   UNL     1       1.851   3.021  21.405  0.00  0.00    +0.000 HD
ENDBRANCH   3   9
BRANCH   4  11
ATOM     11  C   UNL     1       3.732   2.268  19.397  0.00  0.00    +0.000 C 
ATOM     12  O   UNL     1       4.697   1.912  20.052  0.00  0.00    +0.000 OA
BRANCH  11  13
ATOM     13  O   UNL     1       2.978   1.361  18.737  0.00  0.00    +0.000 OA
ATOM     14  H   UNL     1       2.074   1.275  19.111  0.00  0.00    +0.000 HD
ENDBRANCH  11  13
ENDBRANCH   4  11
BRANCH   5  15
ATOM     15  C   UNL     1       4.105   3.756  16.813  0.00  0.00    +0.000 C 
BRANCH  15  16
ATOM     16  C   UNL     1       5.221   4.538  16.131  0.00  0.00    +0.000 C 
ATOM     17  O   UNL     1       5.314   4.577  14.904  0.00  0.00    +0.000 OA
BRANCH  16  18
ATOM     18  C   UNL     1       6.187   5.340  16.950  0.00  0.00    +0.000 A 
ATOM     19  C   UNL     1       6.948   4.782  17.987  0.00  0.00    +0.000 A 
ATOM     20  C   UNL     1       7.844   5.579  18.708  0.00  0.00    +0.000 A 
ATOM     21  C   UNL     1       7.968   6.930  18.405  0.00  0.00    +0.000 A 
ATOM     22  F   UNL     1       8.835   7.683  19.092  0.00  0.00    +0.000 F 
ATOM     23  C   UNL     1       7.203   7.507  17.400  0.00  0.00    +0.000 A 
ATOM     24  C   UNL     1       6.310   6.714  16.675  0.00  0.00    +0.000 A 
ENDBRANCH  16  18
ENDBRANCH  15  16
ENDBRANCH   5  15
TORSDOF 7
ENDMDL
MODEL 7
REMARK VINA RESULT:      -7.4      3.225      6.243
REMARK  Name = 
REMARK  8 active torsions:
REMARK  status: ('A' for Active; 'I' for Inactive)
REMARK    1  A    between atoms: C_1  and  O_2
REMARK    2  A    between atoms: O_2  and  C_3
REMARK    3  A    between atoms: C_5  and  O_6
REMARK    4  A    between atoms: C_7  and  C_8
REMARK    5  A    between atoms: C_8  and  O_10
REMARK    6  A    between atoms: C_11  and  C_12
REMARK    7  A    between atoms: C_12  and  C_13
REMARK    8  A    between atoms: C_13  and  C_15
REMARK                            x       y       z     vdW  Elec       q    Type
REMARK                         _______ _______ _______ _____ _____    ______ ____
ROOT
ATOM      1  C   UNL     1       2.322   6.551  19.666  0.00  0.00    +0.000 A 
ATOM      2  C   UNL     1       2.083   5.636  20.683  0.00  0.00    +0.000 A 
ATOM      3  C   UNL     1       2.319   4.276  20.473  0.00  0.00    +0.000 A 
ATOM      4  C   UNL     1       2.816   3.790  19.244  0.00  0.00    +0.000 A 
ATOM      5  C   UNL     1       3.067   4.724  18.200  0.00  0.00    +0.000 A 
ATOM      6  C   UNL     1       2.797   6.092  18.439  0.00  0.00    +0.000 A 
ENDROOT
BRANCH   1   8
ATOM      7  C   UNL     1       1.182   8.081  21.083  0.00  0.00    +0.000 C 
ATOM      8  O   UNL     1       2.057   7.855  19.980  0.00  0.00    +0.000 OA
ENDBRANCH   1   8
BRANCH   3   9
ATOM      9  O   UNL     1       2.051   3.411  21.510  0.00  0.00    +0.000 OA
ATOM     10  H   UNL     1       1.202   3.668  21.920  0.00  0.00    +0.000 HD
ENDBRANCH   3   9
BRANCH   4  11
ATOM     11  C   UNL     1       3.079   2.318  19.035  0.00  0.00    +0.000 C 
ATOM     12  O   UNL     1       4.146   1.781  19.278  0.00  0.00    +0.000 OA
BRANCH  11  13
ATOM     13  O   UNL     1       2.042   1.596  18.554  0.00  0.00    +0.000 OA
ATOM     14  H   UNL     1       2.277   1.084  17.750  0.00  0.00    +0.000 HD
ENDBRANCH  11  13
ENDBRANCH   4  11
BRANCH   5  15
ATOM     15  C   UNL     1       3.587   4.297  16.830  0.00  0.00    +0.000 C 
BRANCH  15  16
ATOM     16  C   UNL     1       5.093   4.095  16.720  0.00  0.00    +0.000 C 
ATOM     17  O   UNL     1       5.563   3.110  16.150  0.00  0.00    +0.000 OA
BRANCH  16  18
ATOM     18  C   UNL     1       6.032   5.138  17.245  0.00  0.00    +0.000 A 
ATOM     19  C   UNL     1       6.117   6.427  16.700  0.00  0.00    +0.000 A 
ATOM     20  C   UNL     1       7.005   7.362  17.242  0.00  0.00    +0.000 A 
ATOM     21  C   UNL     1       7.816   7.007  18.313  0.00  0.00    +0.000 A 
ATOM     22  F   UNL     1       8.655   7.911  18.833  0.00  0.00    +0.000 F 
ATOM     23  C   UNL     1       7.767   5.727  18.850  0.00  0.00    +0.000 A 
ATOM     24  C   UNL     1       6.879   4.791  18.314  0.00  0.00    +0.000 A 
ENDBRANCH  16  18
ENDBRANCH  15  16
ENDBRANCH   5  15
TORSDOF 7
ENDMDL
MODEL 8
REMARK VINA RESULT:      -7.1      0.857      1.112
REMARK  Name = 
REMARK  8 active torsions:
REMARK  status: ('A' for Active; 'I' for Inactive)
REMARK    1  A    between atoms: C_1  and  O_2
REMARK    2  A    between atoms: O_2  and  C_3
REMARK    3  A    between atoms: C_5  and  O_6
REMARK    4  A    between atoms: C_7  and  C_8
REMARK    5  A    between atoms: C_8  and  O_10
REMARK    6  A    between atoms: C_11  and  C_12
REMARK    7  A    between atoms: C_12  and  C_13
REMARK    8  A    between atoms: C_13  and  C_15
REMARK                            x       y       z     vdW  Elec       q    Type
REMARK                         _______ _______ _______ _____ _____    ______ ____
ROOT
ATOM      1  C   UNL     1       5.582   4.642  14.986  0.00  0.00    +0.000 A 
ATOM      2  C   UNL     1       6.765   4.100  15.469  0.00  0.00    +0.000 A 
ATOM      3  C   UNL     1       7.271   4.509  16.704  0.00  0.00    +0.000 A 
ATOM      4  C   UNL     1       6.601   5.463  17.502  0.00  0.00    +0.000 A 
ATOM      5  C   UNL     1       5.385   6.018  17.013  0.00  0.00    +0.000 A 
ATOM      6  C   UNL     1       4.911   5.597  15.749  0.00  0.00    +0.000 A 
ENDROOT
BRANCH   1   8
ATOM      7  C   UNL     1       6.187   3.597  12.940  0.00  0.00    +0.000 C 
ATOM      8  O   UNL     1       5.179   4.170  13.767  0.00  0.00    +0.000 OA
ENDBRANCH   1   8
BRANCH   3   9
ATOM      9  O   UNL     1       8.456   3.951  17.129  0.00  0.00    +0.000 OA
ATOM     10  H   UNL     1       9.110   4.665  17.257  0.00  0.00    +0.000 HD
ENDBRANCH   3   9
BRANCH   4  11
ATOM     11  C   UNL     1       7.154   5.886  18.842  0.00  0.00    +0.000 C 
ATOM     12  O   UNL     1       8.077   6.671  18.974  0.00  0.00    +0.000 OA
BRANCH  11  13
ATOM     13  O   UNL     1       6.557   5.341  19.925  0.00  0.00    +0.000 OA
ATOM     14  H   UNL     1       5.699   4.913  19.712  0.00  0.00    +0.000 HD
ENDBRANCH  11  13
ENDBRANCH   4  11
BRANCH   5  15
ATOM     15  C   UNL     1       4.597   7.067  17.791  0.00  0.00    +0.000 C 
BRANCH  15  16
ATOM     16  C   UNL     1       3.175   6.682  18.179  0.00  0.00    +0.000 C 
ATOM     17  O   UNL     1       2.204   7.285  17.719  0.00  0.00    +0.000 OA
BRANCH  16  18
ATOM     18  C   UNL     1       2.931   5.507  19.077  0.00  0.00    +0.000 A 
ATOM     19  C   UNL     1       3.431   4.226  18.804  0.00  0.00    +0.000 A 
ATOM     20  C   UNL     1       3.181   3.171  19.687  0.00  0.00    +0.000 A 
ATOM     21  C   UNL     1       2.422   3.391  20.831  0.00  0.00    +0.000 A 
ATOM     22  F   UNL     1       2.196   2.379  21.677  0.00  0.00    +0.000 F 
ATOM     23  C   UNL     1       1.894   4.646  21.105  0.00  0.00    +0.000 A 
ATOM     24  C   UNL     1       2.145   5.703  20.228  0.00  0.00    +0.000 A 
ENDBRANCH  16  18
ENDBRANCH  15  16
ENDBRANCH   5  15
TORSDOF 7
ENDMDL
MODEL 9
REMARK VINA RESULT:      -7.0      3.202      5.996
REMARK  Name = 
REMARK  8 active torsions:
REMARK  status: ('A' for Active; 'I' for Inactive)
REMARK    1  A    between atoms: C_1  and  O_2
REMARK    2  A    between atoms: O_2  and  C_3
REMARK    3  A    between atoms: C_5  and  O_6
REMARK    4  A    between atoms: C_7  and  C_8
REMARK    5  A    between atoms: C_8  and  O_10
REMARK    6  A    between atoms: C_11  and  C_12
REMARK    7  A    between atoms: C_12  and  C_13
REMARK    8  A    between atoms: C_13  and  C_15
REMARK                            x       y       z     vdW  Elec       q    Type
REMARK                         _______ _______ _______ _____ _____    ______ ____
ROOT
ATOM      1  C   UNL     1       2.312   7.955  18.115  0.00  0.00    +0.000 A 
ATOM      2  C   UNL     1       2.018   8.131  19.460  0.00  0.00    +0.000 A 
ATOM      3  C   UNL     1       1.818   7.023  20.286  0.00  0.00    +0.000 A 
ATOM      4  C   UNL     1       1.920   5.703  19.794  0.00  0.00    +0.000 A 
ATOM      5  C   UNL     1       2.226   5.517  18.417  0.00  0.00    +0.000 A 
ATOM      6  C   UNL     1       2.402   6.661  17.604  0.00  0.00    +0.000 A 
ENDROOT
BRANCH   1   8
ATOM      7  C   UNL     1       1.912  10.290  17.945  0.00  0.00    +0.000 C 
ATOM      8  O   UNL     1       2.489   9.107  17.400  0.00  0.00    +0.000 OA
ENDBRANCH   1   8
BRANCH   3   9
ATOM      9  O   UNL     1       1.514   7.255  21.608  0.00  0.00    +0.000 OA
ATOM     10  H   UNL     1       2.188   7.855  21.983  0.00  0.00    +0.000 HD
ENDBRANCH   3   9
BRANCH   4  11
ATOM     11  C   UNL     1       1.713   4.513  20.701  0.00  0.00    +0.000 C 
ATOM     12  O   UNL     1       2.489   4.197  21.587  0.00  0.00    +0.000 OA
BRANCH  11  13
ATOM     13  O   UNL     1       0.590   3.794  20.483  0.00  0.00    +0.000 OA
ATOM     14  H   UNL     1       0.650   2.880  20.836  0.00  0.00    +0.000 HD
ENDBRANCH  11  13
ENDBRANCH   4  11
BRANCH   5  15
ATOM     15  C   UNL     1       2.340   4.132  17.786  0.00  0.00    +0.000 C 
BRANCH  15  16
ATOM     16  C   UNL     1       3.729   3.507  17.793  0.00  0.00    +0.000 C 
ATOM     17  O   UNL     1       3.881   2.293  17.650  0.00  0.00    +0.000 OA
BRANCH  16  18
ATOM     18  C   UNL     1       4.945   4.376  17.901  0.00  0.00    +0.000 A 
ATOM     19  C   UNL     1       5.596   4.914  16.782  0.00  0.00    +0.000 A 
ATOM     20  C   UNL     1       6.720   5.730  16.947  0.00  0.00    +0.000 A 
ATOM     21  C   UNL     1       7.201   5.995  18.224  0.00  0.00    +0.000 A 
ATOM     22  F   UNL     1       8.271   6.785  18.374  0.00  0.00    +0.000 F 
ATOM     23  C   UNL     1       6.588   5.450  19.344  0.00  0.00    +0.000 A 
ATOM     24  C   UNL     1       5.462   4.638  19.183  0.00  0.00    +0.000 A 
ENDBRANCH  16  18
ENDBRANCH  15  16
ENDBRANCH   5  15
TORSDOF 7
ENDMDL
