MODEL 1
REMARK VINA RESULT:      -8.1      0.000      0.000
REMARK  Name = 
REMARK  4 active torsions:
REMARK  status: ('A' for Active; 'I' for Inactive)
REMARK    1  A    between atoms: C_2  and  C_3
REMARK    2  A    between atoms: C_2  and  C_15
REMARK    3  A    between atoms: C_4  and  C_5
REMARK    4  A    between atoms: C_18  and  N_19
REMARK                            x       y       z     vdW  Elec       q    Type
REMARK                         _______ _______ _______ _____ _____    ______ ____
ROOT
ATOM      1  C   UNL     1       4.185   5.678  19.140  0.00  0.00    +0.000 C 
ATOM      2  C   UNL     1       3.216   6.194  18.369  0.00  0.00    +0.000 C 
ENDROOT
BRANCH   2   3
ATOM      3  C   UNL     1       2.428   7.360  18.790  0.00  0.00    +0.000 A 
ATOM      4  C   UNL     1       2.123   8.388  17.911  0.00  0.00    +0.000 A 
ATOM      5  N   UNL     1       1.440   9.497  18.284  0.00  0.00    +0.000 NA
ATOM      6  C   UNL     1       1.060   9.559  19.575  0.00  0.00    +0.000 A 
ATOM      7  C   UNL     1       0.373  10.675  20.036  0.00  0.00    +0.000 A 
ATOM      8  C   UNL     1      -0.044  10.775  21.365  0.00  0.00    +0.000 A 
ATOM      9  C   UNL     1       0.230   9.739  22.248  0.00  0.00    +0.000 A 
ATOM     10  C   UNL     1       0.925   8.615  21.797  0.00  0.00    +0.000 A 
ATOM     11  C   UNL     1       1.349   8.506  20.477  0.00  0.00    +0.000 A 
ATOM     12  N   UNL     1       2.029   7.411  20.084  0.00  0.00    +0.000 NA
ENDBRANCH   2   3
BRANCH   1  14
ATOM     13  O   UNL     1       5.182   3.528  19.378  0.00  0.00    +0.000 OA
ATOM     14  C   UNL     1       5.012   4.530  18.691  0.00  0.00    +0.000 C 
BRANCH  14  15
ATOM     15  C   UNL     1       5.609   4.638  17.331  0.00  0.00    +0.000 A 
ATOM     16  C   UNL     1       4.941   4.081  16.231  0.00  0.00    +0.000 A 
ATOM     17  C   UNL     1       5.507   4.161  14.951  0.00  0.00    +0.000 A 
ATOM     18  C   UNL     1       6.747   4.794  14.781  0.00  0.00    +0.000 A 
ATOM     19  C   UNL     1       7.420   5.348  15.876  0.00  0.00    +0.000 A 
ATOM     20  C   UNL     1       6.851   5.265  17.148  0.00  0.00    +0.000 A 
BRANCH  18  21
ATOM     21  N   UNL     1       7.355   4.873  13.447  0.00  0.00    +0.000 N 
ATOM     22  O   UNL     1       8.280   5.679  13.280  0.00  0.00    +0.000 OA
ATOM     23  O   UNL     1       6.904   4.127  12.564  0.00  0.00    +0.000 OA
ENDBRANCH  18  21
ENDBRANCH  14  15
ENDBRANCH   1  14
TORSDOF 4
ENDMDL
MODEL 2
REMARK VINA RESULT:      -8.0      0.530      1.140
REMARK  Name = 
REMARK  4 active torsions:
REMARK  status: ('A' for Active; 'I' for Inactive)
REMARK    1  A    between atoms: C_2  and  C_3
REMARK    2  A    between atoms: C_2  and  C_15
REMARK    3  A    between atoms: C_4  and  C_5
REMARK    4  A    between atoms: C_18  and  N_19
REMARK                            x       y       z     vdW  Elec       q    Type
REMARK                         _______ _______ _______ _____ _____    ______ ____
ROOT
ATOM      1  C   UNL     1       3.401   5.357  19.316  0.00  0.00    +0.000 C 
ATOM      2  C   UNL     1       3.301   6.461  18.561  0.00  0.00    +0.000 C 
ENDROOT
BRANCH   2   3
ATOM      3  C   UNL     1       2.397   7.563  18.913  0.00  0.00    +0.000 A 
ATOM      4  C   UNL     1       2.011   8.515  17.981  0.00  0.00    +0.000 A 
ATOM      5  N   UNL     1       1.217   9.568  18.291  0.00  0.00    +0.000 NA
ATOM      6  C   UNL     1       0.810   9.653  19.572  0.00  0.00    +0.000 A 
ATOM      7  C   UNL     1       0.010  10.717  19.970  0.00  0.00    +0.000 A 
ATOM      8  C   UNL     1      -0.439  10.839  21.286  0.00  0.00    +0.000 A 
ATOM      9  C   UNL     1      -0.082   9.877  22.222  0.00  0.00    +0.000 A 
ATOM     10  C   UNL     1       0.726   8.806  21.836  0.00  0.00    +0.000 A 
ATOM     11  C   UNL     1       1.183   8.677  20.529  0.00  0.00    +0.000 A 
ATOM     12  N   UNL     1       1.972   7.636  20.198  0.00  0.00    +0.000 NA
ENDBRANCH   2   3
BRANCH   1  14
ATOM     13  O   UNL     1       4.503   3.279  19.697  0.00  0.00    +0.000 OA
ATOM     14  C   UNL     1       4.351   4.266  18.983  0.00  0.00    +0.000 C 
BRANCH  14  15
ATOM     15  C   UNL     1       5.100   4.409  17.704  0.00  0.00    +0.000 A 
ATOM     16  C   UNL     1       6.382   4.976  17.708  0.00  0.00    +0.000 A 
ATOM     17  C   UNL     1       7.084   5.131  16.504  0.00  0.00    +0.000 A 
ATOM     18  C   UNL     1       6.492   4.724  15.299  0.00  0.00    +0.000 A 
ATOM     19  C   UNL     1       5.211   4.161  15.290  0.00  0.00    +0.000 A 
ATOM     20  C   UNL     1       4.517   4.009  16.491  0.00  0.00    +0.000 A 
BRANCH  18  21
ATOM     21  N   UNL     1       7.214   4.893  14.032  0.00  0.00    +0.000 N 
ATOM     22  O   UNL     1       8.178   5.669  14.015  0.00  0.00    +0.000 OA
ATOM     23  O   UNL     1       6.815   4.245  13.052  0.00  0.00    +0.000 OA
ENDBRANCH  18  21
ENDBRANCH  14  15
ENDBRANCH   1  14
TORSDOF 4
ENDMDL
MODEL 3
REMARK VINA RESULT:      -8.0      1.651      2.171
REMARK  Name = 
REMARK  4 active torsions:
REMARK  status: ('A' for Active; 'I' for Inactive)
REMARK    1  A    between atoms: C_2  and  C_3
REMARK    2  A    between atoms: C_2  and  C_15
REMARK    3  A    between atoms: C_4  and  C_5
REMARK    4  A    between atoms: C_18  and  N_19
REMARK                            x       y       z     vdW  Elec       q    Type
REMARK                         _______ _______ _______ _____ _____    ______ ____
ROOT
ATOM      1  C   UNL     1       2.163   5.464  20.435  0.00  0.00    +0.000 C 
ATOM      2  C   UNL     1       2.376   6.585  19.731  0.00  0.00    +0.000 C 
ENDROOT
BRANCH   2   3
ATOM      3  C   UNL     1       1.670   7.838  20.033  0.00  0.00    +0.000 A 
ATOM      4  C   UNL     1       1.654   8.899  19.140  0.00  0.00    +0.000 A 
ATOM      5  N   UNL     1       1.052  10.081  19.413  0.00  0.00    +0.000 NA
ATOM      6  C   UNL     1       0.455  10.184  20.616  0.00  0.00    +0.000 A 
ATOM      7  C   UNL     1      -0.166  11.374  20.976  0.00  0.00    +0.000 A 
ATOM      8  C   UNL     1      -0.801  11.519  22.211  0.00  0.00    +0.000 A 
ATOM      9  C   UNL     1      -0.816  10.454  23.102  0.00  0.00    +0.000 A 
ATOM     10  C   UNL     1      -0.190   9.256  22.754  0.00  0.00    +0.000 A 
ATOM     11  C   UNL     1       0.449   9.101  21.529  0.00  0.00    +0.000 A 
ATOM     12  N   UNL     1       1.053   7.932  21.236  0.00  0.00    +0.000 NA
ENDBRANCH   2   3
BRANCH   1  14
ATOM     13  O   UNL     1       2.741   3.182  20.800  0.00  0.00    +0.000 OA
ATOM     14  C   UNL     1       2.914   4.214  20.159  0.00  0.00    +0.000 C 
BRANCH  14  15
ATOM     15  C   UNL     1       3.878   4.259  19.025  0.00  0.00    +0.000 A 
ATOM     16  C   UNL     1       3.464   3.871  17.742  0.00  0.00    +0.000 A 
ATOM     17  C   UNL     1       4.373   3.892  16.675  0.00  0.00    +0.000 A 
ATOM     18  C   UNL     1       5.697   4.296  16.901  0.00  0.00    +0.000 A 
ATOM     19  C   UNL     1       6.116   4.681  18.180  0.00  0.00    +0.000 A 
ATOM     20  C   UNL     1       5.207   4.657  19.238  0.00  0.00    +0.000 A 
BRANCH  18  21
ATOM     21  N   UNL     1       6.659   4.311  15.792  0.00  0.00    +0.000 N 
ATOM     22  O   UNL     1       6.245   4.018  14.663  0.00  0.00    +0.000 OA
ATOM     23  O   UNL     1       7.832   4.619  16.053  0.00  0.00    +0.000 OA
ENDBRANCH  18  21
ENDBRANCH  14  15
ENDBRANCH   1  14
TORSDOF 4
ENDMDL
MODEL 4
REMARK VINA RESULT:      -7.9      3.330      8.590
REMARK  Name = 
REMARK  4 active torsions:
REMARK  status: ('A' for Active; 'I' for Inactive)
REMARK    1  A    between atoms: C_2  and  C_3
REMARK    2  A    between atoms: C_2  and  C_15
REMARK    3  A    between atoms: C_4  and  C_5
REMARK    4  A    between atoms: C_18  and  N_19
REMARK                            x       y       z     vdW  Elec       q    Type
REMARK                         _______ _______ _______ _____ _____    ______ ____
ROOT
ATOM      1  C   UNL     1       3.764   6.065  17.853  0.00  0.00    +0.000 C 
ATOM      2  C   UNL     1       4.852   5.283  17.797  0.00  0.00    +0.000 C 
ENDROOT
BRANCH   2   3
ATOM      3  C   UNL     1       5.634   5.129  16.563  0.00  0.00    +0.000 A 
ATOM      4  C   UNL     1       6.875   5.728  16.408  0.00  0.00    +0.000 A 
ATOM      5  N   UNL     1       7.596   5.642  15.264  0.00  0.00    +0.000 NA
ATOM      6  C   UNL     1       7.043   4.932  14.262  0.00  0.00    +0.000 A 
ATOM      7  C   UNL     1       7.715   4.816  13.051  0.00  0.00    +0.000 A 
ATOM      8  C   UNL     1       7.179   4.084  11.989  0.00  0.00    +0.000 A 
ATOM      9  C   UNL     1       5.950   3.456  12.142  0.00  0.00    +0.000 A 
ATOM     10  C   UNL     1       5.264   3.570  13.352  0.00  0.00    +0.000 A 
ATOM     11  C   UNL     1       5.785   4.300  14.415  0.00  0.00    +0.000 A 
ATOM     12  N   UNL     1       5.086   4.397  15.563  0.00  0.00    +0.000 NA
ENDBRANCH   2   3
BRANCH   1  14
ATOM     13  O   UNL     1       3.036   5.449  20.036  0.00  0.00    +0.000 OA
ATOM     14  C   UNL     1       3.004   6.258  19.114  0.00  0.00    +0.000 C 
BRANCH  14  15
ATOM     15  C   UNL     1       2.215   7.516  19.224  0.00  0.00    +0.000 A 
ATOM     16  C   UNL     1       2.021   8.318  18.091  0.00  0.00    +0.000 A 
ATOM     17  C   UNL     1       1.296   9.514  18.193  0.00  0.00    +0.000 A 
ATOM     18  C   UNL     1       0.773   9.903  19.435  0.00  0.00    +0.000 A 
ATOM     19  C   UNL     1       0.966   9.107  20.570  0.00  0.00    +0.000 A 
ATOM     20  C   UNL     1       1.690   7.918  20.462  0.00  0.00    +0.000 A 
BRANCH  18  21
ATOM     21  N   UNL     1       0.022  11.158  19.555  0.00  0.00    +0.000 N 
ATOM     22  O   UNL     1       0.665  12.205  19.705  0.00  0.00    +0.000 OA
ATOM     23  O   UNL     1      -1.216  11.095  19.497  0.00  0.00    +0.000 OA
ENDBRANCH  18  21
ENDBRANCH  14  15
ENDBRANCH   1  14
TORSDOF 4
ENDMDL
MODEL 5
REMARK VINA RESULT:      -7.9      1.660      2.412
REMARK  Name = 
REMARK  4 active torsions:
REMARK  status: ('A' for Active; 'I' for Inactive)
REMARK    1  A    between atoms: C_2  and  C_3
REMARK    2  A    between atoms: C_2  and  C_15
REMARK    3  A    between atoms: C_4  and  C_5
REMARK    4  A    between atoms: C_18  and  N_19
REMARK                            x       y       z     vdW  Elec       q    Type
REMARK                         _______ _______ _______ _____ _____    ______ ____
ROOT
ATOM      1  C   UNL     1       1.967   5.502  20.138  0.00  0.00    +0.000 C 
ATOM      2  C   UNL     1       2.487   6.736  20.057  0.00  0.00    +0.000 C 
ENDROOT
BRANCH   2   3
ATOM      3  C   UNL     1       1.660   7.938  20.222  0.00  0.00    +0.000 A 
ATOM      4  C   UNL     1       1.499   8.858  19.196  0.00  0.00    +0.000 A 
ATOM      5  N   UNL     1       0.782   9.999  19.337  0.00  0.00    +0.000 NA
ATOM      6  C   UNL     1       0.219  10.206  20.543  0.00  0.00    +0.000 A 
ATOM      7  C   UNL     1      -0.515  11.364  20.768  0.00  0.00    +0.000 A 
ATOM      8  C   UNL     1      -1.120  11.613  22.002  0.00  0.00    +0.000 A 
ATOM      9  C   UNL     1      -0.990  10.687  23.027  0.00  0.00    +0.000 A 
ATOM     10  C   UNL     1      -0.250   9.522  22.814  0.00  0.00    +0.000 A 
ATOM     11  C   UNL     1       0.361   9.265  21.592  0.00  0.00    +0.000 A 
ATOM     12  N   UNL     1       1.077   8.135  21.430  0.00  0.00    +0.000 NA
ENDBRANCH   2   3
BRANCH   1  14
ATOM     13  O   UNL     1       2.693   3.321  20.766  0.00  0.00    +0.000 OA
ATOM     14  C   UNL     1       2.813   4.288  20.020  0.00  0.00    +0.000 C 
BRANCH  14  15
ATOM     15  C   UNL     1       3.811   4.283  18.914  0.00  0.00    +0.000 A 
ATOM     16  C   UNL     1       5.147   4.614  19.179  0.00  0.00    +0.000 A 
ATOM     17  C   UNL     1       6.086   4.631  18.139  0.00  0.00    +0.000 A 
ATOM     18  C   UNL     1       5.678   4.322  16.833  0.00  0.00    +0.000 A 
ATOM     19  C   UNL     1       4.345   3.994  16.562  0.00  0.00    +0.000 A 
ATOM     20  C   UNL     1       3.414   3.980  17.602  0.00  0.00    +0.000 A 
BRANCH  18  21
ATOM     21  N   UNL     1       6.652   4.347  15.734  0.00  0.00    +0.000 N 
ATOM     22  O   UNL     1       6.235   4.132  14.588  0.00  0.00    +0.000 OA
ATOM     23  O   UNL     1       7.835   4.583  16.019  0.00  0.00    +0.000 OA
ENDBRANCH  18  21
ENDBRANCH  14  15
ENDBRANCH   1  14
TORSDOF 4
ENDMDL
MODEL 6
REMARK VINA RESULT:      -7.9      3.349      8.661
REMARK  Name = 
REMARK  4 active torsions:
REMARK  status: ('A' for Active; 'I' for Inactive)
REMARK    1  A    between atoms: C_2  and  C_3
REMARK    2  A    between atoms: C_2  and  C_15
REMARK    3  A    between atoms: C_4  and  C_5
REMARK    4  A    between atoms: C_18  and  N_19
REMARK                            x       y       z     vdW  Elec       q    Type
REMARK                         _______ _______ _______ _____ _____    ______ ____
ROOT
ATOM      1  C   UNL     1       3.859   6.199  17.927  0.00  0.00    +0.000 C 
ATOM      2  C   UNL     1       4.674   5.156  17.714  0.00  0.00    +0.000 C 
ENDROOT
BRANCH   2   3
ATOM      3  C   UNL     1       5.516   5.060  16.514  0.00  0.00    +0.000 A 
ATOM      4  C   UNL     1       6.733   5.719  16.423  0.00  0.00    +0.000 A 
ATOM      5  N   UNL     1       7.506   5.687  15.311  0.00  0.00    +0.000 NA
ATOM      6  C   UNL     1       7.031   4.970  14.274  0.00  0.00    +0.000 A 
ATOM      7  C   UNL     1       7.759   4.908  13.092  0.00  0.00    +0.000 A 
ATOM      8  C   UNL     1       7.305   4.171  11.996  0.00  0.00    +0.000 A 
ATOM      9  C   UNL     1       6.102   3.483  12.085  0.00  0.00    +0.000 A 
ATOM     10  C   UNL     1       5.359   3.544  13.265  0.00  0.00    +0.000 A 
ATOM     11  C   UNL     1       5.799   4.278  14.361  0.00  0.00    +0.000 A 
ATOM     12  N   UNL     1       5.046   4.322  15.478  0.00  0.00    +0.000 NA
ENDBRANCH   2   3
BRANCH   1  14
ATOM     13  O   UNL     1       3.061   5.467  20.049  0.00  0.00    +0.000 OA
ATOM     14  C   UNL     1       3.047   6.317  19.163  0.00  0.00    +0.000 C 
BRANCH  14  15
ATOM     15  C   UNL     1       2.224   7.551  19.299  0.00  0.00    +0.000 A 
ATOM     16  C   UNL     1       1.633   7.862  20.532  0.00  0.00    +0.000 A 
ATOM     17  C   UNL     1       0.841   9.011  20.661  0.00  0.00    +0.000 A 
ATOM     18  C   UNL     1       0.640   9.842  19.549  0.00  0.00    +0.000 A 
ATOM     19  C   UNL     1       1.226   9.535  18.315  0.00  0.00    +0.000 A 
ATOM     20  C   UNL     1       2.012   8.388  18.193  0.00  0.00    +0.000 A 
BRANCH  18  21
ATOM     21  N   UNL     1      -0.196  11.043  19.670  0.00  0.00    +0.000 N 
ATOM     22  O   UNL     1      -0.248  11.811  18.701  0.00  0.00    +0.000 OA
ATOM     23  O   UNL     1      -0.802  11.216  20.738  0.00  0.00    +0.000 OA
ENDBRANCH  18  21
ENDBRANCH  14  15
ENDBRANCH   1  14
TORSDOF 4
ENDMDL
MODEL 7
REMARK VINA RESULT:      -7.8      1.487      2.139
REMARK  Name = 
REMARK  4 active torsions:
REMARK  status: ('A' for Active; 'I' for Inactive)
REMARK    1  A    between atoms: C_2  and  C_3
REMARK    2  A    between atoms: C_2  and  C_15
REMARK    3  A    between atoms: C_4  and  C_5
REMARK    4  A    between atoms: C_18  and  N_19
REMARK                            x       y       z     vdW  Elec       q    Type
REMARK                         _______ _______ _______ _____ _____    ______ ____
ROOT
ATOM      1  C   UNL     1       2.526   6.778  19.264  0.00  0.00    +0.000 C 
ATOM      2  C   UNL     1       2.019   7.216  20.426  0.00  0.00    +0.000 C 
ENDROOT
BRANCH   2   3
ATOM      3  C   UNL     1       1.229   8.451  20.512  0.00  0.00    +0.000 A 
ATOM      4  C   UNL     1       1.144   9.338  19.449  0.00  0.00    +0.000 A 
ATOM      5  N   UNL     1       0.462  10.506  19.518  0.00  0.00    +0.000 NA
ATOM      6  C   UNL     1      -0.146  10.775  20.689  0.00  0.00    +0.000 A 
ATOM      7  C   UNL     1      -0.848  11.965  20.842  0.00  0.00    +0.000 A 
ATOM      8  C   UNL     1      -1.496  12.279  22.038  0.00  0.00    +0.000 A 
ATOM      9  C   UNL     1      -1.443  11.386  23.100  0.00  0.00    +0.000 A 
ATOM     10  C   UNL     1      -0.735  10.191  22.961  0.00  0.00    +0.000 A 
ATOM     11  C   UNL     1      -0.082   9.869  21.776  0.00  0.00    +0.000 A 
ATOM     12  N   UNL     1       0.601   8.711  21.686  0.00  0.00    +0.000 NA
ENDBRANCH   2   3
BRANCH   1  14
ATOM     13  O   UNL     1       3.208   4.627  20.026  0.00  0.00    +0.000 OA
ATOM     14  C   UNL     1       3.282   5.505  19.172  0.00  0.00    +0.000 C 
BRANCH  14  15
ATOM     15  C   UNL     1       4.124   5.323  17.957  0.00  0.00    +0.000 A 
ATOM     16  C   UNL     1       4.322   4.037  17.433  0.00  0.00    +0.000 A 
ATOM     17  C   UNL     1       5.130   3.857  16.302  0.00  0.00    +0.000 A 
ATOM     18  C   UNL     1       5.743   4.969  15.704  0.00  0.00    +0.000 A 
ATOM     19  C   UNL     1       5.551   6.253  16.225  0.00  0.00    +0.000 A 
ATOM     20  C   UNL     1       4.746   6.426  17.352  0.00  0.00    +0.000 A 
BRANCH  18  21
ATOM     21  N   UNL     1       6.600   4.790  14.525  0.00  0.00    +0.000 N 
ATOM     22  O   UNL     1       6.266   3.936  13.693  0.00  0.00    +0.000 OA
ATOM     23  O   UNL     1       7.608   5.506  14.433  0.00  0.00    +0.000 OA
ENDBRANCH  18  21
ENDBRANCH  14  15
ENDBRANCH   1  14
TORSDOF 4
ENDMDL
MODEL 8
REMARK VINA RESULT:      -7.8      0.861      1.771
REMARK  Name = 
REMARK  4 active torsions:
REMARK  status: ('A' for Active; 'I' for Inactive)
REMARK    1  A    between atoms: C_2  and  C_3
REMARK    2  A    between atoms: C_2  and  C_15
REMARK    3  A    between atoms: C_4  and  C_5
REMARK    4  A    between atoms: C_18  and  N_19
REMARK                            x       y       z     vdW  Elec       q    Type
REMARK                         _______ _______ _______ _____ _____    ______ ____
ROOT
ATOM      1  C   UNL     1       4.239   5.460  19.465  0.00  0.00    +0.000 C 
ATOM      2  C   UNL     1       2.997   5.763  19.062  0.00  0.00    +0.000 C 
ENDROOT
BRANCH   2   3
ATOM      3  C   UNL     1       2.287   6.950  19.558  0.00  0.00    +0.000 A 
ATOM      4  C   UNL     1       1.701   6.976  20.814  0.00  0.00    +0.000 A 
ATOM      5  N   UNL     1       1.000   8.039  21.277  0.00  0.00    +0.000 NA
ATOM      6  C   UNL     1       0.896   9.094  20.447  0.00  0.00    +0.000 A 
ATOM      7  C   UNL     1       0.175  10.213  20.845  0.00  0.00    +0.000 A 
ATOM      8  C   UNL     1       0.048  11.329  20.015  0.00  0.00    +0.000 A 
ATOM      9  C   UNL     1       0.655  11.326  18.767  0.00  0.00    +0.000 A 
ATOM     10  C   UNL     1       1.377  10.205  18.354  0.00  0.00    +0.000 A 
ATOM     11  C   UNL     1       1.506   9.086  19.169  0.00  0.00    +0.000 A 
ATOM     12  N   UNL     1       2.201   8.019  18.728  0.00  0.00    +0.000 NA
ENDBRANCH   2   3
BRANCH   1  14
ATOM     13  O   UNL     1       5.077   3.231  19.540  0.00  0.00    +0.000 OA
ATOM     14  C   UNL     1       4.972   4.288  18.925  0.00  0.00    +0.000 C 
BRANCH  14  15
ATOM     15  C   UNL     1       5.556   4.443  17.564  0.00  0.00    +0.000 A 
ATOM     16  C   UNL     1       4.779   4.146  16.435  0.00  0.00    +0.000 A 
ATOM     17  C   UNL     1       5.330   4.271  15.152  0.00  0.00    +0.000 A 
ATOM     18  C   UNL     1       6.661   4.687  15.007  0.00  0.00    +0.000 A 
ATOM     19  C   UNL     1       7.442   4.982  16.131  0.00  0.00    +0.000 A 
ATOM     20  C   UNL     1       6.889   4.855  17.406  0.00  0.00    +0.000 A 
BRANCH  18  21
ATOM     21  N   UNL     1       7.251   4.811  13.668  0.00  0.00    +0.000 N 
ATOM     22  O   UNL     1       6.802   4.087  12.770  0.00  0.00    +0.000 OA
ATOM     23  O   UNL     1       8.164   5.637  13.515  0.00  0.00    +0.000 OA
ENDBRANCH  18  21
ENDBRANCH  14  15
ENDBRANCH   1  14
TORSDOF 4
ENDMDL
MODEL 9
REMARK VINA RESULT:      -7.8      0.896      1.950
REMARK  Name = 
REMARK  4 active torsions:
REMARK  status: ('A' for Active; 'I' for Inactive)
REMARK    1  A    between atoms: C_2  and  C_3
REMARK    2  A    between atoms: C_2  and  C_15
REMARK    3  A    between atoms: C_4  and  C_5
REMARK    4  A    between atoms: C_18  and  N_19
REMARK                            x       y       z     vdW  Elec       q    Type
REMARK                         _______ _______ _______ _____ _____    ______ ____
ROOT
ATOM      1  C   UNL     1       4.173   5.319  19.564  0.00  0.00    +0.000 C 
ATOM      2  C   UNL     1       3.063   5.778  18.967  0.00  0.00    +0.000 C 
ENDROOT
BRANCH   2   3
ATOM      3  C   UNL     1       2.345   6.958  19.465  0.00  0.00    +0.000 A 
ATOM      4  C   UNL     1       1.756   6.977  20.721  0.00  0.00    +0.000 A 
ATOM      5  N   UNL     1       1.048   8.034  21.185  0.00  0.00    +0.000 NA
ATOM      6  C   UNL     1       0.939   9.091  20.357  0.00  0.00    +0.000 A 
ATOM      7  C   UNL     1       0.210  10.205  20.757  0.00  0.00    +0.000 A 
ATOM      8  C   UNL     1       0.077  11.322  19.930  0.00  0.00    +0.000 A 
ATOM      9  C   UNL     1       0.687  11.327  18.683  0.00  0.00    +0.000 A 
ATOM     10  C   UNL     1       1.416  10.211  18.268  0.00  0.00    +0.000 A 
ATOM     11  C   UNL     1       1.551   9.091  19.080  0.00  0.00    +0.000 A 
ATOM     12  N   UNL     1       2.253   8.029  18.638  0.00  0.00    +0.000 NA
ENDBRANCH   2   3
BRANCH   1  14
ATOM     13  O   UNL     1       5.028   3.097  19.642  0.00  0.00    +0.000 OA
ATOM     14  C   UNL     1       4.923   4.156  19.030  0.00  0.00    +0.000 C 
BRANCH  14  15
ATOM     15  C   UNL     1       5.525   4.322  17.678  0.00  0.00    +0.000 A 
ATOM     16  C   UNL     1       6.757   4.978  17.539  0.00  0.00    +0.000 A 
ATOM     17  C   UNL     1       7.319   5.156  16.267  0.00  0.00    +0.000 A 
ATOM     18  C   UNL     1       6.638   4.680  15.137  0.00  0.00    +0.000 A 
ATOM     19  C   UNL     1       5.407   4.027  15.269  0.00  0.00    +0.000 A 
ATOM     20  C   UNL     1       4.852   3.854  16.538  0.00  0.00    +0.000 A 
BRANCH  18  21
ATOM     21  N   UNL     1       7.213   4.870  13.799  0.00  0.00    +0.000 N 
ATOM     22  O   UNL     1       8.125   5.698  13.675  0.00  0.00    +0.000 OA
ATOM     23  O   UNL     1       6.751   4.188  12.873  0.00  0.00    +0.000 OA
ENDBRANCH  18  21
ENDBRANCH  14  15
ENDBRANCH   1  14
TORSDOF 4
ENDMDL
