MODEL 1
REMARK VINA RESULT:      -7.5      0.000      0.000
REMARK  Name = 
REMARK  8 active torsions:
REMARK  status: ('A' for Active; 'I' for Inactive)
REMARK    1  A    between atoms: C_1  and  O_2
REMARK    2  A    between atoms: O_2  and  C_3
REMARK    3  A    between atoms: C_6  and  O_7
REMARK    4  A    between atoms: O_7  and  C_8
REMARK    5  A    between atoms: N_13  and  C_14
REMARK    6  A    between atoms: C_14  and  C_15
REMARK    7  A    between atoms: C_18  and  C_19
REMARK    8  A    between atoms: C_20  and  C_21
REMARK                            x       y       z     vdW  Elec       q    Type
REMARK                         _______ _______ _______ _____ _____    ______ ____
ROOT
ATOM      1  C   UNL     1       0.934   9.748  19.364  0.00  0.00    +0.000 A 
ATOM      2  C   UNL     1       0.847   9.385  20.644  0.00  0.00    +0.000 A 
ATOM      3 CL   UNL     1       0.052  10.290  21.864  0.00  0.00    +0.000 Cl
ATOM      4  C   UNL     1       1.383   8.072  21.016  0.00  0.00    +0.000 A 
ATOM      5  N   UNL     1       1.895   7.208  20.203  0.00  0.00    +0.000 NA
ATOM      6  N   UNL     1       2.015   7.597  18.882  0.00  0.00    +0.000 N 
ATOM      7  C   UNL     1       1.740   8.885  18.431  0.00  0.00    +0.000 A 
ATOM      8  O   UNL     1       2.100   9.303  17.333  0.00  0.00    +0.000 OA
ENDROOT
BRANCH   1   9
ATOM      9  O   UNL     1       0.319  10.920  18.911  0.00  0.00    +0.000 OA
BRANCH   9  13
ATOM     10  C   UNL     1      -3.631  10.976  17.579  0.00  0.00    +0.000 A 
ATOM     11  C   UNL     1      -2.732  10.082  17.001  0.00  0.00    +0.000 A 
ATOM     12  C   UNL     1      -1.427   9.983  17.480  0.00  0.00    +0.000 A 
ATOM     13  C   UNL     1      -0.989  10.850  18.484  0.00  0.00    +0.000 A 
ATOM     14  C   UNL     1      -1.899  11.708  19.104  0.00  0.00    +0.000 A 
ATOM     15  C   UNL     1      -3.221  11.773  18.650  0.00  0.00    +0.000 A 
BRANCH  10  17
ATOM     16  C   UNL     1      -5.673  12.133  17.322  0.00  0.00    +0.000 C 
ATOM     17  O   UNL     1      -4.854  11.026  16.972  0.00  0.00    +0.000 OA
ENDBRANCH  10  17
ENDBRANCH   9  13
ENDBRANCH   1   9
BRANCH   6  18
ATOM     18  C   UNL     1       2.549   6.605  17.946  0.00  0.00    +0.000 C 
BRANCH  18  19
ATOM     19  C   UNL     1       4.000   6.266  18.232  0.00  0.00    +0.000 A 
ATOM     20  C   UNL     1       4.333   5.207  19.084  0.00  0.00    +0.000 A 
ATOM     21  C   UNL     1       5.670   4.873  19.315  0.00  0.00    +0.000 A 
ATOM     22  C   UNL     1       6.712   5.585  18.699  0.00  0.00    +0.000 A 
ATOM     23  C   UNL     1       8.131   5.140  18.927  0.00  0.00    +0.000 C 
ATOM     24  C   UNL     1       6.393   6.669  17.859  0.00  0.00    +0.000 A 
ATOM     25  C   UNL     1       7.434   7.476  17.131  0.00  0.00    +0.000 C 
ATOM     26  C   UNL     1       5.039   6.997  17.640  0.00  0.00    +0.000 A 
ENDBRANCH  18  19
ENDBRANCH   6  18
TORSDOF 5
ENDMDL
MODEL 2
REMARK VINA RESULT:      -7.5      1.378      2.559
REMARK  Name = 
REMARK  8 active torsions:
REMARK  status: ('A' for Active; 'I' for Inactive)
REMARK    1  A    between atoms: C_1  and  O_2
REMARK    2  A    between atoms: O_2  and  C_3
REMARK    3  A    between atoms: C_6  and  O_7
REMARK    4  A    between atoms: O_7  and  C_8
REMARK    5  A    between atoms: N_13  and  C_14
REMARK    6  A    between atoms: C_14  and  C_15
REMARK    7  A    between atoms: C_18  and  C_19
REMARK    8  A    between atoms: C_20  and  C_21
REMARK                            x       y       z     vdW  Elec       q    Type
REMARK                         _______ _______ _______ _____ _____    ______ ____
ROOT
ATOM      1  C   UNL     1       0.887  10.200  19.467  0.00  0.00    +0.000 A 
ATOM      2  C   UNL     1       0.747   9.631  20.665  0.00  0.00    +0.000 A 
ATOM      3 CL   UNL     1      -0.177  10.283  21.955  0.00  0.00    +0.000 Cl
ATOM      4  C   UNL     1       1.342   8.306  20.862  0.00  0.00    +0.000 A 
ATOM      5  N   UNL     1       1.957   7.613  19.961  0.00  0.00    +0.000 NA
ATOM      6  N   UNL     1       2.131   8.215  18.730  0.00  0.00    +0.000 N 
ATOM      7  C   UNL     1       1.801   9.542  18.469  0.00  0.00    +0.000 A 
ATOM      8  O   UNL     1       2.198  10.151  17.477  0.00  0.00    +0.000 OA
ENDROOT
BRANCH   1   9
ATOM      9  O   UNL     1       0.226  11.394  19.163  0.00  0.00    +0.000 OA
BRANCH   9  13
ATOM     10  C   UNL     1      -3.776  10.945  18.082  0.00  0.00    +0.000 A 
ATOM     11  C   UNL     1      -3.424  11.946  18.985  0.00  0.00    +0.000 A 
ATOM     12  C   UNL     1      -2.087  12.173  19.303  0.00  0.00    +0.000 A 
ATOM     13  C   UNL     1      -1.099  11.332  18.786  0.00  0.00    +0.000 A 
ATOM     14  C   UNL     1      -1.438  10.364  17.840  0.00  0.00    +0.000 A 
ATOM     15  C   UNL     1      -2.778  10.169  17.488  0.00  0.00    +0.000 A 
BRANCH  10  17
ATOM     16  C   UNL     1      -5.818  11.895  17.375  0.00  0.00    +0.000 C 
ATOM     17  O   UNL     1      -5.121  10.779  17.911  0.00  0.00    +0.000 OA
ENDBRANCH  10  17
ENDBRANCH   9  13
ENDBRANCH   1   9
BRANCH   6  18
ATOM     18  C   UNL     1       2.782   7.417  17.689  0.00  0.00    +0.000 C 
BRANCH  18  19
ATOM     19  C   UNL     1       3.129   6.020  18.167  0.00  0.00    +0.000 A 
ATOM     20  C   UNL     1       4.392   5.738  18.699  0.00  0.00    +0.000 A 
ATOM     21  C   UNL     1       4.696   4.460  19.174  0.00  0.00    +0.000 A 
ATOM     22  C   UNL     1       3.745   3.427  19.134  0.00  0.00    +0.000 A 
ATOM     23  C   UNL     1       4.101   2.088  19.722  0.00  0.00    +0.000 C 
ATOM     24  C   UNL     1       2.479   3.688  18.579  0.00  0.00    +0.000 A 
ATOM     25  C   UNL     1       1.382   2.659  18.516  0.00  0.00    +0.000 C 
ATOM     26  C   UNL     1       2.189   4.982  18.098  0.00  0.00    +0.000 A 
ENDBRANCH  18  19
ENDBRANCH   6  18
TORSDOF 5
ENDMDL
MODEL 3
REMARK VINA RESULT:      -7.4      2.206      3.112
REMARK  Name = 
REMARK  8 active torsions:
REMARK  status: ('A' for Active; 'I' for Inactive)
REMARK    1  A    between atoms: C_1  and  O_2
REMARK    2  A    between atoms: O_2  and  C_3
REMARK    3  A    between atoms: C_6  and  O_7
REMARK    4  A    between atoms: O_7  and  C_8
REMARK    5  A    between atoms: N_13  and  C_14
REMARK    6  A    between atoms: C_14  and  C_15
REMARK    7  A    between atoms: C_18  and  C_19
REMARK    8  A    between atoms: C_20  and  C_21
REMARK                            x       y       z     vdW  Elec       q    Type
REMARK                         _______ _______ _______ _____ _____    ______ ____
ROOT
ATOM      1  C   UNL     1       0.529  10.267  19.329  0.00  0.00    +0.000 A 
ATOM      2  C   UNL     1       0.338  10.025  20.626  0.00  0.00    +0.000 A 
ATOM      3 CL   UNL     1      -0.728  10.909  21.638  0.00  0.00    +0.000 Cl
ATOM      4  C   UNL     1       1.011   8.860  21.207  0.00  0.00    +0.000 A 
ATOM      5  N   UNL     1       1.742   8.012  20.562  0.00  0.00    +0.000 NA
ATOM      6  N   UNL     1       1.967   8.279  19.225  0.00  0.00    +0.000 N 
ATOM      7  C   UNL     1       1.563   9.455  18.597  0.00  0.00    +0.000 A 
ATOM      8  O   UNL     1       1.991   9.812  17.502  0.00  0.00    +0.000 OA
ENDROOT
BRANCH   1   9
ATOM      9  O   UNL     1      -0.192  11.273  18.677  0.00  0.00    +0.000 OA
BRANCH   9  13
ATOM     10  C   UNL     1      -4.264  10.908  17.863  0.00  0.00    +0.000 A 
ATOM     11  C   UNL     1      -3.377   9.975  17.327  0.00  0.00    +0.000 A 
ATOM     12  C   UNL     1      -2.022  10.024  17.647  0.00  0.00    +0.000 A 
ATOM     13  C   UNL     1      -1.533  11.067  18.435  0.00  0.00    +0.000 A 
ATOM     14  C   UNL     1      -2.422  11.971  19.019  0.00  0.00    +0.000 A 
ATOM     15  C   UNL     1      -3.789  11.893  18.732  0.00  0.00    +0.000 A 
BRANCH  10  17
ATOM     16  C   UNL     1      -6.520  11.555  18.121  0.00  0.00    +0.000 C 
ATOM     17  O   UNL     1      -5.550  10.794  17.415  0.00  0.00    +0.000 OA
ENDBRANCH  10  17
ENDBRANCH   9  13
ENDBRANCH   1   9
BRANCH   6  18
ATOM     18  C   UNL     1       2.754   7.297  18.476  0.00  0.00    +0.000 C 
BRANCH  18  19
ATOM     19  C   UNL     1       2.287   5.875  18.726  0.00  0.00    +0.000 A 
ATOM     20  C   UNL     1       1.811   5.083  17.675  0.00  0.00    +0.000 A 
ATOM     21  C   UNL     1       1.419   3.761  17.902  0.00  0.00    +0.000 A 
ATOM     22  C   UNL     1       1.494   3.192  19.183  0.00  0.00    +0.000 A 
ATOM     23  C   UNL     1       1.125   1.744  19.358  0.00  0.00    +0.000 C 
ATOM     24  C   UNL     1       1.947   3.984  20.254  0.00  0.00    +0.000 A 
ATOM     25  C   UNL     1       2.091   3.460  21.658  0.00  0.00    +0.000 C 
ATOM     26  C   UNL     1       2.334   5.318  20.012  0.00  0.00    +0.000 A 
ENDBRANCH  18  19
ENDBRANCH   6  18
TORSDOF 5
ENDMDL
MODEL 4
REMARK VINA RESULT:      -7.4      1.668      2.464
REMARK  Name = 
REMARK  8 active torsions:
REMARK  status: ('A' for Active; 'I' for Inactive)
REMARK    1  A    between atoms: C_1  and  O_2
REMARK    2  A    between atoms: O_2  and  C_3
REMARK    3  A    between atoms: C_6  and  O_7
REMARK    4  A    between atoms: O_7  and  C_8
REMARK    5  A    between atoms: N_13  and  C_14
REMARK    6  A    between atoms: C_14  and  C_15
REMARK    7  A    between atoms: C_18  and  C_19
REMARK    8  A    between atoms: C_20  and  C_21
REMARK                            x       y       z     vdW  Elec       q    Type
REMARK                         _______ _______ _______ _____ _____    ______ ____
ROOT
ATOM      1  C   UNL     1       0.616  10.161  19.807  0.00  0.00    +0.000 A 
ATOM      2  C   UNL     1       0.484   9.557  20.988  0.00  0.00    +0.000 A 
ATOM      3 CL   UNL     1      -0.517  10.114  22.264  0.00  0.00    +0.000 Cl
ATOM      4  C   UNL     1       1.167   8.273  21.175  0.00  0.00    +0.000 A 
ATOM      5  N   UNL     1       1.853   7.645  20.278  0.00  0.00    +0.000 NA
ATOM      6  N   UNL     1       2.016   8.285  19.065  0.00  0.00    +0.000 N 
ATOM      7  C   UNL     1       1.601   9.591  18.821  0.00  0.00    +0.000 A 
ATOM      8  O   UNL     1       1.981  10.247  17.854  0.00  0.00    +0.000 OA
ENDROOT
BRANCH   1   9
ATOM      9  O   UNL     1      -0.119  11.312  19.508  0.00  0.00    +0.000 OA
BRANCH   9  13
ATOM     10  C   UNL     1      -3.970  11.128  17.920  0.00  0.00    +0.000 A 
ATOM     11  C   UNL     1      -3.002  10.237  17.460  0.00  0.00    +0.000 A 
ATOM     12  C   UNL     1      -1.730  10.220  18.029  0.00  0.00    +0.000 A 
ATOM     13  C   UNL     1      -1.392  11.164  19.001  0.00  0.00    +0.000 A 
ATOM     14  C   UNL     1      -2.372  12.021  19.504  0.00  0.00    +0.000 A 
ATOM     15  C   UNL     1      -3.662  12.005  18.962  0.00  0.00    +0.000 A 
BRANCH  10  17
ATOM     16  C   UNL     1      -5.900  12.298  17.229  0.00  0.00    +0.000 C 
ATOM     17  O   UNL     1      -5.150  11.091  17.233  0.00  0.00    +0.000 OA
ENDBRANCH  10  17
ENDBRANCH   9  13
ENDBRANCH   1   9
BRANCH   6  18
ATOM     18  C   UNL     1       2.751   7.557  18.026  0.00  0.00    +0.000 C 
BRANCH  18  19
ATOM     19  C   UNL     1       2.671   6.054  18.210  0.00  0.00    +0.000 A 
ATOM     20  C   UNL     1       1.545   5.340  17.787  0.00  0.00    +0.000 A 
ATOM     21  C   UNL     1       1.490   3.950  17.923  0.00  0.00    +0.000 A 
ATOM     22  C   UNL     1       2.561   3.234  18.483  0.00  0.00    +0.000 A 
ATOM     23  C   UNL     1       2.479   1.733  18.542  0.00  0.00    +0.000 C 
ATOM     24  C   UNL     1       3.689   3.941  18.937  0.00  0.00    +0.000 A 
ATOM     25  C   UNL     1       4.899   3.265  19.526  0.00  0.00    +0.000 C 
ATOM     26  C   UNL     1       3.727   5.344  18.798  0.00  0.00    +0.000 A 
ENDBRANCH  18  19
ENDBRANCH   6  18
TORSDOF 5
ENDMDL
MODEL 5
REMARK VINA RESULT:      -7.4      1.797      2.711
REMARK  Name = 
REMARK  8 active torsions:
REMARK  status: ('A' for Active; 'I' for Inactive)
REMARK    1  A    between atoms: C_1  and  O_2
REMARK    2  A    between atoms: O_2  and  C_3
REMARK    3  A    between atoms: C_6  and  O_7
REMARK    4  A    between atoms: O_7  and  C_8
REMARK    5  A    between atoms: N_13  and  C_14
REMARK    6  A    between atoms: C_14  and  C_15
REMARK    7  A    between atoms: C_18  and  C_19
REMARK    8  A    between atoms: C_20  and  C_21
REMARK                            x       y       z     vdW  Elec       q    Type
REMARK                         _______ _______ _______ _____ _____    ______ ____
ROOT
ATOM      1  C   UNL     1       0.711   9.996  19.596  0.00  0.00    +0.000 A 
ATOM      2  C   UNL     1       0.536   9.477  20.812  0.00  0.00    +0.000 A 
ATOM      3 CL   UNL     1      -0.525  10.111  22.001  0.00  0.00    +0.000 Cl
ATOM      4  C   UNL     1       1.224   8.221  21.120  0.00  0.00    +0.000 A 
ATOM      5  N   UNL     1       1.955   7.539  20.301  0.00  0.00    +0.000 NA
ATOM      6  N   UNL     1       2.163   8.092  19.051  0.00  0.00    +0.000 N 
ATOM      7  C   UNL     1       1.743   9.371  18.696  0.00  0.00    +0.000 A 
ATOM      8  O   UNL     1       2.156   9.961  17.700  0.00  0.00    +0.000 OA
ENDROOT
BRANCH   1   9
ATOM      9  O   UNL     1      -0.024  11.112  19.184  0.00  0.00    +0.000 OA
BRANCH   9  13
ATOM     10  C   UNL     1      -3.340  10.766  16.681  0.00  0.00    +0.000 A 
ATOM     11  C   UNL     1      -2.281   9.873  16.532  0.00  0.00    +0.000 A 
ATOM     12  C   UNL     1      -1.197   9.912  17.406  0.00  0.00    +0.000 A 
ATOM     13  C   UNL     1      -1.125  10.911  18.379  0.00  0.00    +0.000 A 
ATOM     14  C   UNL     1      -2.206  11.773  18.567  0.00  0.00    +0.000 A 
ATOM     15  C   UNL     1      -3.315  11.702  17.717  0.00  0.00    +0.000 A 
BRANCH  10  17
ATOM     16  C   UNL     1      -3.882  10.144  14.469  0.00  0.00    +0.000 C 
ATOM     17  O   UNL     1      -4.306  10.670  15.719  0.00  0.00    +0.000 OA
ENDBRANCH  10  17
ENDBRANCH   9  13
ENDBRANCH   1   9
BRANCH   6  18
ATOM     18  C   UNL     1       2.948   7.302  18.100  0.00  0.00    +0.000 C 
BRANCH  18  19
ATOM     19  C   UNL     1       2.739   5.810  18.279  0.00  0.00    +0.000 A 
ATOM     20  C   UNL     1       1.591   5.184  17.782  0.00  0.00    +0.000 A 
ATOM     21  C   UNL     1       1.419   3.804  17.914  0.00  0.00    +0.000 A 
ATOM     22  C   UNL     1       2.391   3.010  18.544  0.00  0.00    +0.000 A 
ATOM     23  C   UNL     1       2.188   1.519  18.597  0.00  0.00    +0.000 C 
ATOM     24  C   UNL     1       3.539   3.628  19.071  0.00  0.00    +0.000 A 
ATOM     25  C   UNL     1       4.651   2.863  19.738  0.00  0.00    +0.000 C 
ATOM     26  C   UNL     1       3.696   5.023  18.935  0.00  0.00    +0.000 A 
ENDBRANCH  18  19
ENDBRANCH   6  18
TORSDOF 5
ENDMDL
MODEL 6
REMARK VINA RESULT:      -7.3      1.737      2.737
REMARK  Name = 
REMARK  8 active torsions:
REMARK  status: ('A' for Active; 'I' for Inactive)
REMARK    1  A    between atoms: C_1  and  O_2
REMARK    2  A    between atoms: O_2  and  C_3
REMARK    3  A    between atoms: C_6  and  O_7
REMARK    4  A    between atoms: O_7  and  C_8
REMARK    5  A    between atoms: N_13  and  C_14
REMARK    6  A    between atoms: C_14  and  C_15
REMARK    7  A    between atoms: C_18  and  C_19
REMARK    8  A    between atoms: C_20  and  C_21
REMARK                            x       y       z     vdW  Elec       q    Type
REMARK                         _______ _______ _______ _____ _____    ______ ____
ROOT
ATOM      1  C   UNL     1       0.751  10.204  19.453  0.00  0.00    +0.000 A 
ATOM      2  C   UNL     1       0.553   9.690  20.667  0.00  0.00    +0.000 A 
ATOM      3 CL   UNL     1      -0.483  10.365  21.856  0.00  0.00    +0.000 Cl
ATOM      4  C   UNL     1       1.188   8.405  20.974  0.00  0.00    +0.000 A 
ATOM      5  N   UNL     1       1.890   7.695  20.154  0.00  0.00    +0.000 NA
ATOM      6  N   UNL     1       2.123   8.241  18.906  0.00  0.00    +0.000 N 
ATOM      7  C   UNL     1       1.757   9.538  18.553  0.00  0.00    +0.000 A 
ATOM      8  O   UNL     1       2.197  10.112  17.559  0.00  0.00    +0.000 OA
ENDROOT
BRANCH   1   9
ATOM      9  O   UNL     1       0.064  11.350  19.042  0.00  0.00    +0.000 OA
BRANCH   9  13
ATOM     10  C   UNL     1      -3.890  10.696  17.892  0.00  0.00    +0.000 A 
ATOM     11  C   UNL     1      -3.594  11.771  18.728  0.00  0.00    +0.000 A 
ATOM     12  C   UNL     1      -2.274  12.063  19.063  0.00  0.00    +0.000 A 
ATOM     13  C   UNL     1      -1.246  11.219  18.636  0.00  0.00    +0.000 A 
ATOM     14  C   UNL     1      -1.530  10.174  17.756  0.00  0.00    +0.000 A 
ATOM     15  C   UNL     1      -2.853   9.910  17.384  0.00  0.00    +0.000 A 
BRANCH  10  17
ATOM     16  C   UNL     1      -6.083  10.939  18.730  0.00  0.00    +0.000 C 
ATOM     17  O   UNL     1      -5.224  10.475  17.698  0.00  0.00    +0.000 OA
ENDBRANCH  10  17
ENDBRANCH   9  13
ENDBRANCH   1   9
BRANCH   6  18
ATOM     18  C   UNL     1       2.876   7.422  17.954  0.00  0.00    +0.000 C 
BRANCH  18  19
ATOM     19  C   UNL     1       2.690   5.936  18.200  0.00  0.00    +0.000 A 
ATOM     20  C   UNL     1       1.524   5.283  17.786  0.00  0.00    +0.000 A 
ATOM     21  C   UNL     1       1.372   3.907  17.980  0.00  0.00    +0.000 A 
ATOM     22  C   UNL     1       2.382   3.145  18.588  0.00  0.00    +0.000 A 
ATOM     23  C   UNL     1       2.197   1.657  18.709  0.00  0.00    +0.000 C 
ATOM     24  C   UNL     1       3.550   3.792  19.032  0.00  0.00    +0.000 A 
ATOM     25  C   UNL     1       4.701   3.062  19.670  0.00  0.00    +0.000 C 
ATOM     26  C   UNL     1       3.687   5.182  18.835  0.00  0.00    +0.000 A 
ENDBRANCH  18  19
ENDBRANCH   6  18
TORSDOF 5
ENDMDL
MODEL 7
REMARK VINA RESULT:      -7.3      0.507      1.072
REMARK  Name = 
REMARK  8 active torsions:
REMARK  status: ('A' for Active; 'I' for Inactive)
REMARK    1  A    between atoms: C_1  and  O_2
REMARK    2  A    between atoms: O_2  and  C_3
REMARK    3  A    between atoms: C_6  and  O_7
REMARK    4  A    between atoms: O_7  and  C_8
REMARK    5  A    between atoms: N_13  and  C_14
REMARK    6  A    between atoms: C_14  and  C_15
REMARK    7  A    between atoms: C_18  and  C_19
REMARK    8  A    between atoms: C_20  and  C_21
REMARK                            x       y       z     vdW  Elec       q    Type
REMARK                         _______ _______ _______ _____ _____    ______ ____
ROOT
ATOM      1  C   UNL     1       1.136   9.683  19.267  0.00  0.00    +0.000 A 
ATOM      2  C   UNL     1       1.058   9.328  20.550  0.00  0.00    +0.000 A 
ATOM      3 CL   UNL     1       0.377  10.294  21.792  0.00  0.00    +0.000 Cl
ATOM      4  C   UNL     1       1.497   7.976  20.908  0.00  0.00    +0.000 A 
ATOM      5  N   UNL     1       1.912   7.072  20.083  0.00  0.00    +0.000 NA
ATOM      6  N   UNL     1       2.022   7.450  18.758  0.00  0.00    +0.000 N 
ATOM      7  C   UNL     1       1.839   8.756  18.312  0.00  0.00    +0.000 A 
ATOM      8  O   UNL     1       2.198   9.143  17.202  0.00  0.00    +0.000 OA
ENDROOT
BRANCH   1   9
ATOM      9  O   UNL     1       0.604  10.900  18.830  0.00  0.00    +0.000 OA
BRANCH   9  13
ATOM     10  C   UNL     1      -3.473  10.812  17.965  0.00  0.00    +0.000 A 
ATOM     11  C   UNL     1      -2.984  11.786  18.834  0.00  0.00    +0.000 A 
ATOM     12  C   UNL     1      -1.616  11.891  19.078  0.00  0.00    +0.000 A 
ATOM     13  C   UNL     1      -0.738  10.958  18.524  0.00  0.00    +0.000 A 
ATOM     14  C   UNL     1      -1.215  10.015  17.611  0.00  0.00    +0.000 A 
ATOM     15  C   UNL     1      -2.584   9.941  17.332  0.00  0.00    +0.000 A 
BRANCH  10  17
ATOM     16  C   UNL     1      -5.547  11.586  18.786  0.00  0.00    +0.000 C 
ATOM     17  O   UNL     1      -4.835  10.769  17.867  0.00  0.00    +0.000 OA
ENDBRANCH  10  17
ENDBRANCH   9  13
ENDBRANCH   1   9
BRANCH   6  18
ATOM     18  C   UNL     1       2.444   6.418  17.808  0.00  0.00    +0.000 C 
BRANCH  18  19
ATOM     19  C   UNL     1       3.894   6.015  18.003  0.00  0.00    +0.000 A 
ATOM     20  C   UNL     1       4.223   4.771  18.552  0.00  0.00    +0.000 A 
ATOM     21  C   UNL     1       5.559   4.387  18.695  0.00  0.00    +0.000 A 
ATOM     22  C   UNL     1       6.604   5.234  18.289  0.00  0.00    +0.000 A 
ATOM     23  C   UNL     1       8.022   4.743  18.400  0.00  0.00    +0.000 C 
ATOM     24  C   UNL     1       6.289   6.498  17.758  0.00  0.00    +0.000 A 
ATOM     25  C   UNL     1       7.333   7.466  17.269  0.00  0.00    +0.000 C 
ATOM     26  C   UNL     1       4.936   6.874  17.626  0.00  0.00    +0.000 A 
ENDBRANCH  18  19
ENDBRANCH   6  18
TORSDOF 5
ENDMDL
MODEL 8
REMARK VINA RESULT:      -7.3      3.378      5.080
REMARK  Name = 
REMARK  8 active torsions:
REMARK  status: ('A' for Active; 'I' for Inactive)
REMARK    1  A    between atoms: C_1  and  O_2
REMARK    2  A    between atoms: O_2  and  C_3
REMARK    3  A    between atoms: C_6  and  O_7
REMARK    4  A    between atoms: O_7  and  C_8
REMARK    5  A    between atoms: N_13  and  C_14
REMARK    6  A    between atoms: C_14  and  C_15
REMARK    7  A    between atoms: C_18  and  C_19
REMARK    8  A    between atoms: C_20  and  C_21
REMARK                            x       y       z     vdW  Elec       q    Type
REMARK                         _______ _______ _______ _____ _____    ______ ____
ROOT
ATOM      1  C   UNL     1       3.272   5.773  18.617  0.00  0.00    +0.000 A 
ATOM      2  C   UNL     1       3.178   4.857  19.582  0.00  0.00    +0.000 A 
ATOM      3 CL   UNL     1       1.736   4.469  20.423  0.00  0.00    +0.000 Cl
ATOM      4  C   UNL     1       4.370   4.056  19.876  0.00  0.00    +0.000 A 
ATOM      5  N   UNL     1       5.499   4.125  19.251  0.00  0.00    +0.000 NA
ATOM      6  N   UNL     1       5.607   5.095  18.273  0.00  0.00    +0.000 N 
ATOM      7  C   UNL     1       4.629   6.057  18.033  0.00  0.00    +0.000 A 
ATOM      8  O   UNL     1       4.833   7.069  17.366  0.00  0.00    +0.000 OA
ENDROOT
BRANCH   1   9
ATOM      9  O   UNL     1       2.141   6.472  18.185  0.00  0.00    +0.000 OA
BRANCH   9  13
ATOM     10  C   UNL     1       1.142  10.226  19.700  0.00  0.00    +0.000 A 
ATOM     11  C   UNL     1       1.260   9.148  20.577  0.00  0.00    +0.000 A 
ATOM     12  C   UNL     1       1.671   7.901  20.111  0.00  0.00    +0.000 A 
ATOM     13  C   UNL     1       1.877   7.704  18.745  0.00  0.00    +0.000 A 
ATOM     14  C   UNL     1       1.814   8.790  17.871  0.00  0.00    +0.000 A 
ATOM     15  C   UNL     1       1.445  10.053  18.348  0.00  0.00    +0.000 A 
BRANCH  10  17
ATOM     16  C   UNL     1      -0.011  11.212  21.509  0.00  0.00    +0.000 C 
ATOM     17  O   UNL     1       0.663  11.372  20.269  0.00  0.00    +0.000 OA
ENDBRANCH  10  17
ENDBRANCH   9  13
ENDBRANCH   1   9
BRANCH   6  18
ATOM     18  C   UNL     1       6.866   5.146  17.527  0.00  0.00    +0.000 C 
BRANCH  18  19
ATOM     19  C   UNL     1       6.704   4.685  16.091  0.00  0.00    +0.000 A 
ATOM     20  C   UNL     1       5.776   3.692  15.759  0.00  0.00    +0.000 A 
ATOM     21  C   UNL     1       5.602   3.296  14.430  0.00  0.00    +0.000 A 
ATOM     22  C   UNL     1       6.347   3.884  13.395  0.00  0.00    +0.000 A 
ATOM     23  C   UNL     1       6.070   3.471  11.975  0.00  0.00    +0.000 C 
ATOM     24  C   UNL     1       7.302   4.866  13.717  0.00  0.00    +0.000 A 
ATOM     25  C   UNL     1       8.130   5.576  12.679  0.00  0.00    +0.000 C 
ATOM     26  C   UNL     1       7.471   5.251  15.063  0.00  0.00    +0.000 A 
ENDBRANCH  18  19
ENDBRANCH   6  18
TORSDOF 5
ENDMDL
MODEL 9
REMARK VINA RESULT:      -7.2      1.560      2.554
REMARK  Name = 
REMARK  8 active torsions:
REMARK  status: ('A' for Active; 'I' for Inactive)
REMARK    1  A    between atoms: C_1  and  O_2
REMARK    2  A    between atoms: O_2  and  C_3
REMARK    3  A    between atoms: C_6  and  O_7
REMARK    4  A    between atoms: O_7  and  C_8
REMARK    5  A    between atoms: N_13  and  C_14
REMARK    6  A    between atoms: C_14  and  C_15
REMARK    7  A    between atoms: C_18  and  C_19
REMARK    8  A    between atoms: C_20  and  C_21
REMARK                            x       y       z     vdW  Elec       q    Type
REMARK                         _______ _______ _______ _____ _____    ______ ____
ROOT
ATOM      1  C   UNL     1       0.807  10.271  20.076  0.00  0.00    +0.000 A 
ATOM      2  C   UNL     1       0.706   9.593  21.220  0.00  0.00    +0.000 A 
ATOM      3 CL   UNL     1      -0.114  10.153  22.618  0.00  0.00    +0.000 Cl
ATOM      4  C   UNL     1       1.248   8.232  21.254  0.00  0.00    +0.000 A 
ATOM      5  N   UNL     1       1.779   7.605  20.256  0.00  0.00    +0.000 NA
ATOM      6  N   UNL     1       1.913   8.318  19.079  0.00  0.00    +0.000 N 
ATOM      7  C   UNL     1       1.633   9.678  18.967  0.00  0.00    +0.000 A 
ATOM      8  O   UNL     1       2.005  10.363  18.017  0.00  0.00    +0.000 OA
ENDROOT
BRANCH   1   9
ATOM      9  O   UNL     1       0.188  11.516  19.928  0.00  0.00    +0.000 OA
BRANCH   9  13
ATOM     10  C   UNL     1      -3.831  11.882  18.880  0.00  0.00    +0.000 A 
ATOM     11  C   UNL     1      -3.007  11.041  18.133  0.00  0.00    +0.000 A 
ATOM     12  C   UNL     1      -1.681  10.836  18.508  0.00  0.00    +0.000 A 
ATOM     13  C   UNL     1      -1.146  11.548  19.583  0.00  0.00    +0.000 A 
ATOM     14  C   UNL     1      -1.978  12.348  20.367  0.00  0.00    +0.000 A 
ATOM     15  C   UNL     1      -3.322  12.517  20.015  0.00  0.00    +0.000 A 
BRANCH  10  17
ATOM     16  C   UNL     1      -5.204  11.899  16.960  0.00  0.00    +0.000 C 
ATOM     17  O   UNL     1      -5.085  12.053  18.367  0.00  0.00    +0.000 OA
ENDBRANCH  10  17
ENDBRANCH   9  13
ENDBRANCH   1   9
BRANCH   6  18
ATOM     18  C   UNL     1       2.469   7.600  17.930  0.00  0.00    +0.000 C 
BRANCH  18  19
ATOM     19  C   UNL     1       2.868   6.179  18.277  0.00  0.00    +0.000 A 
ATOM     20  C   UNL     1       4.174   5.880  18.682  0.00  0.00    +0.000 A 
ATOM     21  C   UNL     1       4.528   4.577  19.038  0.00  0.00    +0.000 A 
ATOM     22  C   UNL     1       3.588   3.535  19.003  0.00  0.00    +0.000 A 
ATOM     23  C   UNL     1       4.004   2.164  19.464  0.00  0.00    +0.000 C 
ATOM     24  C   UNL     1       2.277   3.814  18.574  0.00  0.00    +0.000 A 
ATOM     25  C   UNL     1       1.189   2.774  18.529  0.00  0.00    +0.000 C 
ATOM     26  C   UNL     1       1.935   5.134  18.213  0.00  0.00    +0.000 A 
ENDBRANCH  18  19
ENDBRANCH   6  18
TORSDOF 5
ENDMDL
