MODEL 1
REMARK VINA RESULT:      -9.6      0.000      0.000
REMARK  Name = 
REMARK  9 active torsions:
REMARK  status: ('A' for Active; 'I' for Inactive)
REMARK    1  A    between atoms: C_1  and  C_2
REMARK    2  A    between atoms: N_7  and  C_8
REMARK    3  A    between atoms: C_11  and  C_12
REMARK    4  A    between atoms: C_12  and  N_13
REMARK    5  A    between atoms: N_13  and  C_14
REMARK    6  A    between atoms: N_13  and  S_18
REMARK    7  A    between atoms: S_18  and  C_21
REMARK    8  A    between atoms: C_23  and  C_24
REMARK    9  A    between atoms: C_26  and  C_27
REMARK                            x       y       z     vdW  Elec       q    Type
REMARK                         _______ _______ _______ _____ _____    ______ ____
ROOT
ATOM      1  C   UNL     1       2.835   5.712  18.553  0.00  0.00    +0.000 C 
ENDROOT
BRANCH   1   5
ATOM      2  C   UNL     1       1.219   9.394  20.198  0.00  0.00    +0.000 A 
ATOM      3  C   UNL     1       1.279   8.211  20.956  0.00  0.00    +0.000 A 
ATOM      4  C   UNL     1       1.775   7.020  20.428  0.00  0.00    +0.000 A 
ATOM      5  C   UNL     1       2.224   6.969  19.107  0.00  0.00    +0.000 A 
ATOM      6  C   UNL     1       2.140   8.132  18.339  0.00  0.00    +0.000 A 
ATOM      7  F   UNL     1       2.533   8.117  17.059  0.00  0.00    +0.000 F 
ATOM      8  C   UNL     1       1.647   9.324  18.871  0.00  0.00    +0.000 A 
BRANCH   2  15
ATOM      9  C   UNL     1      -1.529  13.898  23.701  0.00  0.00    +0.000 C 
ATOM     10  C   UNL     1      -1.037  13.976  22.280  0.00  0.00    +0.000 C 
ATOM     11  O   UNL     1      -0.822  15.071  21.760  0.00  0.00    +0.000 OA
ATOM     12  N   UNL     1      -0.789  12.781  21.635  0.00  0.00    +0.000 N 
ATOM     13  C   UNL     1      -0.140  12.795  20.317  0.00  0.00    +0.000 C 
ATOM     14  C   UNL     1       1.106  11.885  20.310  0.00  0.00    +0.000 C 
ATOM     15  N   UNL     1       0.705  10.543  20.760  0.00  0.00    +0.000 N 
ATOM     16  C   UNL     1       0.100  10.502  22.103  0.00  0.00    +0.000 C 
ATOM     17  C   UNL     1      -1.121  11.439  22.140  0.00  0.00    +0.000 C 
ENDBRANCH   2  15
ENDBRANCH   1   5
BRANCH   1  18
ATOM     18  N   UNL     1       3.308   4.728  19.588  0.00  0.00    +0.000 NA
BRANCH  18  19
ATOM     19  C   UNL     1       2.169   4.337  20.527  0.00  0.00    +0.000 C 
ATOM     20  C   UNL     1       1.111   3.316  20.022  0.00  0.00    +0.000 C 
ATOM     21  C   UNL     1       1.056   2.741  21.447  0.00  0.00    +0.000 C 
ATOM     22  C   UNL     1       2.478   3.293  21.643  0.00  0.00    +0.000 C 
ENDBRANCH  18  19
BRANCH  18  23
ATOM     23  S   UNL     1       4.334   3.523  18.874  0.00  0.00    +0.000 S 
ATOM     24  O   UNL     1       5.172   2.940  19.889  0.00  0.00    +0.000 OA
ATOM     25  O   UNL     1       3.501   2.694  18.019  0.00  0.00    +0.000 OA
BRANCH  23  26
ATOM     26  C   UNL     1       5.408   4.496  17.832  0.00  0.00    +0.000 A 
ATOM     27  C   UNL     1       5.501   4.156  16.479  0.00  0.00    +0.000 A 
ATOM     28  C   UNL     1       6.342   4.887  15.632  0.00  0.00    +0.000 A 
ATOM     29  C   UNL     1       6.414   4.579  14.165  0.00  0.00    +0.000 C 
ATOM     30  C   UNL     1       7.116   5.929  16.166  0.00  0.00    +0.000 A 
ATOM     31  C   UNL     1       7.023   6.276  17.523  0.00  0.00    +0.000 A 
ATOM     32  C   UNL     1       7.901   7.350  18.099  0.00  0.00    +0.000 C 
ATOM     33  C   UNL     1       6.133   5.574  18.350  0.00  0.00    +0.000 A 
ENDBRANCH  23  26
ENDBRANCH  18  23
ENDBRANCH   1  18
TORSDOF 6
ENDMDL
MODEL 2
REMARK VINA RESULT:      -9.5      0.264      1.519
REMARK  Name = 
REMARK  9 active torsions:
REMARK  status: ('A' for Active; 'I' for Inactive)
REMARK    1  A    between atoms: C_1  and  C_2
REMARK    2  A    between atoms: N_7  and  C_8
REMARK    3  A    between atoms: C_11  and  C_12
REMARK    4  A    between atoms: C_12  and  N_13
REMARK    5  A    between atoms: N_13  and  C_14
REMARK    6  A    between atoms: N_13  and  S_18
REMARK    7  A    between atoms: S_18  and  C_21
REMARK    8  A    between atoms: C_23  and  C_24
REMARK    9  A    between atoms: C_26  and  C_27
REMARK                            x       y       z     vdW  Elec       q    Type
REMARK                         _______ _______ _______ _____ _____    ______ ____
ROOT
ATOM      1  C   UNL     1       2.850   5.560  18.470  0.00  0.00    +0.000 C 
ENDROOT
BRANCH   1   5
ATOM      2  C   UNL     1       1.276   9.281  20.066  0.00  0.00    +0.000 A 
ATOM      3  C   UNL     1       1.247   8.088  20.811  0.00  0.00    +0.000 A 
ATOM      4  C   UNL     1       1.730   6.885  20.297  0.00  0.00    +0.000 A 
ATOM      5  C   UNL     1       2.254   6.832  19.004  0.00  0.00    +0.000 A 
ATOM      6  C   UNL     1       2.259   8.007  18.249  0.00  0.00    +0.000 A 
ATOM      7  F   UNL     1       2.726   7.991  16.993  0.00  0.00    +0.000 F 
ATOM      8  C   UNL     1       1.779   9.210  18.766  0.00  0.00    +0.000 A 
BRANCH   2  15
ATOM      9  C   UNL     1      -1.332  13.877  23.557  0.00  0.00    +0.000 C 
ATOM     10  C   UNL     1      -0.950  13.899  22.101  0.00  0.00    +0.000 C 
ATOM     11  O   UNL     1      -0.806  14.972  21.516  0.00  0.00    +0.000 OA
ATOM     12  N   UNL     1      -0.717  12.681  21.495  0.00  0.00    +0.000 N 
ATOM     13  C   UNL     1      -0.168  12.648  20.132  0.00  0.00    +0.000 C 
ATOM     14  C   UNL     1       1.099  11.771  20.072  0.00  0.00    +0.000 C 
ATOM     15  N   UNL     1       0.772  10.442  20.612  0.00  0.00    +0.000 N 
ATOM     16  C   UNL     1       0.272  10.451  21.998  0.00  0.00    +0.000 C 
ATOM     17  C   UNL     1      -0.970  11.356  22.085  0.00  0.00    +0.000 C 
ENDBRANCH   2  15
ENDBRANCH   1   5
BRANCH   1  18
ATOM     18  N   UNL     1       3.269   4.567  19.521  0.00  0.00    +0.000 NA
BRANCH  18  19
ATOM     19  C   UNL     1       2.089   4.189  20.412  0.00  0.00    +0.000 C 
ATOM     20  C   UNL     1       1.322   2.872  20.106  0.00  0.00    +0.000 C 
ATOM     21  C   UNL     1       1.153   2.673  21.621  0.00  0.00    +0.000 C 
ATOM     22  C   UNL     1       2.406   3.547  21.799  0.00  0.00    +0.000 C 
ENDBRANCH  18  19
BRANCH  18  23
ATOM     23  S   UNL     1       4.307   3.351  18.844  0.00  0.00    +0.000 S 
ATOM     24  O   UNL     1       5.064   2.723  19.896  0.00  0.00    +0.000 OA
ATOM     25  O   UNL     1       3.509   2.563  17.920  0.00  0.00    +0.000 OA
BRANCH  23  26
ATOM     26  C   UNL     1       5.470   4.316  17.894  0.00  0.00    +0.000 A 
ATOM     27  C   UNL     1       6.241   5.268  18.566  0.00  0.00    +0.000 A 
ATOM     28  C   UNL     1       7.156   6.054  17.855  0.00  0.00    +0.000 A 
ATOM     29  C   UNL     1       8.038   7.041  18.562  0.00  0.00    +0.000 C 
ATOM     30  C   UNL     1       7.254   5.902  16.463  0.00  0.00    +0.000 A 
ATOM     31  C   UNL     1       6.483   4.944  15.785  0.00  0.00    +0.000 A 
ATOM     32  C   UNL     1       6.548   4.832  14.288  0.00  0.00    +0.000 C 
ATOM     33  C   UNL     1       5.613   4.123  16.517  0.00  0.00    +0.000 A 
ENDBRANCH  23  26
ENDBRANCH  18  23
ENDBRANCH   1  18
TORSDOF 6
ENDMDL
MODEL 3
REMARK VINA RESULT:      -9.4      1.632      2.307
REMARK  Name = 
REMARK  9 active torsions:
REMARK  status: ('A' for Active; 'I' for Inactive)
REMARK    1  A    between atoms: C_1  and  C_2
REMARK    2  A    between atoms: N_7  and  C_8
REMARK    3  A    between atoms: C_11  and  C_12
REMARK    4  A    between atoms: C_12  and  N_13
REMARK    5  A    between atoms: N_13  and  C_14
REMARK    6  A    between atoms: N_13  and  S_18
REMARK    7  A    between atoms: S_18  and  C_21
REMARK    8  A    between atoms: C_23  and  C_24
REMARK    9  A    between atoms: C_26  and  C_27
REMARK                            x       y       z     vdW  Elec       q    Type
REMARK                         _______ _______ _______ _____ _____    ______ ____
ROOT
ATOM      1  C   UNL     1       2.356   5.240  18.523  0.00  0.00    +0.000 C 
ENDROOT
BRANCH   1   5
ATOM      2  C   UNL     1       1.693   9.519  18.878  0.00  0.00    +0.000 A 
ATOM      3  C   UNL     1       2.279   8.956  17.729  0.00  0.00    +0.000 A 
ATOM      4  C   UNL     1       2.516   7.586  17.618  0.00  0.00    +0.000 A 
ATOM      5  C   UNL     1       2.180   6.726  18.665  0.00  0.00    +0.000 A 
ATOM      6  C   UNL     1       1.625   7.282  19.819  0.00  0.00    +0.000 A 
ATOM      7  F   UNL     1       1.316   6.494  20.858  0.00  0.00    +0.000 F 
ATOM      8  C   UNL     1       1.385   8.652  19.928  0.00  0.00    +0.000 A 
BRANCH   2  15
ATOM      9  C   UNL     1       1.810  15.838  18.472  0.00  0.00    +0.000 C 
ATOM     10  C   UNL     1       1.002  14.966  19.395  0.00  0.00    +0.000 C 
ATOM     11  O   UNL     1       0.005  15.419  19.957  0.00  0.00    +0.000 OA
ATOM     12  N   UNL     1       1.398  13.650  19.523  0.00  0.00    +0.000 N 
ATOM     13  C   UNL     1       0.546  12.710  20.266  0.00  0.00    +0.000 C 
ATOM     14  C   UNL     1       0.226  11.467  19.411  0.00  0.00    +0.000 C 
ATOM     15  N   UNL     1       1.494  10.881  18.948  0.00  0.00    +0.000 N 
ATOM     16  C   UNL     1       2.337  11.793  18.155  0.00  0.00    +0.000 C 
ATOM     17  C   UNL     1       2.631  13.059  18.979  0.00  0.00    +0.000 C 
ENDBRANCH   2  15
ENDBRANCH   1   5
BRANCH   1  18
ATOM     18  N   UNL     1       3.184   4.595  19.600  0.00  0.00    +0.000 NA
BRANCH  18  19
ATOM     19  C   UNL     1       2.316   4.204  20.794  0.00  0.00    +0.000 C 
ATOM     20  C   UNL     1       0.951   3.513  20.521  0.00  0.00    +0.000 C 
ATOM     21  C   UNL     1       1.188   2.655  21.775  0.00  0.00    +0.000 C 
ATOM     22  C   UNL     1       2.691   2.902  21.567  0.00  0.00    +0.000 C 
ENDBRANCH  18  19
BRANCH  18  23
ATOM     23  S   UNL     1       4.325   3.477  18.918  0.00  0.00    +0.000 S 
ATOM     24  O   UNL     1       5.310   3.129  19.909  0.00  0.00    +0.000 OA
ATOM     25  O   UNL     1       3.566   2.453  18.221  0.00  0.00    +0.000 OA
BRANCH  23  26
ATOM     26  C   UNL     1       5.167   4.475  17.701  0.00  0.00    +0.000 A 
ATOM     27  C   UNL     1       5.144   4.051  16.370  0.00  0.00    +0.000 A 
ATOM     28  C   UNL     1       5.802   4.800  15.387  0.00  0.00    +0.000 A 
ATOM     29  C   UNL     1       5.742   4.397  13.943  0.00  0.00    +0.000 C 
ATOM     30  C   UNL     1       6.515   5.949  15.763  0.00  0.00    +0.000 A 
ATOM     31  C   UNL     1       6.538   6.380  17.098  0.00  0.00    +0.000 A 
ATOM     32  C   UNL     1       7.355   7.574  17.502  0.00  0.00    +0.000 C 
ATOM     33  C   UNL     1       5.825   5.653  18.065  0.00  0.00    +0.000 A 
ENDBRANCH  23  26
ENDBRANCH  18  23
ENDBRANCH   1  18
TORSDOF 6
ENDMDL
MODEL 4
REMARK VINA RESULT:      -9.4      1.460      2.010
REMARK  Name = 
REMARK  9 active torsions:
REMARK  status: ('A' for Active; 'I' for Inactive)
REMARK    1  A    between atoms: C_1  and  C_2
REMARK    2  A    between atoms: N_7  and  C_8
REMARK    3  A    between atoms: C_11  and  C_12
REMARK    4  A    between atoms: C_12  and  N_13
REMARK    5  A    between atoms: N_13  and  C_14
REMARK    6  A    between atoms: N_13  and  S_18
REMARK    7  A    between atoms: S_18  and  C_21
REMARK    8  A    between atoms: C_23  and  C_24
REMARK    9  A    between atoms: C_26  and  C_27
REMARK                            x       y       z     vdW  Elec       q    Type
REMARK                         _______ _______ _______ _____ _____    ______ ____
ROOT
ATOM      1  C   UNL     1       2.491   5.226  18.408  0.00  0.00    +0.000 C 
ENDROOT
BRANCH   1   5
ATOM      2  C   UNL     1       1.906   9.501  18.913  0.00  0.00    +0.000 A 
ATOM      3  C   UNL     1       1.297   8.566  19.770  0.00  0.00    +0.000 A 
ATOM      4  C   UNL     1       1.462   7.192  19.601  0.00  0.00    +0.000 A 
ATOM      5  C   UNL     1       2.241   6.701  18.552  0.00  0.00    +0.000 A 
ATOM      6  C   UNL     1       2.824   7.622  17.679  0.00  0.00    +0.000 A 
ATOM      7  F   UNL     1       3.555   7.190  16.643  0.00  0.00    +0.000 F 
ATOM      8  C   UNL     1       2.662   8.997  17.853  0.00  0.00    +0.000 A 
BRANCH   2  15
ATOM      9  C   UNL     1       1.598  15.824  18.738  0.00  0.00    +0.000 C 
ATOM     10  C   UNL     1       1.279  14.894  19.878  0.00  0.00    +0.000 C 
ATOM     11  O   UNL     1       0.587  15.285  20.818  0.00  0.00    +0.000 OA
ATOM     12  N   UNL     1       1.743  13.599  19.780  0.00  0.00    +0.000 N 
ATOM     13  C   UNL     1       1.312  12.602  20.772  0.00  0.00    +0.000 C 
ATOM     14  C   UNL     1       0.716  11.361  20.077  0.00  0.00    +0.000 C 
ATOM     15  N   UNL     1       1.700  10.849  19.111  0.00  0.00    +0.000 N 
ATOM     16  C   UNL     1       2.104  11.818  18.077  0.00  0.00    +0.000 C 
ATOM     17  C   UNL     1       2.664  13.082  18.754  0.00  0.00    +0.000 C 
ENDBRANCH   2  15
ENDBRANCH   1   5
BRANCH   1  18
ATOM     18  N   UNL     1       3.280   4.605  19.529  0.00  0.00    +0.000 NA
BRANCH  18  19
ATOM     19  C   UNL     1       2.374   4.272  20.712  0.00  0.00    +0.000 C 
ATOM     20  C   UNL     1       0.977   3.654  20.425  0.00  0.00    +0.000 C 
ATOM     21  C   UNL     1       1.149   2.796  21.689  0.00  0.00    +0.000 C 
ATOM     22  C   UNL     1       2.666   2.959  21.501  0.00  0.00    +0.000 C 
ENDBRANCH  18  19
BRANCH  18  23
ATOM     23  S   UNL     1       4.417   3.444  18.917  0.00  0.00    +0.000 S 
ATOM     24  O   UNL     1       5.340   3.077  19.959  0.00  0.00    +0.000 OA
ATOM     25  O   UNL     1       3.661   2.434  18.194  0.00  0.00    +0.000 OA
BRANCH  23  26
ATOM     26  C   UNL     1       5.348   4.399  17.732  0.00  0.00    +0.000 A 
ATOM     27  C   UNL     1       5.387   3.952  16.408  0.00  0.00    +0.000 A 
ATOM     28  C   UNL     1       6.117   4.667  15.451  0.00  0.00    +0.000 A 
ATOM     29  C   UNL     1       6.126   4.240  14.012  0.00  0.00    +0.000 C 
ATOM     30  C   UNL     1       6.837   5.805  15.847  0.00  0.00    +0.000 A 
ATOM     31  C   UNL     1       6.797   6.259  17.174  0.00  0.00    +0.000 A 
ATOM     32  C   UNL     1       7.621   7.440  17.603  0.00  0.00    +0.000 C 
ATOM     33  C   UNL     1       6.016   5.567  18.112  0.00  0.00    +0.000 A 
ENDBRANCH  23  26
ENDBRANCH  18  23
ENDBRANCH   1  18
TORSDOF 6
ENDMDL
MODEL 5
REMARK VINA RESULT:      -9.4      0.617      1.864
REMARK  Name = 
REMARK  9 active torsions:
REMARK  status: ('A' for Active; 'I' for Inactive)
REMARK    1  A    between atoms: C_1  and  C_2
REMARK    2  A    between atoms: N_7  and  C_8
REMARK    3  A    between atoms: C_11  and  C_12
REMARK    4  A    between atoms: C_12  and  N_13
REMARK    5  A    between atoms: N_13  and  C_14
REMARK    6  A    between atoms: N_13  and  S_18
REMARK    7  A    between atoms: S_18  and  C_21
REMARK    8  A    between atoms: C_23  and  C_24
REMARK    9  A    between atoms: C_26  and  C_27
REMARK                            x       y       z     vdW  Elec       q    Type
REMARK                         _______ _______ _______ _____ _____    ______ ____
ROOT
ATOM      1  C   UNL     1       3.061   5.751  18.522  0.00  0.00    +0.000 C 
ENDROOT
BRANCH   1   5
ATOM      2  C   UNL     1       1.153   9.344  20.044  0.00  0.00    +0.000 A 
ATOM      3  C   UNL     1       1.302   8.194  20.840  0.00  0.00    +0.000 A 
ATOM      4  C   UNL     1       1.892   7.030  20.351  0.00  0.00    +0.000 A 
ATOM      5  C   UNL     1       2.350   6.972  19.034  0.00  0.00    +0.000 A 
ATOM      6  C   UNL     1       2.179   8.100  18.229  0.00  0.00    +0.000 A 
ATOM      7  F   UNL     1       2.578   8.075  16.950  0.00  0.00    +0.000 F 
ATOM      8  C   UNL     1       1.591   9.266  18.721  0.00  0.00    +0.000 A 
BRANCH   2  15
ATOM      9  C   UNL     1      -0.891  15.126  21.628  0.00  0.00    +0.000 C 
ATOM     10  C   UNL     1      -1.109  13.819  22.342  0.00  0.00    +0.000 C 
ATOM     11  O   UNL     1      -2.021  13.707  23.161  0.00  0.00    +0.000 OA
ATOM     12  N   UNL     1      -0.290  12.766  21.989  0.00  0.00    +0.000 N 
ATOM     13  C   UNL     1      -0.572  11.424  22.519  0.00  0.00    +0.000 C 
ATOM     14  C   UNL     1      -0.679  10.394  21.376  0.00  0.00    +0.000 C 
ATOM     15  N   UNL     1       0.548  10.467  20.567  0.00  0.00    +0.000 N 
ATOM     16  C   UNL     1       0.819  11.792  19.982  0.00  0.00    +0.000 C 
ATOM     17  C   UNL     1       0.887  12.840  21.108  0.00  0.00    +0.000 C 
ENDBRANCH   2  15
ENDBRANCH   1   5
BRANCH   1  18
ATOM     18  N   UNL     1       3.409   4.733  19.574  0.00  0.00    +0.000 NA
BRANCH  18  19
ATOM     19  C   UNL     1       2.183   4.375  20.411  0.00  0.00    +0.000 C 
ATOM     20  C   UNL     1       1.229   3.264  19.890  0.00  0.00    +0.000 C 
ATOM     21  C   UNL     1       1.030   2.818  21.347  0.00  0.00    +0.000 C 
ATOM     22  C   UNL     1       2.398   3.451  21.650  0.00  0.00    +0.000 C 
ENDBRANCH  18  19
BRANCH  18  23
ATOM     23  S   UNL     1       4.441   3.498  18.923  0.00  0.00    +0.000 S 
ATOM     24  O   UNL     1       5.209   2.901  19.985  0.00  0.00    +0.000 OA
ATOM     25  O   UNL     1       3.634   2.683  18.030  0.00  0.00    +0.000 OA
BRANCH  23  26
ATOM     26  C   UNL     1       5.594   4.435  17.934  0.00  0.00    +0.000 A 
ATOM     27  C   UNL     1       6.339   5.437  18.561  0.00  0.00    +0.000 A 
ATOM     28  C   UNL     1       7.245   6.203  17.817  0.00  0.00    +0.000 A 
ATOM     29  C   UNL     1       8.099   7.244  18.480  0.00  0.00    +0.000 C 
ATOM     30  C   UNL     1       7.360   5.980  16.436  0.00  0.00    +0.000 A 
ATOM     31  C   UNL     1       6.615   4.973  15.803  0.00  0.00    +0.000 A 
ATOM     32  C   UNL     1       6.697   4.783  14.315  0.00  0.00    +0.000 C 
ATOM     33  C   UNL     1       5.754   4.173  16.570  0.00  0.00    +0.000 A 
ENDBRANCH  23  26
ENDBRANCH  18  23
ENDBRANCH   1  18
TORSDOF 6
ENDMDL
MODEL 6
REMARK VINA RESULT:      -9.3      1.026      1.153
REMARK  Name = 
REMARK  9 active torsions:
REMARK  status: ('A' for Active; 'I' for Inactive)
REMARK    1  A    between atoms: C_1  and  C_2
REMARK    2  A    between atoms: N_7  and  C_8
REMARK    3  A    between atoms: C_11  and  C_12
REMARK    4  A    between atoms: C_12  and  N_13
REMARK    5  A    between atoms: N_13  and  C_14
REMARK    6  A    between atoms: N_13  and  S_18
REMARK    7  A    between atoms: S_18  and  C_21
REMARK    8  A    between atoms: C_23  and  C_24
REMARK    9  A    between atoms: C_26  and  C_27
REMARK                            x       y       z     vdW  Elec       q    Type
REMARK                         _______ _______ _______ _____ _____    ______ ____
ROOT
ATOM      1  C   UNL     1       2.563   5.357  18.411  0.00  0.00    +0.000 C 
ENDROOT
BRANCH   1   5
ATOM      2  C   UNL     1       1.633   9.514  19.261  0.00  0.00    +0.000 A 
ATOM      3  C   UNL     1       1.211   8.475  20.110  0.00  0.00    +0.000 A 
ATOM      4  C   UNL     1       1.486   7.136  19.832  0.00  0.00    +0.000 A 
ATOM      5  C   UNL     1       2.191   6.788  18.679  0.00  0.00    +0.000 A 
ATOM      6  C   UNL     1       2.587   7.812  17.816  0.00  0.00    +0.000 A 
ATOM      7  F   UNL     1       3.240   7.517  16.684  0.00  0.00    +0.000 F 
ATOM      8  C   UNL     1       2.314   9.151  18.098  0.00  0.00    +0.000 A 
BRANCH   2  15
ATOM      9  C   UNL     1      -0.097  15.045  21.816  0.00  0.00    +0.000 C 
ATOM     10  C   UNL     1       0.168  14.714  20.371  0.00  0.00    +0.000 C 
ATOM     11  O   UNL     1       0.397  15.614  19.564  0.00  0.00    +0.000 OA
ATOM     12  N   UNL     1       0.199  13.377  20.029  0.00  0.00    +0.000 N 
ATOM     13  C   UNL     1       0.629  12.989  18.678  0.00  0.00    +0.000 C 
ATOM     14  C   UNL     1       1.769  11.952  18.742  0.00  0.00    +0.000 C 
ATOM     15  N   UNL     1       1.323  10.821  19.570  0.00  0.00    +0.000 N 
ATOM     16  C   UNL     1       0.938  11.183  20.946  0.00  0.00    +0.000 C 
ATOM     17  C   UNL     1      -0.170  12.250  20.901  0.00  0.00    +0.000 C 
ENDBRANCH   2  15
ENDBRANCH   1   5
BRANCH   1  18
ATOM     18  N   UNL     1       3.287   4.669  19.536  0.00  0.00    +0.000 NA
BRANCH  18  19
ATOM     19  C   UNL     1       2.324   4.317  20.668  0.00  0.00    +0.000 C 
ATOM     20  C   UNL     1       0.994   3.595  20.311  0.00  0.00    +0.000 C 
ATOM     21  C   UNL     1       1.133   2.796  21.616  0.00  0.00    +0.000 C 
ATOM     22  C   UNL     1       2.646   3.055  21.526  0.00  0.00    +0.000 C 
ENDBRANCH  18  19
BRANCH  18  23
ATOM     23  S   UNL     1       4.415   3.499  18.924  0.00  0.00    +0.000 S 
ATOM     24  O   UNL     1       5.339   3.129  19.965  0.00  0.00    +0.000 OA
ATOM     25  O   UNL     1       3.652   2.493  18.205  0.00  0.00    +0.000 OA
BRANCH  23  26
ATOM     26  C   UNL     1       5.350   4.447  17.735  0.00  0.00    +0.000 A 
ATOM     27  C   UNL     1       5.403   3.984  16.417  0.00  0.00    +0.000 A 
ATOM     28  C   UNL     1       6.135   4.692  15.457  0.00  0.00    +0.000 A 
ATOM     29  C   UNL     1       6.159   4.248  14.024  0.00  0.00    +0.000 C 
ATOM     30  C   UNL     1       6.845   5.840  15.845  0.00  0.00    +0.000 A 
ATOM     31  C   UNL     1       6.791   6.310  17.166  0.00  0.00    +0.000 A 
ATOM     32  C   UNL     1       7.604   7.502  17.587  0.00  0.00    +0.000 C 
ATOM     33  C   UNL     1       6.006   5.624  18.106  0.00  0.00    +0.000 A 
ENDBRANCH  23  26
ENDBRANCH  18  23
ENDBRANCH   1  18
TORSDOF 6
ENDMDL
MODEL 7
REMARK VINA RESULT:      -9.3      0.599      1.099
REMARK  Name = 
REMARK  9 active torsions:
REMARK  status: ('A' for Active; 'I' for Inactive)
REMARK    1  A    between atoms: C_1  and  C_2
REMARK    2  A    between atoms: N_7  and  C_8
REMARK    3  A    between atoms: C_11  and  C_12
REMARK    4  A    between atoms: C_12  and  N_13
REMARK    5  A    between atoms: N_13  and  C_14
REMARK    6  A    between atoms: N_13  and  S_18
REMARK    7  A    between atoms: S_18  and  C_21
REMARK    8  A    between atoms: C_23  and  C_24
REMARK    9  A    between atoms: C_26  and  C_27
REMARK                            x       y       z     vdW  Elec       q    Type
REMARK                         _______ _______ _______ _____ _____    ______ ____
ROOT
ATOM      1  C   UNL     1       3.002   5.789  18.521  0.00  0.00    +0.000 C 
ENDROOT
BRANCH   1   5
ATOM      2  C   UNL     1       1.091   9.358  20.095  0.00  0.00    +0.000 A 
ATOM      3  C   UNL     1       1.229   8.192  20.870  0.00  0.00    +0.000 A 
ATOM      4  C   UNL     1       1.821   7.036  20.364  0.00  0.00    +0.000 A 
ATOM      5  C   UNL     1       2.291   7.002  19.050  0.00  0.00    +0.000 A 
ATOM      6  C   UNL     1       2.130   8.146  18.265  0.00  0.00    +0.000 A 
ATOM      7  F   UNL     1       2.540   8.145  16.990  0.00  0.00    +0.000 F 
ATOM      8  C   UNL     1       1.541   9.304  18.775  0.00  0.00    +0.000 A 
BRANCH   2  15
ATOM      9  C   UNL     1      -1.018  15.107  21.710  0.00  0.00    +0.000 C 
ATOM     10  C   UNL     1      -1.168  13.804  22.450  0.00  0.00    +0.000 C 
ATOM     11  O   UNL     1      -2.035  13.681  23.314  0.00  0.00    +0.000 OA
ATOM     12  N   UNL     1      -0.340  12.768  22.069  0.00  0.00    +0.000 N 
ATOM     13  C   UNL     1      -0.562  11.426  22.628  0.00  0.00    +0.000 C 
ATOM     14  C   UNL     1      -0.700  10.380  21.504  0.00  0.00    +0.000 C 
ATOM     15  N   UNL     1       0.484  10.472  20.634  0.00  0.00    +0.000 N 
ATOM     16  C   UNL     1       0.692  11.796  20.021  0.00  0.00    +0.000 C 
ATOM     17  C   UNL     1       0.789  12.860  21.130  0.00  0.00    +0.000 C 
ENDBRANCH   2  15
ENDBRANCH   1   5
BRANCH   1  18
ATOM     18  N   UNL     1       3.391   4.777  19.564  0.00  0.00    +0.000 NA
BRANCH  18  19
ATOM     19  C   UNL     1       2.192   4.406  20.434  0.00  0.00    +0.000 C 
ATOM     20  C   UNL     1       1.194   3.339  19.904  0.00  0.00    +0.000 C 
ATOM     21  C   UNL     1       1.044   2.831  21.347  0.00  0.00    +0.000 C 
ATOM     22  C   UNL     1       2.436   3.422  21.620  0.00  0.00    +0.000 C 
ENDBRANCH  18  19
BRANCH  18  23
ATOM     23  S   UNL     1       4.420   3.553  18.887  0.00  0.00    +0.000 S 
ATOM     24  O   UNL     1       5.275   3.019  19.915  0.00  0.00    +0.000 OA
ATOM     25  O   UNL     1       3.586   2.682  18.077  0.00  0.00    +0.000 OA
BRANCH  23  26
ATOM     26  C   UNL     1       5.474   4.492  17.794  0.00  0.00    +0.000 A 
ATOM     27  C   UNL     1       5.595   4.067  16.469  0.00  0.00    +0.000 A 
ATOM     28  C   UNL     1       6.421   4.770  15.583  0.00  0.00    +0.000 A 
ATOM     29  C   UNL     1       6.522   4.368  14.141  0.00  0.00    +0.000 C 
ATOM     30  C   UNL     1       7.152   5.872  16.055  0.00  0.00    +0.000 A 
ATOM     31  C   UNL     1       7.030   6.303  17.384  0.00  0.00    +0.000 A 
ATOM     32  C   UNL     1       7.863   7.444  17.897  0.00  0.00    +0.000 C 
ATOM     33  C   UNL     1       6.154   5.627  18.247  0.00  0.00    +0.000 A 
ENDBRANCH  23  26
ENDBRANCH  18  23
ENDBRANCH   1  18
TORSDOF 6
ENDMDL
MODEL 8
REMARK VINA RESULT:      -9.3      1.656      2.782
REMARK  Name = 
REMARK  9 active torsions:
REMARK  status: ('A' for Active; 'I' for Inactive)
REMARK    1  A    between atoms: C_1  and  C_2
REMARK    2  A    between atoms: N_7  and  C_8
REMARK    3  A    between atoms: C_11  and  C_12
REMARK    4  A    between atoms: C_12  and  N_13
REMARK    5  A    between atoms: N_13  and  C_14
REMARK    6  A    between atoms: N_13  and  S_18
REMARK    7  A    between atoms: S_18  and  C_21
REMARK    8  A    between atoms: C_23  and  C_24
REMARK    9  A    between atoms: C_26  and  C_27
REMARK                            x       y       z     vdW  Elec       q    Type
REMARK                         _______ _______ _______ _____ _____    ______ ____
ROOT
ATOM      1  C   UNL     1       2.394   5.161  18.532  0.00  0.00    +0.000 C 
ENDROOT
BRANCH   1   5
ATOM      2  C   UNL     1       1.822   9.446  18.954  0.00  0.00    +0.000 A 
ATOM      3  C   UNL     1       2.445   8.893  17.820  0.00  0.00    +0.000 A 
ATOM      4  C   UNL     1       2.653   7.521  17.688  0.00  0.00    +0.000 A 
ATOM      5  C   UNL     1       2.249   6.647  18.700  0.00  0.00    +0.000 A 
ATOM      6  C   UNL     1       1.656   7.192  19.841  0.00  0.00    +0.000 A 
ATOM      7  F   UNL     1       1.282   6.390  20.846  0.00  0.00    +0.000 F 
ATOM      8  C   UNL     1       1.446   8.565  19.969  0.00  0.00    +0.000 A 
BRANCH   2  15
ATOM      9  C   UNL     1       1.845  15.755  18.395  0.00  0.00    +0.000 C 
ATOM     10  C   UNL     1       1.314  14.909  19.522  0.00  0.00    +0.000 C 
ATOM     11  O   UNL     1       0.508  15.381  20.322  0.00  0.00    +0.000 OA
ATOM     12  N   UNL     1       1.726  13.592  19.566  0.00  0.00    +0.000 N 
ATOM     13  C   UNL     1       1.104  12.675  20.531  0.00  0.00    +0.000 C 
ATOM     14  C   UNL     1       0.560  11.418  19.821  0.00  0.00    +0.000 C 
ATOM     15  N   UNL     1       1.654  10.811  19.046  0.00  0.00    +0.000 N 
ATOM     16  C   UNL     1       2.254  11.700  18.035  0.00  0.00    +0.000 C 
ATOM     17  C   UNL     1       2.764  12.980  18.721  0.00  0.00    +0.000 C 
ENDBRANCH   2  15
ENDBRANCH   1   5
BRANCH   1  18
ATOM     18  N   UNL     1       3.202   4.479  19.602  0.00  0.00    +0.000 NA
BRANCH  18  19
ATOM     19  C   UNL     1       2.326   4.126  20.803  0.00  0.00    +0.000 C 
ATOM     20  C   UNL     1       0.954   3.444  20.543  0.00  0.00    +0.000 C 
ATOM     21  C   UNL     1       1.180   2.614  21.818  0.00  0.00    +0.000 C 
ATOM     22  C   UNL     1       2.686   2.839  21.607  0.00  0.00    +0.000 C 
ENDBRANCH  18  19
BRANCH  18  23
ATOM     23  S   UNL     1       4.287   3.312  18.911  0.00  0.00    +0.000 S 
ATOM     24  O   UNL     1       5.259   2.914  19.896  0.00  0.00    +0.000 OA
ATOM     25  O   UNL     1       3.478   2.327  18.213  0.00  0.00    +0.000 OA
BRANCH  23  26
ATOM     26  C   UNL     1       5.169   4.274  17.694  0.00  0.00    +0.000 A 
ATOM     27  C   UNL     1       5.903   5.380  18.132  0.00  0.00    +0.000 A 
ATOM     28  C   UNL     1       6.599   6.167  17.207  0.00  0.00    +0.000 A 
ATOM     29  C   UNL     1       7.442   7.323  17.660  0.00  0.00    +0.000 C 
ATOM     30  C   UNL     1       6.513   5.857  15.841  0.00  0.00    +0.000 A 
ATOM     31  C   UNL     1       5.779   4.746  15.397  0.00  0.00    +0.000 A 
ATOM     32  C   UNL     1       5.640   4.459  13.929  0.00  0.00    +0.000 C 
ATOM     33  C   UNL     1       5.134   3.931  16.339  0.00  0.00    +0.000 A 
ENDBRANCH  23  26
ENDBRANCH  18  23
ENDBRANCH   1  18
TORSDOF 6
ENDMDL
MODEL 9
REMARK VINA RESULT:      -9.1      1.535      1.888
REMARK  Name = 
REMARK  9 active torsions:
REMARK  status: ('A' for Active; 'I' for Inactive)
REMARK    1  A    between atoms: C_1  and  C_2
REMARK    2  A    between atoms: N_7  and  C_8
REMARK    3  A    between atoms: C_11  and  C_12
REMARK    4  A    between atoms: C_12  and  N_13
REMARK    5  A    between atoms: N_13  and  C_14
REMARK    6  A    between atoms: N_13  and  S_18
REMARK    7  A    between atoms: S_18  and  C_21
REMARK    8  A    between atoms: C_23  and  C_24
REMARK    9  A    between atoms: C_26  and  C_27
REMARK                            x       y       z     vdW  Elec       q    Type
REMARK                         _______ _______ _______ _____ _____    ______ ____
ROOT
ATOM      1  C   UNL     1       2.432   5.301  18.547  0.00  0.00    +0.000 C 
ENDROOT
BRANCH   1   5
ATOM      2  C   UNL     1       1.664   9.535  19.142  0.00  0.00    +0.000 A 
ATOM      3  C   UNL     1       2.208   9.046  17.941  0.00  0.00    +0.000 A 
ATOM      4  C   UNL     1       2.478   7.691  17.751  0.00  0.00    +0.000 A 
ATOM      5  C   UNL     1       2.220   6.772  18.770  0.00  0.00    +0.000 A 
ATOM      6  C   UNL     1       1.708   7.255  19.976  0.00  0.00    +0.000 A 
ATOM      7  F   UNL     1       1.474   6.410  20.988  0.00  0.00    +0.000 F 
ATOM      8  C   UNL     1       1.434   8.611  20.162  0.00  0.00    +0.000 A 
BRANCH   2  15
ATOM      9  C   UNL     1      -0.063  15.386  20.845  0.00  0.00    +0.000 C 
ATOM     10  C   UNL     1       0.538  14.919  19.546  0.00  0.00    +0.000 C 
ATOM     11  O   UNL     1       1.071  15.728  18.786  0.00  0.00    +0.000 OA
ATOM     12  N   UNL     1       0.511  13.563  19.293  0.00  0.00    +0.000 N 
ATOM     13  C   UNL     1       1.239  13.032  18.132  0.00  0.00    +0.000 C 
ATOM     14  C   UNL     1       2.200  11.902  18.556  0.00  0.00    +0.000 C 
ATOM     15  N   UNL     1       1.428  10.886  19.289  0.00  0.00    +0.000 N 
ATOM     16  C   UNL     1       0.735  11.389  20.488  0.00  0.00    +0.000 C 
ATOM     17  C   UNL     1      -0.198  12.546  20.088  0.00  0.00    +0.000 C 
ENDBRANCH   2  15
ENDBRANCH   1   5
BRANCH   1  18
ATOM     18  N   UNL     1       3.182   4.596  19.645  0.00  0.00    +0.000 NA
BRANCH  18  19
ATOM     19  C   UNL     1       2.238   4.191  20.775  0.00  0.00    +0.000 C 
ATOM     20  C   UNL     1       0.961   3.380  20.418  0.00  0.00    +0.000 C 
ATOM     21  C   UNL     1       1.146   2.603  21.731  0.00  0.00    +0.000 C 
ATOM     22  C   UNL     1       2.638   2.960  21.646  0.00  0.00    +0.000 C 
ENDBRANCH  18  19
BRANCH  18  23
ATOM     23  S   UNL     1       4.328   3.469  18.987  0.00  0.00    +0.000 S 
ATOM     24  O   UNL     1       5.314   3.145  19.985  0.00  0.00    +0.000 OA
ATOM     25  O   UNL     1       3.573   2.427  18.311  0.00  0.00    +0.000 OA
BRANCH  23  26
ATOM     26  C   UNL     1       5.166   4.444  17.749  0.00  0.00    +0.000 A 
ATOM     27  C   UNL     1       5.083   4.032  16.417  0.00  0.00    +0.000 A 
ATOM     28  C   UNL     1       5.736   4.763  15.417  0.00  0.00    +0.000 A 
ATOM     29  C   UNL     1       5.614   4.374  13.974  0.00  0.00    +0.000 C 
ATOM     30  C   UNL     1       6.504   5.882  15.778  0.00  0.00    +0.000 A 
ATOM     31  C   UNL     1       6.586   6.301  17.114  0.00  0.00    +0.000 A 
ATOM     32  C   UNL     1       7.461   7.461  17.499  0.00  0.00    +0.000 C 
ATOM     33  C   UNL     1       5.880   5.594  18.099  0.00  0.00    +0.000 A 
ENDBRANCH  23  26
ENDBRANCH  18  23
ENDBRANCH   1  18
TORSDOF 6
ENDMDL
