MODEL 1
REMARK VINA RESULT:      -7.7      0.000      0.000
REMARK  Name = 
REMARK  5 active torsions:
REMARK  status: ('A' for Active; 'I' for Inactive)
REMARK    1  A    between atoms: C_1  and  N_2
REMARK    2  A    between atoms: C_7  and  C_8
REMARK    3  A    between atoms: N_10  and  C_11
REMARK    4  A    between atoms: C_14  and  N_15
REMARK    5  A    between atoms: C_16  and  C_18
REMARK                            x       y       z     vdW  Elec       q    Type
REMARK                         _______ _______ _______ _____ _____    ______ ____
ROOT
ATOM      1  C   UNL     1       1.004  10.911  19.045  0.00  0.00    +0.000 C 
ATOM      2  C   UNL     1       2.150  11.816  18.535  0.00  0.00    +0.000 C 
ATOM      3  C   UNL     1       1.606  12.926  19.453  0.00  0.00    +0.000 C 
ATOM      4  C   UNL     1       0.972  11.815  20.322  0.00  0.00    +0.000 C 
ENDROOT
BRANCH   1   7
ATOM      5  C   UNL     1       2.007   8.731  18.277  0.00  0.00    +0.000 C 
ATOM      6  O   UNL     1       2.233   9.195  17.159  0.00  0.00    +0.000 OA
ATOM      7  N   UNL     1       1.390   9.503  19.256  0.00  0.00    +0.000 N 
ATOM      8  H   UNL     1       1.303   9.053  20.163  0.00  0.00    +0.000 HD
BRANCH   5  15
ATOM      9  C   UNL     1       4.558   1.872  20.189  0.00  0.00    +0.000 C 
ATOM     10  N   UNL     1       4.014   3.228  20.261  0.00  0.00    +0.000 NA
ATOM     11  C   UNL     1       2.641   3.224  20.818  0.00  0.00    +0.000 C 
ATOM     12  C   UNL     1       2.134   4.659  21.105  0.00  0.00    +0.000 C 
ATOM     13  C   UNL     1       2.424   5.556  19.948  0.00  0.00    +0.000 A 
ATOM     14  N   UNL     1       1.851   6.807  19.801  0.00  0.00    +0.000 NA
ATOM     15  C   UNL     1       2.354   7.380  18.715  0.00  0.00    +0.000 A 
ATOM     16  S   UNL     1       3.478   6.428  17.817  0.00  0.00    +0.000 S 
ATOM     17  C   UNL     1       3.328   5.191  18.973  0.00  0.00    +0.000 A 
ATOM     18  C   UNL     1       4.051   3.880  18.928  0.00  0.00    +0.000 C 
ENDBRANCH   5  15
ENDBRANCH   1   7
BRANCH   4  19
ATOM     19  N   UNL     1      -0.383  12.129  20.809  0.00  0.00    +0.000 N 
ATOM     20  C   UNL     1      -0.806  11.829  22.086  0.00  0.00    +0.000 C 
ATOM     21  O   UNL     1      -0.080  11.284  22.911  0.00  0.00    +0.000 OA
ATOM     22  H   UNL     1      -1.069  12.475  20.150  0.00  0.00    +0.000 HD
BRANCH  20  23
ATOM     23  C   UNL     1      -2.159  12.230  22.401  0.00  0.00    +0.000 A 
ATOM     24  C   UNL     1      -2.858  12.295  23.595  0.00  0.00    +0.000 A 
ATOM     25  C   UNL     1      -4.188  12.716  23.316  0.00  0.00    +0.000 A 
ATOM     26  C   UNL     1      -5.325  12.938  24.116  0.00  0.00    +0.000 A 
ATOM     27  C   UNL     1      -6.511  13.350  23.502  0.00  0.00    +0.000 A 
ATOM     28 CL   UNL     1      -7.911  13.616  24.470  0.00  0.00    +0.000 Cl
ATOM     29  C   UNL     1      -6.580  13.543  22.125  0.00  0.00    +0.000 A 
ATOM     30  C   UNL     1      -5.460  13.331  21.313  0.00  0.00    +0.000 A 
ATOM     31  C   UNL     1      -4.278  12.917  21.941  0.00  0.00    +0.000 A 
ATOM     32  N   UNL     1      -3.039  12.632  21.415  0.00  0.00    +0.000 N 
ATOM     33  H   UNL     1      -2.790  12.684  20.435  0.00  0.00    +0.000 HD
ENDBRANCH  20  23
ENDBRANCH   4  19
TORSDOF 4
ENDMDL
MODEL 2
REMARK VINA RESULT:      -7.7      4.039     10.038
REMARK  Name = 
REMARK  5 active torsions:
REMARK  status: ('A' for Active; 'I' for Inactive)
REMARK    1  A    between atoms: C_1  and  N_2
REMARK    2  A    between atoms: C_7  and  C_8
REMARK    3  A    between atoms: N_10  and  C_11
REMARK    4  A    between atoms: C_14  and  N_15
REMARK    5  A    between atoms: C_16  and  C_18
REMARK                            x       y       z     vdW  Elec       q    Type
REMARK                         _______ _______ _______ _____ _____    ______ ____
ROOT
ATOM      1  C   UNL     1       1.316  12.805  20.161  0.00  0.00    +0.000 C 
ATOM      2  C   UNL     1       1.838  14.176  19.671  0.00  0.00    +0.000 C 
ATOM      3  C   UNL     1       2.540  13.434  18.519  0.00  0.00    +0.000 C 
ATOM      4  C   UNL     1       1.497  12.305  18.689  0.00  0.00    +0.000 C 
ENDROOT
BRANCH   1   7
ATOM      5  C   UNL     1      -0.470  12.119  21.799  0.00  0.00    +0.000 C 
ATOM      6  O   UNL     1       0.324  11.402  22.409  0.00  0.00    +0.000 OA
ATOM      7  N   UNL     1      -0.066  12.829  20.673  0.00  0.00    +0.000 N 
ATOM      8  H   UNL     1      -0.775  13.440  20.277  0.00  0.00    +0.000 HD
BRANCH   5  15
ATOM      9  C   UNL     1      -7.907  12.908  22.923  0.00  0.00    +0.000 C 
ATOM     10  N   UNL     1      -6.511  12.496  23.066  0.00  0.00    +0.000 NA
ATOM     11  C   UNL     1      -5.944  12.967  24.351  0.00  0.00    +0.000 C 
ATOM     12  C   UNL     1      -4.544  12.358  24.617  0.00  0.00    +0.000 C 
ATOM     13  C   UNL     1      -3.694  12.449  23.393  0.00  0.00    +0.000 A 
ATOM     14  N   UNL     1      -2.325  12.243  23.408  0.00  0.00    +0.000 NA
ATOM     15  C   UNL     1      -1.870  12.328  22.165  0.00  0.00    +0.000 A 
ATOM     16  S   UNL     1      -3.045  12.704  20.959  0.00  0.00    +0.000 S 
ATOM     17  C   UNL     1      -4.250  12.705  22.158  0.00  0.00    +0.000 A 
ATOM     18  C   UNL     1      -5.704  12.971  21.915  0.00  0.00    +0.000 C 
ENDBRANCH   5  15
ENDBRANCH   1   7
BRANCH   4  19
ATOM     19  N   UNL     1       2.054  10.946  18.575  0.00  0.00    +0.000 N 
ATOM     20  C   UNL     1       1.313   9.812  18.824  0.00  0.00    +0.000 C 
ATOM     21  O   UNL     1       0.133   9.853  19.154  0.00  0.00    +0.000 OA
ATOM     22  H   UNL     1       3.049  10.839  18.417  0.00  0.00    +0.000 HD
BRANCH  20  23
ATOM     23  C   UNL     1       2.014   8.560  18.640  0.00  0.00    +0.000 A 
ATOM     24  C   UNL     1       2.745   8.048  17.581  0.00  0.00    +0.000 A 
ATOM     25  C   UNL     1       3.176   6.736  17.922  0.00  0.00    +0.000 A 
ATOM     26  C   UNL     1       3.921   5.751  17.247  0.00  0.00    +0.000 A 
ATOM     27  C   UNL     1       4.162   4.532  17.886  0.00  0.00    +0.000 A 
ATOM     28 CL   UNL     1       5.065   3.315  17.066  0.00  0.00    +0.000 Cl
ATOM     29  C   UNL     1       3.682   4.284  19.169  0.00  0.00    +0.000 A 
ATOM     30  C   UNL     1       2.943   5.252  19.859  0.00  0.00    +0.000 A 
ATOM     31  C   UNL     1       2.707   6.469  19.205  0.00  0.00    +0.000 A 
ATOM     32  N   UNL     1       2.023   7.588  19.621  0.00  0.00    +0.000 N 
ATOM     33  H   UNL     1       1.563   7.698  20.516  0.00  0.00    +0.000 HD
ENDBRANCH  20  23
ENDBRANCH   4  19
TORSDOF 4
ENDMDL
MODEL 3
REMARK VINA RESULT:      -7.7      5.367     11.610
REMARK  Name = 
REMARK  5 active torsions:
REMARK  status: ('A' for Active; 'I' for Inactive)
REMARK    1  A    between atoms: C_1  and  N_2
REMARK    2  A    between atoms: C_7  and  C_8
REMARK    3  A    between atoms: N_10  and  C_11
REMARK    4  A    between atoms: C_14  and  N_15
REMARK    5  A    between atoms: C_16  and  C_18
REMARK                            x       y       z     vdW  Elec       q    Type
REMARK                         _______ _______ _______ _____ _____    ______ ____
ROOT
ATOM      1  C   UNL     1       1.839   4.576  20.228  0.00  0.00    +0.000 C 
ATOM      2  C   UNL     1       1.849   3.545  21.381  0.00  0.00    +0.000 C 
ATOM      3  C   UNL     1       3.183   3.017  20.822  0.00  0.00    +0.000 C 
ATOM      4  C   UNL     1       3.394   4.406  20.175  0.00  0.00    +0.000 C 
ENDROOT
BRANCH   1   7
ATOM      5  C   UNL     1       1.785   7.085  20.005  0.00  0.00    +0.000 C 
ATOM      6  O   UNL     1       2.645   7.055  19.125  0.00  0.00    +0.000 OA
ATOM      7  N   UNL     1       1.346   5.912  20.611  0.00  0.00    +0.000 N 
ATOM      8  H   UNL     1       0.591   6.034  21.281  0.00  0.00    +0.000 HD
BRANCH   5  15
ATOM      9  C   UNL     1      -1.846  13.485  21.755  0.00  0.00    +0.000 C 
ATOM     10  N   UNL     1      -1.441  12.080  21.704  0.00  0.00    +0.000 NA
ATOM     11  C   UNL     1      -0.964  11.614  23.026  0.00  0.00    +0.000 C 
ATOM     12  C   UNL     1      -0.740  10.081  23.046  0.00  0.00    +0.000 C 
ATOM     13  C   UNL     1       0.011   9.648  21.831  0.00  0.00    +0.000 A 
ATOM     14  N   UNL     1       0.592   8.397  21.709  0.00  0.00    +0.000 NA
ATOM     15  C   UNL     1       1.124   8.293  20.499  0.00  0.00    +0.000 A 
ATOM     16  S   UNL     1       0.994   9.692  19.498  0.00  0.00    +0.000 S 
ATOM     17  C   UNL     1       0.127  10.474  20.733  0.00  0.00    +0.000 A 
ATOM     18  C   UNL     1      -0.412  11.869  20.655  0.00  0.00    +0.000 C 
ENDBRANCH   5  15
ENDBRANCH   1   7
BRANCH   4  19
ATOM     19  N   UNL     1       3.953   4.358  18.813  0.00  0.00    +0.000 N 
ATOM     20  C   UNL     1       5.264   4.674  18.532  0.00  0.00    +0.000 C 
ATOM     21  O   UNL     1       6.063   5.011  19.399  0.00  0.00    +0.000 OA
ATOM     22  H   UNL     1       3.325   4.198  18.034  0.00  0.00    +0.000 HD
BRANCH  20  23
ATOM     23  C   UNL     1       5.648   4.549  17.143  0.00  0.00    +0.000 A 
ATOM     24  C   UNL     1       5.226   3.703  16.131  0.00  0.00    +0.000 A 
ATOM     25  C   UNL     1       5.984   3.986  14.961  0.00  0.00    +0.000 A 
ATOM     26  C   UNL     1       6.003   3.446  13.661  0.00  0.00    +0.000 A 
ATOM     27  C   UNL     1       6.906   3.965  12.729  0.00  0.00    +0.000 A 
ATOM     28 CL   UNL     1       6.945   3.305  11.138  0.00  0.00    +0.000 Cl
ATOM     29  C   UNL     1       7.774   5.000  13.065  0.00  0.00    +0.000 A 
ATOM     30  C   UNL     1       7.766   5.554  14.351  0.00  0.00    +0.000 A 
ATOM     31  C   UNL     1       6.859   5.022  15.276  0.00  0.00    +0.000 A 
ATOM     32  N   UNL     1       6.627   5.353  16.592  0.00  0.00    +0.000 N 
ATOM     33  H   UNL     1       7.111   6.074  17.111  0.00  0.00    +0.000 HD
ENDBRANCH  20  23
ENDBRANCH   4  19
TORSDOF 4
ENDMDL
MODEL 4
REMARK VINA RESULT:      -7.6      5.326     11.593
REMARK  Name = 
REMARK  5 active torsions:
REMARK  status: ('A' for Active; 'I' for Inactive)
REMARK    1  A    between atoms: C_1  and  N_2
REMARK    2  A    between atoms: C_7  and  C_8
REMARK    3  A    between atoms: N_10  and  C_11
REMARK    4  A    between atoms: C_14  and  N_15
REMARK    5  A    between atoms: C_16  and  C_18
REMARK                            x       y       z     vdW  Elec       q    Type
REMARK                         _______ _______ _______ _____ _____    ______ ____
ROOT
ATOM      1  C   UNL     1       1.769   4.761  20.237  0.00  0.00    +0.000 C 
ATOM      2  C   UNL     1       1.723   3.742  21.399  0.00  0.00    +0.000 C 
ATOM      3  C   UNL     1       3.035   3.147  20.856  0.00  0.00    +0.000 C 
ATOM      4  C   UNL     1       3.314   4.518  20.196  0.00  0.00    +0.000 C 
ENDROOT
BRANCH   1   7
ATOM      5  C   UNL     1       1.757   7.260  19.925  0.00  0.00    +0.000 C 
ATOM      6  O   UNL     1       2.552   7.177  18.989  0.00  0.00    +0.000 OA
ATOM      7  N   UNL     1       1.335   6.121  20.604  0.00  0.00    +0.000 N 
ATOM      8  H   UNL     1       0.632   6.286  21.319  0.00  0.00    +0.000 HD
BRANCH   5  15
ATOM      9  C   UNL     1      -1.209  13.371  23.252  0.00  0.00    +0.000 C 
ATOM     10  N   UNL     1      -0.358  12.497  22.445  0.00  0.00    +0.000 NA
ATOM     11  C   UNL     1      -0.451  12.841  21.007  0.00  0.00    +0.000 C 
ATOM     12  C   UNL     1       0.603  12.078  20.166  0.00  0.00    +0.000 C 
ATOM     13  C   UNL     1       0.628  10.635  20.547  0.00  0.00    +0.000 A 
ATOM     14  N   UNL     1       1.260   9.665  19.787  0.00  0.00    +0.000 NA
ATOM     15  C   UNL     1       1.162   8.502  20.419  0.00  0.00    +0.000 A 
ATOM     16  S   UNL     1       0.275   8.522  21.898  0.00  0.00    +0.000 S 
ATOM     17  C   UNL     1       0.048  10.197  21.719  0.00  0.00    +0.000 A 
ATOM     18  C   UNL     1      -0.698  11.071  22.679  0.00  0.00    +0.000 C 
ENDBRANCH   5  15
ENDBRANCH   1   7
BRANCH   4  19
ATOM     19  N   UNL     1       3.879   4.431  18.839  0.00  0.00    +0.000 N 
ATOM     20  C   UNL     1       5.122   4.930  18.514  0.00  0.00    +0.000 C 
ATOM     21  O   UNL     1       5.849   5.478  19.336  0.00  0.00    +0.000 OA
ATOM     22  H   UNL     1       3.291   4.095  18.086  0.00  0.00    +0.000 HD
BRANCH  20  23
ATOM     23  C   UNL     1       5.528   4.737  17.140  0.00  0.00    +0.000 A 
ATOM     24  C   UNL     1       5.103   3.858  16.157  0.00  0.00    +0.000 A 
ATOM     25  C   UNL     1       5.888   4.073  14.990  0.00  0.00    +0.000 A 
ATOM     26  C   UNL     1       5.918   3.476  13.715  0.00  0.00    +0.000 A 
ATOM     27  C   UNL     1       6.850   3.933  12.779  0.00  0.00    +0.000 A 
ATOM     28 CL   UNL     1       6.902   3.204  11.219  0.00  0.00    +0.000 Cl
ATOM     29  C   UNL     1       7.737   4.960  13.088  0.00  0.00    +0.000 A 
ATOM     30  C   UNL     1       7.720   5.569  14.348  0.00  0.00    +0.000 A 
ATOM     31  C   UNL     1       6.783   5.100  15.278  0.00  0.00    +0.000 A 
ATOM     32  N   UNL     1       6.536   5.493  16.573  0.00  0.00    +0.000 N 
ATOM     33  H   UNL     1       7.028   6.224  17.070  0.00  0.00    +0.000 HD
ENDBRANCH  20  23
ENDBRANCH   4  19
TORSDOF 4
ENDMDL
MODEL 5
REMARK VINA RESULT:      -7.5      5.621     11.882
REMARK  Name = 
REMARK  5 active torsions:
REMARK  status: ('A' for Active; 'I' for Inactive)
REMARK    1  A    between atoms: C_1  and  N_2
REMARK    2  A    between atoms: C_7  and  C_8
REMARK    3  A    between atoms: N_10  and  C_11
REMARK    4  A    between atoms: C_14  and  N_15
REMARK    5  A    between atoms: C_16  and  C_18
REMARK                            x       y       z     vdW  Elec       q    Type
REMARK                         _______ _______ _______ _____ _____    ______ ____
ROOT
ATOM      1  C   UNL     1       2.224   5.977  19.424  0.00  0.00    +0.000 C 
ATOM      2  C   UNL     1       2.111   5.216  20.765  0.00  0.00    +0.000 C 
ATOM      3  C   UNL     1       3.317   4.369  20.322  0.00  0.00    +0.000 C 
ATOM      4  C   UNL     1       3.726   5.541  19.399  0.00  0.00    +0.000 C 
ENDROOT
BRANCH   1   7
ATOM      5  C   UNL     1       2.077   8.291  18.439  0.00  0.00    +0.000 C 
ATOM      6  O   UNL     1       2.425   7.875  17.333  0.00  0.00    +0.000 OA
ATOM      7  N   UNL     1       1.970   7.426  19.524  0.00  0.00    +0.000 N 
ATOM      8  H   UNL     1       1.617   7.852  20.376  0.00  0.00    +0.000 HD
BRANCH   5  15
ATOM      9  C   UNL     1       0.175  15.210  20.829  0.00  0.00    +0.000 C 
ATOM     10  N   UNL     1       0.910  14.091  20.240  0.00  0.00    +0.000 NA
ATOM     11  C   UNL     1       1.144  14.307  18.793  0.00  0.00    +0.000 C 
ATOM     12  C   UNL     1       2.104  13.245  18.203  0.00  0.00    +0.000 C 
ATOM     13  C   UNL     1       1.715  11.878  18.659  0.00  0.00    +0.000 A 
ATOM     14  N   UNL     1       2.208  10.721  18.082  0.00  0.00    +0.000 NA
ATOM     15  C   UNL     1       1.728   9.678  18.746  0.00  0.00    +0.000 A 
ATOM     16  S   UNL     1       0.641  10.043  20.035  0.00  0.00    +0.000 S 
ATOM     17  C   UNL     1       0.860  11.701  19.726  0.00  0.00    +0.000 A 
ATOM     18  C   UNL     1       0.200  12.810  20.485  0.00  0.00    +0.000 C 
ENDBRANCH   5  15
ENDBRANCH   1   7
BRANCH   4  19
ATOM     19  N   UNL     1       4.215   5.123  18.074  0.00  0.00    +0.000 N 
ATOM     20  C   UNL     1       5.199   5.805  17.391  0.00  0.00    +0.000 C 
ATOM     21  O   UNL     1       5.744   6.806  17.844  0.00  0.00    +0.000 OA
ATOM     22  H   UNL     1       3.734   4.373  17.591  0.00  0.00    +0.000 HD
BRANCH  20  23
ATOM     23  C   UNL     1       5.573   5.240  16.114  0.00  0.00    +0.000 A 
ATOM     24  C   UNL     1       5.153   4.107  15.437  0.00  0.00    +0.000 A 
ATOM     25  C   UNL     1       5.897   4.003  14.228  0.00  0.00    +0.000 A 
ATOM     26  C   UNL     1       5.912   3.070  13.174  0.00  0.00    +0.000 A 
ATOM     27  C   UNL     1       6.799   3.268  12.112  0.00  0.00    +0.000 A 
ATOM     28 CL   UNL     1       6.834   2.127  10.821  0.00  0.00    +0.000 Cl
ATOM     29  C   UNL     1       7.656   4.365  12.083  0.00  0.00    +0.000 A 
ATOM     30  C   UNL     1       7.652   5.306  13.120  0.00  0.00    +0.000 A 
ATOM     31  C   UNL     1       6.760   5.094  14.179  0.00  0.00    +0.000 A 
ATOM     32  N   UNL     1       6.535   5.832  15.318  0.00  0.00    +0.000 N 
ATOM     33  H   UNL     1       7.014   6.687  15.570  0.00  0.00    +0.000 HD
ENDBRANCH  20  23
ENDBRANCH   4  19
TORSDOF 4
ENDMDL
MODEL 6
REMARK VINA RESULT:      -7.5      3.982     10.142
REMARK  Name = 
REMARK  5 active torsions:
REMARK  status: ('A' for Active; 'I' for Inactive)
REMARK    1  A    between atoms: C_1  and  N_2
REMARK    2  A    between atoms: C_7  and  C_8
REMARK    3  A    between atoms: N_10  and  C_11
REMARK    4  A    between atoms: C_14  and  N_15
REMARK    5  A    between atoms: C_16  and  C_18
REMARK                            x       y       z     vdW  Elec       q    Type
REMARK                         _______ _______ _______ _____ _____    ______ ____
ROOT
ATOM      1  C   UNL     1       1.461  12.610  20.043  0.00  0.00    +0.000 C 
ATOM      2  C   UNL     1       1.980  13.896  19.359  0.00  0.00    +0.000 C 
ATOM      3  C   UNL     1       2.663  12.997  18.313  0.00  0.00    +0.000 C 
ATOM      4  C   UNL     1       1.619  11.908  18.654  0.00  0.00    +0.000 C 
ENDROOT
BRANCH   1   7
ATOM      5  C   UNL     1      -0.378  11.949  21.633  0.00  0.00    +0.000 C 
ATOM      6  O   UNL     1       0.349  11.118  22.176  0.00  0.00    +0.000 OA
ATOM      7  N   UNL     1       0.086  12.712  20.566  0.00  0.00    +0.000 N 
ATOM      8  H   UNL     1      -0.567  13.413  20.226  0.00  0.00    +0.000 HD
BRANCH   5  15
ATOM      9  C   UNL     1      -7.720  13.277  22.876  0.00  0.00    +0.000 C 
ATOM     10  N   UNL     1      -6.362  12.741  22.978  0.00  0.00    +0.000 NA
ATOM     11  C   UNL     1      -5.753  13.074  24.286  0.00  0.00    +0.000 C 
ATOM     12  C   UNL     1      -4.409  12.334  24.497  0.00  0.00    +0.000 C 
ATOM     13  C   UNL     1      -3.559  12.437  23.275  0.00  0.00    +0.000 A 
ATOM     14  N   UNL     1      -2.211  12.118  23.264  0.00  0.00    +0.000 NA
ATOM     15  C   UNL     1      -1.755  12.249  22.025  0.00  0.00    +0.000 A 
ATOM     16  S   UNL     1      -2.898  12.803  20.858  0.00  0.00    +0.000 S 
ATOM     17  C   UNL     1      -4.095  12.822  22.065  0.00  0.00    +0.000 A 
ATOM     18  C   UNL     1      -5.522  13.225  21.854  0.00  0.00    +0.000 C 
ENDBRANCH   5  15
ENDBRANCH   1   7
BRANCH   4  19
ATOM     19  N   UNL     1       2.170  10.544  18.723  0.00  0.00    +0.000 N 
ATOM     20  C   UNL     1       1.488   9.438  18.265  0.00  0.00    +0.000 C 
ATOM     21  O   UNL     1       0.372   9.513  17.760  0.00  0.00    +0.000 OA
ATOM     22  H   UNL     1       3.036  10.393  19.228  0.00  0.00    +0.000 HD
BRANCH  20  23
ATOM     23  C   UNL     1       2.190   8.180  18.389  0.00  0.00    +0.000 A 
ATOM     24  C   UNL     1       2.161   7.188  19.355  0.00  0.00    +0.000 A 
ATOM     25  C   UNL     1       3.100   6.181  18.997  0.00  0.00    +0.000 A 
ATOM     26  C   UNL     1       3.506   4.973  19.594  0.00  0.00    +0.000 A 
ATOM     27  C   UNL     1       4.490   4.206  18.963  0.00  0.00    +0.000 A 
ATOM     28 CL   UNL     1       5.000   2.730  19.690  0.00  0.00    +0.000 Cl
ATOM     29  C   UNL     1       5.065   4.617  17.764  0.00  0.00    +0.000 A 
ATOM     30  C   UNL     1       4.672   5.813  17.152  0.00  0.00    +0.000 A 
ATOM     31  C   UNL     1       3.687   6.573  17.796  0.00  0.00    +0.000 A 
ATOM     32  N   UNL     1       3.111   7.772  17.444  0.00  0.00    +0.000 N 
ATOM     33  H   UNL     1       3.332   8.311  16.616  0.00  0.00    +0.000 HD
ENDBRANCH  20  23
ENDBRANCH   4  19
TORSDOF 4
ENDMDL
MODEL 7
REMARK VINA RESULT:      -7.5      5.321     11.554
REMARK  Name = 
REMARK  5 active torsions:
REMARK  status: ('A' for Active; 'I' for Inactive)
REMARK    1  A    between atoms: C_1  and  N_2
REMARK    2  A    between atoms: C_7  and  C_8
REMARK    3  A    between atoms: N_10  and  C_11
REMARK    4  A    between atoms: C_14  and  N_15
REMARK    5  A    between atoms: C_16  and  C_18
REMARK                            x       y       z     vdW  Elec       q    Type
REMARK                         _______ _______ _______ _____ _____    ______ ____
ROOT
ATOM      1  C   UNL     1       1.854   4.672  20.132  0.00  0.00    +0.000 C 
ATOM      2  C   UNL     1       1.834   3.598  21.244  0.00  0.00    +0.000 C 
ATOM      3  C   UNL     1       3.199   3.114  20.723  0.00  0.00    +0.000 C 
ATOM      4  C   UNL     1       3.412   4.530  20.138  0.00  0.00    +0.000 C 
ENDROOT
BRANCH   1   7
ATOM      5  C   UNL     1       1.821   7.190  20.065  0.00  0.00    +0.000 C 
ATOM      6  O   UNL     1       2.770   7.212  19.282  0.00  0.00    +0.000 OA
ATOM      7  N   UNL     1       1.320   5.984  20.544  0.00  0.00    +0.000 N 
ATOM      8  H   UNL     1       0.498   6.067  21.135  0.00  0.00    +0.000 HD
BRANCH   5  15
ATOM      9  C   UNL     1      -2.094  13.417  21.829  0.00  0.00    +0.000 C 
ATOM     10  N   UNL     1      -1.620  12.034  21.782  0.00  0.00    +0.000 NA
ATOM     11  C   UNL     1      -1.096  11.603  23.099  0.00  0.00    +0.000 C 
ATOM     12  C   UNL     1      -0.796  10.084  23.128  0.00  0.00    +0.000 C 
ATOM     13  C   UNL     1      -0.046   9.678  21.903  0.00  0.00    +0.000 A 
ATOM     14  N   UNL     1       0.595   8.457  21.780  0.00  0.00    +0.000 NA
ATOM     15  C   UNL     1       1.110   8.369  20.560  0.00  0.00    +0.000 A 
ATOM     16  S   UNL     1       0.891   9.750  19.551  0.00  0.00    +0.000 S 
ATOM     17  C   UNL     1       0.009  10.499  20.796  0.00  0.00    +0.000 A 
ATOM     18  C   UNL     1      -0.600  11.865  20.717  0.00  0.00    +0.000 C 
ENDBRANCH   5  15
ENDBRANCH   1   7
BRANCH   4  19
ATOM     19  N   UNL     1       4.028   4.544  18.801  0.00  0.00    +0.000 N 
ATOM     20  C   UNL     1       5.386   4.674  18.605  0.00  0.00    +0.000 C 
ATOM     21  O   UNL     1       6.180   4.781  19.534  0.00  0.00    +0.000 OA
ATOM     22  H   UNL     1       3.426   4.574  17.987  0.00  0.00    +0.000 HD
BRANCH  20  23
ATOM     23  C   UNL     1       5.820   4.644  17.226  0.00  0.00    +0.000 A 
ATOM     24  C   UNL     1       6.707   5.430  16.510  0.00  0.00    +0.000 A 
ATOM     25  C   UNL     1       6.718   4.984  15.159  0.00  0.00    +0.000 A 
ATOM     26  C   UNL     1       7.399   5.405  14.002  0.00  0.00    +0.000 A 
ATOM     27  C   UNL     1       7.163   4.733  12.799  0.00  0.00    +0.000 A 
ATOM     28 CL   UNL     1       7.985   5.245  11.374  0.00  0.00    +0.000 Cl
ATOM     29  C   UNL     1       6.275   3.663  12.734  0.00  0.00    +0.000 A 
ATOM     30  C   UNL     1       5.592   3.227  13.875  0.00  0.00    +0.000 A 
ATOM     31  C   UNL     1       5.835   3.910  15.073  0.00  0.00    +0.000 A 
ATOM     32  N   UNL     1       5.319   3.717  16.333  0.00  0.00    +0.000 N 
ATOM     33  H   UNL     1       4.645   3.006  16.590  0.00  0.00    +0.000 HD
ENDBRANCH  20  23
ENDBRANCH   4  19
TORSDOF 4
ENDMDL
MODEL 8
REMARK VINA RESULT:      -7.5      5.249     11.504
REMARK  Name = 
REMARK  5 active torsions:
REMARK  status: ('A' for Active; 'I' for Inactive)
REMARK    1  A    between atoms: C_1  and  N_2
REMARK    2  A    between atoms: C_7  and  C_8
REMARK    3  A    between atoms: N_10  and  C_11
REMARK    4  A    between atoms: C_14  and  N_15
REMARK    5  A    between atoms: C_16  and  C_18
REMARK                            x       y       z     vdW  Elec       q    Type
REMARK                         _______ _______ _______ _____ _____    ______ ____
ROOT
ATOM      1  C   UNL     1       1.735   4.843  20.307  0.00  0.00    +0.000 C 
ATOM      2  C   UNL     1       1.655   3.772  21.420  0.00  0.00    +0.000 C 
ATOM      3  C   UNL     1       2.987   3.206  20.895  0.00  0.00    +0.000 C 
ATOM      4  C   UNL     1       3.282   4.607  20.309  0.00  0.00    +0.000 C 
ENDROOT
BRANCH   1   7
ATOM      5  C   UNL     1       1.695   7.352  20.085  0.00  0.00    +0.000 C 
ATOM      6  O   UNL     1       2.494   7.312  19.149  0.00  0.00    +0.000 OA
ATOM      7  N   UNL     1       1.284   6.185  20.721  0.00  0.00    +0.000 N 
ATOM      8  H   UNL     1       0.577   6.316  21.439  0.00  0.00    +0.000 HD
BRANCH   5  15
ATOM      9  C   UNL     1      -1.525  13.232  23.587  0.00  0.00    +0.000 C 
ATOM     10  N   UNL     1      -0.582  12.398  22.841  0.00  0.00    +0.000 NA
ATOM     11  C   UNL     1      -0.378  12.918  21.470  0.00  0.00    +0.000 C 
ATOM     12  C   UNL     1       0.775  12.181  20.743  0.00  0.00    +0.000 C 
ATOM     13  C   UNL     1       0.649  10.705  20.928  0.00  0.00    +0.000 A 
ATOM     14  N   UNL     1       1.362   9.787  20.176  0.00  0.00    +0.000 NA
ATOM     15  C   UNL     1       1.083   8.568  20.620  0.00  0.00    +0.000 A 
ATOM     16  S   UNL     1      -0.069   8.480  21.901  0.00  0.00    +0.000 S 
ATOM     17  C   UNL     1      -0.168  10.177  21.905  0.00  0.00    +0.000 A 
ATOM     18  C   UNL     1      -1.036  10.985  22.819  0.00  0.00    +0.000 C 
ENDBRANCH   5  15
ENDBRANCH   1   7
BRANCH   4  19
ATOM     19  N   UNL     1       3.893   4.583  18.969  0.00  0.00    +0.000 N 
ATOM     20  C   UNL     1       5.234   4.819  18.755  0.00  0.00    +0.000 C 
ATOM     21  O   UNL     1       6.016   5.059  19.668  0.00  0.00    +0.000 OA
ATOM     22  H   UNL     1       3.290   4.503  18.159  0.00  0.00    +0.000 HD
BRANCH  20  23
ATOM     23  C   UNL     1       5.667   4.732  17.378  0.00  0.00    +0.000 A 
ATOM     24  C   UNL     1       6.678   5.368  16.676  0.00  0.00    +0.000 A 
ATOM     25  C   UNL     1       6.625   4.940  15.321  0.00  0.00    +0.000 A 
ATOM     26  C   UNL     1       7.375   5.255  14.172  0.00  0.00    +0.000 A 
ATOM     27  C   UNL     1       7.040   4.644  12.960  0.00  0.00    +0.000 A 
ATOM     28 CL   UNL     1       7.946   5.028  11.546  0.00  0.00    +0.000 Cl
ATOM     29  C   UNL     1       5.988   3.736  12.877  0.00  0.00    +0.000 A 
ATOM     30  C   UNL     1       5.233   3.407  14.009  0.00  0.00    +0.000 A 
ATOM     31  C   UNL     1       5.578   4.028  15.217  0.00  0.00    +0.000 A 
ATOM     32  N   UNL     1       5.027   3.909  16.472  0.00  0.00    +0.000 N 
ATOM     33  H   UNL     1       4.243   3.317  16.717  0.00  0.00    +0.000 HD
ENDBRANCH  20  23
ENDBRANCH   4  19
TORSDOF 4
ENDMDL
MODEL 9
REMARK VINA RESULT:      -7.5      4.077     10.191
REMARK  Name = 
REMARK  5 active torsions:
REMARK  status: ('A' for Active; 'I' for Inactive)
REMARK    1  A    between atoms: C_1  and  N_2
REMARK    2  A    between atoms: C_7  and  C_8
REMARK    3  A    between atoms: N_10  and  C_11
REMARK    4  A    between atoms: C_14  and  N_15
REMARK    5  A    between atoms: C_16  and  C_18
REMARK                            x       y       z     vdW  Elec       q    Type
REMARK                         _______ _______ _______ _____ _____    ______ ____
ROOT
ATOM      1  C   UNL     1       0.993  13.434  19.937  0.00  0.00    +0.000 C 
ATOM      2  C   UNL     1       1.504  14.766  19.340  0.00  0.00    +0.000 C 
ATOM      3  C   UNL     1       2.205  13.942  18.245  0.00  0.00    +0.000 C 
ATOM      4  C   UNL     1       1.170  12.822  18.508  0.00  0.00    +0.000 C 
ENDROOT
BRANCH   1   7
ATOM      5  C   UNL     1      -0.816  12.751  21.552  0.00  0.00    +0.000 C 
ATOM      6  O   UNL     1      -0.049  11.983  22.133  0.00  0.00    +0.000 OA
ATOM      7  N   UNL     1      -0.388  13.489  20.452  0.00  0.00    +0.000 N 
ATOM      8  H   UNL     1      -1.074  14.140  20.081  0.00  0.00    +0.000 HD
BRANCH   5  15
ATOM      9  C   UNL     1      -7.771  13.898  24.295  0.00  0.00    +0.000 C 
ATOM     10  N   UNL     1      -6.492  14.089  23.611  0.00  0.00    +0.000 NA
ATOM     11  C   UNL     1      -6.689  14.281  22.155  0.00  0.00    +0.000 C 
ATOM     12  C   UNL     1      -5.375  14.702  21.450  0.00  0.00    +0.000 C 
ATOM     13  C   UNL     1      -4.242  13.842  21.902  0.00  0.00    +0.000 A 
ATOM     14  N   UNL     1      -3.021  13.798  21.251  0.00  0.00    +0.000 NA
ATOM     15  C   UNL     1      -2.208  12.998  21.928  0.00  0.00    +0.000 A 
ATOM     16  S   UNL     1      -2.888  12.240  23.320  0.00  0.00    +0.000 S 
ATOM     17  C   UNL     1      -4.345  13.068  23.039  0.00  0.00    +0.000 A 
ATOM     18  C   UNL     1      -5.575  12.954  23.885  0.00  0.00    +0.000 C 
ENDBRANCH   5  15
ENDBRANCH   1   7
BRANCH   4  19
ATOM     19  N   UNL     1       1.736  11.463  18.496  0.00  0.00    +0.000 N 
ATOM     20  C   UNL     1       0.982  10.338  18.750  0.00  0.00    +0.000 C 
ATOM     21  O   UNL     1      -0.218  10.389  18.998  0.00  0.00    +0.000 OA
ATOM     22  H   UNL     1       2.740  11.353  18.411  0.00  0.00    +0.000 HD
BRANCH  20  23
ATOM     23  C   UNL     1       1.695   9.082  18.673  0.00  0.00    +0.000 A 
ATOM     24  C   UNL     1       2.483   8.516  17.684  0.00  0.00    +0.000 A 
ATOM     25  C   UNL     1       2.900   7.228  18.122  0.00  0.00    +0.000 A 
ATOM     26  C   UNL     1       3.683   6.211  17.543  0.00  0.00    +0.000 A 
ATOM     27  C   UNL     1       3.893   5.031  18.262  0.00  0.00    +0.000 A 
ATOM     28 CL   UNL     1       4.842   3.776  17.559  0.00  0.00    +0.000 Cl
ATOM     29  C   UNL     1       3.347   4.852  19.529  0.00  0.00    +0.000 A 
ATOM     30  C   UNL     1       2.570   5.854  20.124  0.00  0.00    +0.000 A 
ATOM     31  C   UNL     1       2.364   7.030  19.391  0.00  0.00    +0.000 A 
ATOM     32  N   UNL     1       1.656   8.167  19.707  0.00  0.00    +0.000 N 
ATOM     33  H   UNL     1       1.149   8.324  20.569  0.00  0.00    +0.000 HD
ENDBRANCH  20  23
ENDBRANCH   4  19
TORSDOF 4
ENDMDL
