MODEL 1
REMARK VINA RESULT:      -7.8      0.000      0.000
REMARK  Name = 
REMARK  11 active torsions:
REMARK  status: ('A' for Active; 'I' for Inactive)
REMARK    1  A    between atoms: C_1  and  C_2
REMARK    2  A    between atoms: C_2  and  C_3
REMARK    3  A    between atoms: C_6  and  C_7
REMARK    4  A    between atoms: C_10  and  CA_11
REMARK    5  A    between atoms: CA_11  and  C_12
REMARK    6  A    between atoms: CA_11  and  N_14
REMARK    7  A    between atoms: C_12  and  O_13
REMARK    8  A    between atoms: C_15  and  C_17
REMARK    9  A    between atoms: C_19  and  C_20
REMARK   10  A    between atoms: C_25  and  O_26
REMARK   11  A    between atoms: O_26  and  C_27
REMARK                            x       y       z     vdW  Elec       q    Type
REMARK                         _______ _______ _______ _____ _____    ______ ____
ROOT
ATOM      1  C   UNL     1       2.775   7.358  18.451  0.00  0.00    +0.000 A 
ATOM      2  C   UNL     1       2.278   7.058  19.730  0.00  0.00    +0.000 A 
ATOM      3  C   UNL     1       1.437   7.930  20.407  0.00  0.00    +0.000 A 
ATOM      4  C   UNL     1       1.083   9.165  19.848  0.00  0.00    +0.000 A 
ATOM      5  C   UNL     1       1.595   9.504  18.578  0.00  0.00    +0.000 A 
ATOM      6  C   UNL     1       2.422   8.597  17.890  0.00  0.00    +0.000 A 
ENDROOT
BRANCH   1  10
ATOM      7  C   UNL     1       5.231   4.583  16.242  0.00  0.00    +0.000 A 
ATOM      8  C   UNL     1       5.488   5.953  16.209  0.00  0.00    +0.000 A 
ATOM      9  C   UNL     1       4.713   6.831  16.963  0.00  0.00    +0.000 A 
ATOM     10  C   UNL     1       3.640   6.381  17.756  0.00  0.00    +0.000 A 
ATOM     11  C   UNL     1       3.417   4.995  17.810  0.00  0.00    +0.000 A 
ATOM     12  C   UNL     1       4.208   4.107  17.069  0.00  0.00    +0.000 A 
BRANCH   7  14
ATOM     13  C   UNL     1       6.062   4.051  13.939  0.00  0.00    +0.000 C 
ATOM     14  C   UNL     1       6.061   3.649  15.405  0.00  0.00    +0.000 C 
ENDBRANCH   7  14
ENDBRANCH   1  10
BRANCH   5  15
ATOM     15  O   UNL     1       1.252  10.749  18.112  0.00  0.00    +0.000 OA
ATOM     16  C   UNL     1       2.236  11.775  18.177  0.00  0.00    +0.000 C 
ENDBRANCH   5  15
BRANCH   4  17
ATOM     17  CA  UNL     1       0.269  10.168  20.662  0.00  0.00    +0.000 C 
BRANCH  17  18
ATOM     18  N   UNL     1      -0.882  10.682  19.919  0.00  0.00    +0.000 N 
ATOM     19  C   UNL     1      -1.486  11.873  20.225  0.00  0.00    +0.000 C 
ATOM     20  O   UNL     1      -1.220  12.564  21.199  0.00  0.00    +0.000 OA
ATOM     21  H   UNL     1      -1.098  10.218  19.046  0.00  0.00    +0.000 HD
BRANCH  19  22
ATOM     22  C   UNL     1      -2.503  12.307  19.229  0.00  0.00    +0.000 C 
ATOM     23  C   UNL     1      -2.523  11.767  17.830  0.00  0.00    +0.000 C 
ATOM     24  C   UNL     1      -3.563  11.289  18.813  0.00  0.00    +0.000 C 
BRANCH  24  25
ATOM     25  C   UNL     1      -5.013  11.761  18.713  0.00  0.00    +0.000 A 
ATOM     26  C   UNL     1      -5.700  12.048  17.553  0.00  0.00    +0.000 A 
ATOM     27  C   UNL     1      -7.024  12.509  17.822  0.00  0.00    +0.000 A 
ATOM     28  C   UNL     1      -7.296  12.546  19.171  0.00  0.00    +0.000 A 
ATOM     29  S   UNL     1      -5.967  12.009  20.106  0.00  0.00    +0.000 S 
ENDBRANCH  24  25
ENDBRANCH  19  22
ENDBRANCH  17  18
BRANCH  17  30
ATOM     30  C   UNL     1      -0.212   9.486  21.964  0.00  0.00    +0.000 C 
BRANCH  30  31
ATOM     31  O   UNL     1      -0.046  10.345  23.105  0.00  0.00    +0.000 OA
ATOM     32  H   UNL     1       0.193   9.761  23.849  0.00  0.00    +0.000 HD
ENDBRANCH  30  31
ENDBRANCH  17  30
ENDBRANCH   4  17
TORSDOF 9
ENDMDL
MODEL 2
REMARK VINA RESULT:      -7.5      0.916      1.303
REMARK  Name = 
REMARK  11 active torsions:
REMARK  status: ('A' for Active; 'I' for Inactive)
REMARK    1  A    between atoms: C_1  and  C_2
REMARK    2  A    between atoms: C_2  and  C_3
REMARK    3  A    between atoms: C_6  and  C_7
REMARK    4  A    between atoms: C_10  and  CA_11
REMARK    5  A    between atoms: CA_11  and  C_12
REMARK    6  A    between atoms: CA_11  and  N_14
REMARK    7  A    between atoms: C_12  and  O_13
REMARK    8  A    between atoms: C_15  and  C_17
REMARK    9  A    between atoms: C_19  and  C_20
REMARK   10  A    between atoms: C_25  and  O_26
REMARK   11  A    between atoms: O_26  and  C_27
REMARK                            x       y       z     vdW  Elec       q    Type
REMARK                         _______ _______ _______ _____ _____    ______ ____
ROOT
ATOM      1  C   UNL     1       2.599   7.572  18.505  0.00  0.00    +0.000 A 
ATOM      2  C   UNL     1       2.154   7.180  19.778  0.00  0.00    +0.000 A 
ATOM      3  C   UNL     1       1.363   8.010  20.560  0.00  0.00    +0.000 A 
ATOM      4  C   UNL     1       1.009   9.291  20.117  0.00  0.00    +0.000 A 
ATOM      5  C   UNL     1       1.470   9.721  18.855  0.00  0.00    +0.000 A 
ATOM      6  C   UNL     1       2.246   8.858  18.060  0.00  0.00    +0.000 A 
ENDROOT
BRANCH   1  10
ATOM      7  C   UNL     1       5.049   4.777  16.315  0.00  0.00    +0.000 A 
ATOM      8  C   UNL     1       4.001   4.334  17.122  0.00  0.00    +0.000 A 
ATOM      9  C   UNL     1       3.192   5.252  17.787  0.00  0.00    +0.000 A 
ATOM     10  C   UNL     1       3.411   6.639  17.695  0.00  0.00    +0.000 A 
ATOM     11  C   UNL     1       4.445   7.072  16.849  0.00  0.00    +0.000 A 
ATOM     12  C   UNL     1       5.249   6.153  16.161  0.00  0.00    +0.000 A 
BRANCH   7  14
ATOM     13  C   UNL     1       6.012   4.032  14.126  0.00  0.00    +0.000 C 
ATOM     14  C   UNL     1       5.929   3.774  15.621  0.00  0.00    +0.000 C 
ENDBRANCH   7  14
ENDBRANCH   1  10
BRANCH   5  15
ATOM     15  O   UNL     1       1.132  11.005  18.506  0.00  0.00    +0.000 OA
ATOM     16  C   UNL     1       2.189  11.935  18.298  0.00  0.00    +0.000 C 
ENDBRANCH   5  15
BRANCH   4  17
ATOM     17  CA  UNL     1       0.254  10.239  21.045  0.00  0.00    +0.000 C 
BRANCH  17  18
ATOM     18  N   UNL     1      -0.902  10.853  20.390  0.00  0.00    +0.000 N 
ATOM     19  C   UNL     1      -1.400  12.074  20.762  0.00  0.00    +0.000 C 
ATOM     20  O   UNL     1      -1.024  12.718  21.731  0.00  0.00    +0.000 OA
ATOM     21  H   UNL     1      -1.206  10.430  19.522  0.00  0.00    +0.000 HD
BRANCH  19  22
ATOM     22  C   UNL     1      -2.444  12.606  19.843  0.00  0.00    +0.000 C 
ATOM     23  C   UNL     1      -2.989  11.791  18.708  0.00  0.00    +0.000 C 
ATOM     24  C   UNL     1      -3.840  11.997  19.937  0.00  0.00    +0.000 C 
BRANCH  24  25
ATOM     25  C   UNL     1      -5.041  12.942  19.910  0.00  0.00    +0.000 A 
ATOM     26  C   UNL     1      -5.902  13.139  18.853  0.00  0.00    +0.000 A 
ATOM     27  C   UNL     1      -6.888  14.129  19.150  0.00  0.00    +0.000 A 
ATOM     28  C   UNL     1      -6.743  14.639  20.421  0.00  0.00    +0.000 A 
ATOM     29  S   UNL     1      -5.439  13.912  21.256  0.00  0.00    +0.000 S 
ENDBRANCH  24  25
ENDBRANCH  19  22
ENDBRANCH  17  18
BRANCH  17  30
ATOM     30  C   UNL     1      -0.209   9.457  22.296  0.00  0.00    +0.000 C 
BRANCH  30  31
ATOM     31  O   UNL     1      -0.034  10.227  23.498  0.00  0.00    +0.000 OA
ATOM     32  H   UNL     1       0.904  10.493  23.513  0.00  0.00    +0.000 HD
ENDBRANCH  30  31
ENDBRANCH  17  30
ENDBRANCH   4  17
TORSDOF 9
ENDMDL
MODEL 3
REMARK VINA RESULT:      -7.4      1.055      1.691
REMARK  Name = 
REMARK  11 active torsions:
REMARK  status: ('A' for Active; 'I' for Inactive)
REMARK    1  A    between atoms: C_1  and  C_2
REMARK    2  A    between atoms: C_2  and  C_3
REMARK    3  A    between atoms: C_6  and  C_7
REMARK    4  A    between atoms: C_10  and  CA_11
REMARK    5  A    between atoms: CA_11  and  C_12
REMARK    6  A    between atoms: CA_11  and  N_14
REMARK    7  A    between atoms: C_12  and  O_13
REMARK    8  A    between atoms: C_15  and  C_17
REMARK    9  A    between atoms: C_19  and  C_20
REMARK   10  A    between atoms: C_25  and  O_26
REMARK   11  A    between atoms: O_26  and  C_27
REMARK                            x       y       z     vdW  Elec       q    Type
REMARK                         _______ _______ _______ _____ _____    ______ ____
ROOT
ATOM      1  C   UNL     1       2.725   7.190  18.645  0.00  0.00    +0.000 A 
ATOM      2  C   UNL     1       2.360   6.713  19.914  0.00  0.00    +0.000 A 
ATOM      3  C   UNL     1       1.630   7.491  20.802  0.00  0.00    +0.000 A 
ATOM      4  C   UNL     1       1.262   8.802  20.473  0.00  0.00    +0.000 A 
ATOM      5  C   UNL     1       1.643   9.316  19.216  0.00  0.00    +0.000 A 
ATOM      6  C   UNL     1       2.357   8.506  18.314  0.00  0.00    +0.000 A 
ENDROOT
BRANCH   1  10
ATOM      7  C   UNL     1       5.001   4.542  16.111  0.00  0.00    +0.000 A 
ATOM      8  C   UNL     1       4.015   4.048  16.965  0.00  0.00    +0.000 A 
ATOM      9  C   UNL     1       3.259   4.921  17.744  0.00  0.00    +0.000 A 
ATOM     10  C   UNL     1       3.473   6.311  17.721  0.00  0.00    +0.000 A 
ATOM     11  C   UNL     1       4.442   6.798  16.828  0.00  0.00    +0.000 A 
ATOM     12  C   UNL     1       5.190   5.925  16.027  0.00  0.00    +0.000 A 
BRANCH   7  14
ATOM     13  C   UNL     1       6.125   4.138  13.909  0.00  0.00    +0.000 C 
ATOM     14  C   UNL     1       5.825   3.586  15.293  0.00  0.00    +0.000 C 
ENDBRANCH   7  14
ENDBRANCH   1  10
BRANCH   5  15
ATOM     15  O   UNL     1       1.296  10.622  18.979  0.00  0.00    +0.000 OA
ATOM     16  C   UNL     1       2.164  11.401  18.162  0.00  0.00    +0.000 C 
ENDBRANCH   5  15
BRANCH   4  17
ATOM     17  CA  UNL     1       0.578   9.688  21.511  0.00  0.00    +0.000 C 
BRANCH  17  18
ATOM     18  N   UNL     1      -0.633  10.323  20.989  0.00  0.00    +0.000 N 
ATOM     19  C   UNL     1      -1.066  11.551  21.416  0.00  0.00    +0.000 C 
ATOM     20  O   UNL     1      -0.575  12.184  22.339  0.00  0.00    +0.000 OA
ATOM     21  H   UNL     1      -1.037   9.907  20.160  0.00  0.00    +0.000 HD
BRANCH  19  22
ATOM     22  C   UNL     1      -2.196  12.102  20.619  0.00  0.00    +0.000 C 
ATOM     23  C   UNL     1      -2.137  13.468  20.002  0.00  0.00    +0.000 C 
ATOM     24  C   UNL     1      -1.988  12.256  19.115  0.00  0.00    +0.000 C 
BRANCH  24  25
ATOM     25  C   UNL     1      -3.119  11.821  18.184  0.00  0.00    +0.000 A 
ATOM     26  C   UNL     1      -2.978  11.256  16.935  0.00  0.00    +0.000 A 
ATOM     27  C   UNL     1      -4.241  11.015  16.316  0.00  0.00    +0.000 A 
ATOM     28  C   UNL     1      -5.293  11.396  17.120  0.00  0.00    +0.000 A 
ATOM     29  S   UNL     1      -4.757  12.023  18.618  0.00  0.00    +0.000 S 
ENDBRANCH  24  25
ENDBRANCH  19  22
ENDBRANCH  17  18
BRANCH  17  30
ATOM     30  C   UNL     1       0.226   8.832  22.750  0.00  0.00    +0.000 C 
BRANCH  30  31
ATOM     31  O   UNL     1       0.131   9.633  23.940  0.00  0.00    +0.000 OA
ATOM     32  H   UNL     1      -0.005   9.007  24.675  0.00  0.00    +0.000 HD
ENDBRANCH  30  31
ENDBRANCH  17  30
ENDBRANCH   4  17
TORSDOF 9
ENDMDL
MODEL 4
REMARK VINA RESULT:      -7.3      1.417      1.731
REMARK  Name = 
REMARK  11 active torsions:
REMARK  status: ('A' for Active; 'I' for Inactive)
REMARK    1  A    between atoms: C_1  and  C_2
REMARK    2  A    between atoms: C_2  and  C_3
REMARK    3  A    between atoms: C_6  and  C_7
REMARK    4  A    between atoms: C_10  and  CA_11
REMARK    5  A    between atoms: CA_11  and  C_12
REMARK    6  A    between atoms: CA_11  and  N_14
REMARK    7  A    between atoms: C_12  and  O_13
REMARK    8  A    between atoms: C_15  and  C_17
REMARK    9  A    between atoms: C_19  and  C_20
REMARK   10  A    between atoms: C_25  and  O_26
REMARK   11  A    between atoms: O_26  and  C_27
REMARK                            x       y       z     vdW  Elec       q    Type
REMARK                         _______ _______ _______ _____ _____    ______ ____
ROOT
ATOM      1  C   UNL     1       2.855   7.059  18.638  0.00  0.00    +0.000 A 
ATOM      2  C   UNL     1       2.473   6.577  19.901  0.00  0.00    +0.000 A 
ATOM      3  C   UNL     1       1.724   7.349  20.778  0.00  0.00    +0.000 A 
ATOM      4  C   UNL     1       1.351   8.658  20.445  0.00  0.00    +0.000 A 
ATOM      5  C   UNL     1       1.749   9.177  19.196  0.00  0.00    +0.000 A 
ATOM      6  C   UNL     1       2.483   8.373  18.304  0.00  0.00    +0.000 A 
ENDROOT
BRANCH   1  10
ATOM      7  C   UNL     1       5.010   4.611  15.814  0.00  0.00    +0.000 A 
ATOM      8  C   UNL     1       5.272   5.976  15.928  0.00  0.00    +0.000 A 
ATOM      9  C   UNL     1       4.598   6.743  16.876  0.00  0.00    +0.000 A 
ATOM     10  C   UNL     1       3.624   6.187  17.725  0.00  0.00    +0.000 A 
ATOM     11  C   UNL     1       3.398   4.804  17.626  0.00  0.00    +0.000 A 
ATOM     12  C   UNL     1       4.089   4.024  16.688  0.00  0.00    +0.000 A 
BRANCH   7  14
ATOM     13  C   UNL     1       6.786   4.615  14.048  0.00  0.00    +0.000 C 
ATOM     14  C   UNL     1       5.728   3.799  14.771  0.00  0.00    +0.000 C 
ENDBRANCH   7  14
ENDBRANCH   1  10
BRANCH   5  15
ATOM     15  O   UNL     1       1.397  10.481  18.955  0.00  0.00    +0.000 OA
ATOM     16  C   UNL     1       2.175  11.215  18.016  0.00  0.00    +0.000 C 
ENDBRANCH   5  15
BRANCH   4  17
ATOM     17  CA  UNL     1       0.645   9.537  21.474  0.00  0.00    +0.000 C 
BRANCH  17  18
ATOM     18  N   UNL     1      -0.550  10.181  20.927  0.00  0.00    +0.000 N 
ATOM     19  C   UNL     1      -0.923  11.455  21.266  0.00  0.00    +0.000 C 
ATOM     20  O   UNL     1      -0.386  12.137  22.127  0.00  0.00    +0.000 OA
ATOM     21  H   UNL     1      -0.990   9.720  20.141  0.00  0.00    +0.000 HD
BRANCH  19  22
ATOM     22  C   UNL     1      -2.047  11.991  20.450  0.00  0.00    +0.000 C 
ATOM     23  C   UNL     1      -2.029  13.385  19.896  0.00  0.00    +0.000 C 
ATOM     24  C   UNL     1      -1.791  12.223  18.963  0.00  0.00    +0.000 C 
BRANCH  24  25
ATOM     25  C   UNL     1      -2.866  11.781  17.971  0.00  0.00    +0.000 A 
ATOM     26  C   UNL     1      -4.225  11.965  18.102  0.00  0.00    +0.000 A 
ATOM     27  C   UNL     1      -4.946  11.386  17.014  0.00  0.00    +0.000 A 
ATOM     28  C   UNL     1      -4.109  10.793  16.095  0.00  0.00    +0.000 A 
ATOM     29  S   UNL     1      -2.463  10.952  16.534  0.00  0.00    +0.000 S 
ENDBRANCH  24  25
ENDBRANCH  19  22
ENDBRANCH  17  18
BRANCH  17  30
ATOM     30  C   UNL     1       0.260   8.672  22.696  0.00  0.00    +0.000 C 
BRANCH  30  31
ATOM     31  O   UNL     1      -0.142   9.481  23.814  0.00  0.00    +0.000 OA
ATOM     32  H   UNL     1       0.642  10.004  24.063  0.00  0.00    +0.000 HD
ENDBRANCH  30  31
ENDBRANCH  17  30
ENDBRANCH   4  17
TORSDOF 9
ENDMDL
MODEL 5
REMARK VINA RESULT:      -7.1      3.879      6.545
REMARK  Name = 
REMARK  11 active torsions:
REMARK  status: ('A' for Active; 'I' for Inactive)
REMARK    1  A    between atoms: C_1  and  C_2
REMARK    2  A    between atoms: C_2  and  C_3
REMARK    3  A    between atoms: C_6  and  C_7
REMARK    4  A    between atoms: C_10  and  CA_11
REMARK    5  A    between atoms: CA_11  and  C_12
REMARK    6  A    between atoms: CA_11  and  N_14
REMARK    7  A    between atoms: C_12  and  O_13
REMARK    8  A    between atoms: C_15  and  C_17
REMARK    9  A    between atoms: C_19  and  C_20
REMARK   10  A    between atoms: C_25  and  O_26
REMARK   11  A    between atoms: O_26  and  C_27
REMARK                            x       y       z     vdW  Elec       q    Type
REMARK                         _______ _______ _______ _____ _____    ______ ____
ROOT
ATOM      1  C   UNL     1       1.826   7.815  19.566  0.00  0.00    +0.000 A 
ATOM      2  C   UNL     1       1.877   8.595  18.400  0.00  0.00    +0.000 A 
ATOM      3  C   UNL     1       1.463   9.920  18.392  0.00  0.00    +0.000 A 
ATOM      4  C   UNL     1       0.942  10.516  19.547  0.00  0.00    +0.000 A 
ATOM      5  C   UNL     1       0.850   9.745  20.724  0.00  0.00    +0.000 A 
ATOM      6  C   UNL     1       1.301   8.412  20.726  0.00  0.00    +0.000 A 
ENDROOT
BRANCH   1  10
ATOM      7  C   UNL     1       3.353   3.781  19.637  0.00  0.00    +0.000 A 
ATOM      8  C   UNL     1       2.512   4.249  20.647  0.00  0.00    +0.000 A 
ATOM      9  C   UNL     1       1.993   5.539  20.586  0.00  0.00    +0.000 A 
ATOM     10  C   UNL     1       2.310   6.418  19.534  0.00  0.00    +0.000 A 
ATOM     11  C   UNL     1       3.126   5.921  18.504  0.00  0.00    +0.000 A 
ATOM     12  C   UNL     1       3.634   4.616  18.551  0.00  0.00    +0.000 A 
BRANCH   7  14
ATOM     13  C   UNL     1       3.576   1.555  18.510  0.00  0.00    +0.000 C 
ATOM     14  C   UNL     1       3.926   2.393  19.728  0.00  0.00    +0.000 C 
ENDBRANCH   7  14
ENDBRANCH   1  10
BRANCH   5  15
ATOM     15  O   UNL     1       0.282  10.374  21.803  0.00  0.00    +0.000 OA
ATOM     16  C   UNL     1      -0.251   9.558  22.840  0.00  0.00    +0.000 C 
ENDBRANCH   5  15
BRANCH   4  17
ATOM     17  CA  UNL     1       0.368  11.929  19.485  0.00  0.00    +0.000 C 
BRANCH  17  18
ATOM     18  N   UNL     1       1.366  12.917  19.072  0.00  0.00    +0.000 N 
ATOM     19  C   UNL     1       2.276  13.456  19.943  0.00  0.00    +0.000 C 
ATOM     20  O   UNL     1       2.283  13.272  21.151  0.00  0.00    +0.000 OA
ATOM     21  H   UNL     1       1.485  13.047  18.075  0.00  0.00    +0.000 HD
BRANCH  19  22
ATOM     22  C   UNL     1       3.325  14.282  19.284  0.00  0.00    +0.000 C 
ATOM     23  C   UNL     1       3.065  15.019  18.004  0.00  0.00    +0.000 C 
ATOM     24  C   UNL     1       3.138  15.797  19.295  0.00  0.00    +0.000 C 
BRANCH  24  25
ATOM     25  C   UNL     1       4.351  16.669  19.618  0.00  0.00    +0.000 A 
ATOM     26  C   UNL     1       5.516  16.750  18.887  0.00  0.00    +0.000 A 
ATOM     27  C   UNL     1       6.464  17.627  19.497  0.00  0.00    +0.000 A 
ATOM     28  C   UNL     1       5.981  18.184  20.660  0.00  0.00    +0.000 A 
ATOM     29  S   UNL     1       4.386  17.667  21.002  0.00  0.00    +0.000 S 
ENDBRANCH  24  25
ENDBRANCH  19  22
ENDBRANCH  17  18
BRANCH  17  30
ATOM     30  C   UNL     1      -0.823  11.946  18.498  0.00  0.00    +0.000 C 
BRANCH  30  31
ATOM     31  O   UNL     1      -0.791  13.104  17.646  0.00  0.00    +0.000 OA
ATOM     32  H   UNL     1      -1.264  12.851  16.832  0.00  0.00    +0.000 HD
ENDBRANCH  30  31
ENDBRANCH  17  30
ENDBRANCH   4  17
TORSDOF 9
ENDMDL
MODEL 6
REMARK VINA RESULT:      -7.0      2.184      3.400
REMARK  Name = 
REMARK  11 active torsions:
REMARK  status: ('A' for Active; 'I' for Inactive)
REMARK    1  A    between atoms: C_1  and  C_2
REMARK    2  A    between atoms: C_2  and  C_3
REMARK    3  A    between atoms: C_6  and  C_7
REMARK    4  A    between atoms: C_10  and  CA_11
REMARK    5  A    between atoms: CA_11  and  C_12
REMARK    6  A    between atoms: CA_11  and  N_14
REMARK    7  A    between atoms: C_12  and  O_13
REMARK    8  A    between atoms: C_15  and  C_17
REMARK    9  A    between atoms: C_19  and  C_20
REMARK   10  A    between atoms: C_25  and  O_26
REMARK   11  A    between atoms: O_26  and  C_27
REMARK                            x       y       z     vdW  Elec       q    Type
REMARK                         _______ _______ _______ _____ _____    ______ ____
ROOT
ATOM      1  C   UNL     1       1.959   7.817  19.426  0.00  0.00    +0.000 A 
ATOM      2  C   UNL     1       1.959   8.391  18.145  0.00  0.00    +0.000 A 
ATOM      3  C   UNL     1       1.517   9.689  17.929  0.00  0.00    +0.000 A 
ATOM      4  C   UNL     1       1.018  10.463  18.985  0.00  0.00    +0.000 A 
ATOM      5  C   UNL     1       0.979   9.898  20.277  0.00  0.00    +0.000 A 
ATOM      6  C   UNL     1       1.458   8.592  20.487  0.00  0.00    +0.000 A 
ENDROOT
BRANCH   1  10
ATOM      7  C   UNL     1       3.404   3.767  19.773  0.00  0.00    +0.000 A 
ATOM      8  C   UNL     1       4.051   4.693  18.955  0.00  0.00    +0.000 A 
ATOM      9  C   UNL     1       3.598   6.008  18.888  0.00  0.00    +0.000 A 
ATOM     10  C   UNL     1       2.472   6.443  19.612  0.00  0.00    +0.000 A 
ATOM     11  C   UNL     1       1.854   5.510  20.461  0.00  0.00    +0.000 A 
ATOM     12  C   UNL     1       2.320   4.191  20.548  0.00  0.00    +0.000 A 
BRANCH   7  14
ATOM     13  C   UNL     1       3.469   1.563  18.584  0.00  0.00    +0.000 C 
ATOM     14  C   UNL     1       3.891   2.344  19.817  0.00  0.00    +0.000 C 
ENDBRANCH   7  14
ENDBRANCH   1  10
BRANCH   5  15
ATOM     15  O   UNL     1       0.431  10.690  21.255  0.00  0.00    +0.000 OA
ATOM     16  C   UNL     1      -0.106  10.047  22.405  0.00  0.00    +0.000 C 
ENDBRANCH   5  15
BRANCH   4  17
ATOM     17  CA  UNL     1       0.412  11.836  18.707  0.00  0.00    +0.000 C 
BRANCH  17  18
ATOM     18  N   UNL     1      -0.696  12.147  19.611  0.00  0.00    +0.000 N 
ATOM     19  C   UNL     1      -2.008  11.968  19.259  0.00  0.00    +0.000 C 
ATOM     20  O   UNL     1      -2.397  11.652  18.143  0.00  0.00    +0.000 OA
ATOM     21  H   UNL     1      -0.454  12.320  20.578  0.00  0.00    +0.000 HD
BRANCH  19  22
ATOM     22  C   UNL     1      -2.965  12.151  20.384  0.00  0.00    +0.000 C 
ATOM     23  C   UNL     1      -3.109  13.464  21.096  0.00  0.00    +0.000 C 
ATOM     24  C   UNL     1      -4.187  13.031  20.134  0.00  0.00    +0.000 C 
BRANCH  24  25
ATOM     25  C   UNL     1      -5.543  12.541  20.643  0.00  0.00    +0.000 A 
ATOM     26  C   UNL     1      -6.131  12.870  21.845  0.00  0.00    +0.000 A 
ATOM     27  C   UNL     1      -7.378  12.198  22.025  0.00  0.00    +0.000 A 
ATOM     28  C   UNL     1      -7.693  11.394  20.953  0.00  0.00    +0.000 A 
ATOM     29  S   UNL     1      -6.501  11.466  19.728  0.00  0.00    +0.000 S 
ENDBRANCH  24  25
ENDBRANCH  19  22
ENDBRANCH  17  18
BRANCH  17  30
ATOM     30  C   UNL     1       1.516  12.910  18.845  0.00  0.00    +0.000 C 
BRANCH  30  31
ATOM     31  O   UNL     1       2.200  13.131  17.600  0.00  0.00    +0.000 OA
ATOM     32  H   UNL     1       1.836  12.480  16.973  0.00  0.00    +0.000 HD
ENDBRANCH  30  31
ENDBRANCH  17  30
ENDBRANCH   4  17
TORSDOF 9
ENDMDL
MODEL 7
REMARK VINA RESULT:      -7.0      3.186      5.432
REMARK  Name = 
REMARK  11 active torsions:
REMARK  status: ('A' for Active; 'I' for Inactive)
REMARK    1  A    between atoms: C_1  and  C_2
REMARK    2  A    between atoms: C_2  and  C_3
REMARK    3  A    between atoms: C_6  and  C_7
REMARK    4  A    between atoms: C_10  and  CA_11
REMARK    5  A    between atoms: CA_11  and  C_12
REMARK    6  A    between atoms: CA_11  and  N_14
REMARK    7  A    between atoms: C_12  and  O_13
REMARK    8  A    between atoms: C_15  and  C_17
REMARK    9  A    between atoms: C_19  and  C_20
REMARK   10  A    between atoms: C_25  and  O_26
REMARK   11  A    between atoms: O_26  and  C_27
REMARK                            x       y       z     vdW  Elec       q    Type
REMARK                         _______ _______ _______ _____ _____    ______ ____
ROOT
ATOM      1  C   UNL     1       2.055   7.998  18.507  0.00  0.00    +0.000 A 
ATOM      2  C   UNL     1       1.513   8.911  17.590  0.00  0.00    +0.000 A 
ATOM      3  C   UNL     1       0.720   9.973  18.002  0.00  0.00    +0.000 A 
ATOM      4  C   UNL     1       0.403  10.149  19.355  0.00  0.00    +0.000 A 
ATOM      5  C   UNL     1       0.909   9.227  20.294  0.00  0.00    +0.000 A 
ATOM      6  C   UNL     1       1.736   8.173  19.865  0.00  0.00    +0.000 A 
ENDROOT
BRANCH   1  10
ATOM      7  C   UNL     1       4.546   4.862  16.903  0.00  0.00    +0.000 A 
ATOM      8  C   UNL     1       4.917   6.202  16.791  0.00  0.00    +0.000 A 
ATOM      9  C   UNL     1       4.123   7.199  17.353  0.00  0.00    +0.000 A 
ATOM     10  C   UNL     1       2.922   6.902  18.023  0.00  0.00    +0.000 A 
ATOM     11  C   UNL     1       2.581   5.547  18.162  0.00  0.00    +0.000 A 
ATOM     12  C   UNL     1       3.388   4.539  17.616  0.00  0.00    +0.000 A 
BRANCH   7  14
ATOM     13  C   UNL     1       6.320   4.369  15.205  0.00  0.00    +0.000 C 
ATOM     14  C   UNL     1       5.401   3.797  16.271  0.00  0.00    +0.000 C 
ENDBRANCH   7  14
ENDBRANCH   1  10
BRANCH   5  15
ATOM     15  O   UNL     1       0.518   9.427  21.594  0.00  0.00    +0.000 OA
ATOM     16  C   UNL     1      -0.490   8.571  22.122  0.00  0.00    +0.000 C 
ENDBRANCH   5  15
BRANCH   4  17
ATOM     17  CA  UNL     1      -0.578  11.241  19.775  0.00  0.00    +0.000 C 
BRANCH  17  18
ATOM     18  N   UNL     1       0.051  12.561  19.832  0.00  0.00    +0.000 N 
ATOM     19  C   UNL     1       0.381  13.172  21.013  0.00  0.00    +0.000 C 
ATOM     20  O   UNL     1       0.088  12.753  22.124  0.00  0.00    +0.000 OA
ATOM     21  H   UNL     1       0.410  12.927  18.959  0.00  0.00    +0.000 HD
BRANCH  19  22
ATOM     22  C   UNL     1       1.190  14.410  20.847  0.00  0.00    +0.000 C 
ATOM     23  C   UNL     1       2.022  14.969  21.963  0.00  0.00    +0.000 C 
ATOM     24  C   UNL     1       2.709  14.261  20.821  0.00  0.00    +0.000 C 
BRANCH  24  25
ATOM     25  C   UNL     1       3.492  15.046  19.769  0.00  0.00    +0.000 A 
ATOM     26  C   UNL     1       3.203  15.120  18.424  0.00  0.00    +0.000 A 
ATOM     27  C   UNL     1       4.167  15.902  17.717  0.00  0.00    +0.000 A 
ATOM     28  C   UNL     1       5.143  16.398  18.552  0.00  0.00    +0.000 A 
ATOM     29  S   UNL     1       4.886  15.939  20.180  0.00  0.00    +0.000 S 
ENDBRANCH  24  25
ENDBRANCH  19  22
ENDBRANCH  17  18
BRANCH  17  30
ATOM     30  C   UNL     1      -1.759  11.268  18.776  0.00  0.00    +0.000 C 
BRANCH  30  31
ATOM     31  O   UNL     1      -1.776  12.482  18.006  0.00  0.00    +0.000 OA
ATOM     32  H   UNL     1      -2.713  12.737  17.927  0.00  0.00    +0.000 HD
ENDBRANCH  30  31
ENDBRANCH  17  30
ENDBRANCH   4  17
TORSDOF 9
ENDMDL
MODEL 8
REMARK VINA RESULT:      -6.9      3.995      6.908
REMARK  Name = 
REMARK  11 active torsions:
REMARK  status: ('A' for Active; 'I' for Inactive)
REMARK    1  A    between atoms: C_1  and  C_2
REMARK    2  A    between atoms: C_2  and  C_3
REMARK    3  A    between atoms: C_6  and  C_7
REMARK    4  A    between atoms: C_10  and  CA_11
REMARK    5  A    between atoms: CA_11  and  C_12
REMARK    6  A    between atoms: CA_11  and  N_14
REMARK    7  A    between atoms: C_12  and  O_13
REMARK    8  A    between atoms: C_15  and  C_17
REMARK    9  A    between atoms: C_19  and  C_20
REMARK   10  A    between atoms: C_25  and  O_26
REMARK   11  A    between atoms: O_26  and  C_27
REMARK                            x       y       z     vdW  Elec       q    Type
REMARK                         _______ _______ _______ _____ _____    ______ ____
ROOT
ATOM      1  C   UNL     1       1.697   7.941  19.457  0.00  0.00    +0.000 A 
ATOM      2  C   UNL     1       1.873   8.749  18.323  0.00  0.00    +0.000 A 
ATOM      3  C   UNL     1       1.556  10.100  18.334  0.00  0.00    +0.000 A 
ATOM      4  C   UNL     1       1.009  10.699  19.476  0.00  0.00    +0.000 A 
ATOM      5  C   UNL     1       0.792   9.903  20.619  0.00  0.00    +0.000 A 
ATOM      6  C   UNL     1       1.147   8.542  20.604  0.00  0.00    +0.000 A 
ENDROOT
BRANCH   1  10
ATOM      7  C   UNL     1       2.982   3.823  19.431  0.00  0.00    +0.000 A 
ATOM      8  C   UNL     1       2.507   4.420  20.599  0.00  0.00    +0.000 A 
ATOM      9  C   UNL     1       2.055   5.737  20.580  0.00  0.00    +0.000 A 
ATOM     10  C   UNL     1       2.082   6.515  19.407  0.00  0.00    +0.000 A 
ATOM     11  C   UNL     1       2.526   5.889  18.231  0.00  0.00    +0.000 A 
ATOM     12  C   UNL     1       2.962   4.557  18.241  0.00  0.00    +0.000 A 
BRANCH   7  14
ATOM     13  C   UNL     1       3.478   1.763  18.095  0.00  0.00    +0.000 C 
ATOM     14  C   UNL     1       3.489   2.407  19.471  0.00  0.00    +0.000 C 
ENDBRANCH   7  14
ENDBRANCH   1  10
BRANCH   5  15
ATOM     15  O   UNL     1       0.206  10.540  21.684  0.00  0.00    +0.000 OA
ATOM     16  C   UNL     1      -0.136   9.754  22.820  0.00  0.00    +0.000 C 
ENDBRANCH   5  15
BRANCH   4  17
ATOM     17  CA  UNL     1       0.541  12.151  19.427  0.00  0.00    +0.000 C 
BRANCH  17  18
ATOM     18  N   UNL     1       1.490  13.018  18.727  0.00  0.00    +0.000 N 
ATOM     19  C   UNL     1       2.600  13.542  19.336  0.00  0.00    +0.000 C 
ATOM     20  O   UNL     1       2.854  13.449  20.529  0.00  0.00    +0.000 OA
ATOM     21  H   UNL     1       1.401  13.062  17.720  0.00  0.00    +0.000 HD
BRANCH  19  22
ATOM     22  C   UNL     1       3.535  14.225  18.401  0.00  0.00    +0.000 C 
ATOM     23  C   UNL     1       3.135  15.451  17.635  0.00  0.00    +0.000 C 
ATOM     24  C   UNL     1       4.067  15.596  18.813  0.00  0.00    +0.000 C 
BRANCH  24  25
ATOM     25  C   UNL     1       5.553  15.883  18.607  0.00  0.00    +0.000 A 
ATOM     26  C   UNL     1       6.211  17.052  18.921  0.00  0.00    +0.000 A 
ATOM     27  C   UNL     1       7.590  17.000  18.553  0.00  0.00    +0.000 A 
ATOM     28  C   UNL     1       7.928  15.794  17.982  0.00  0.00    +0.000 A 
ATOM     29  S   UNL     1       6.595  14.725  17.909  0.00  0.00    +0.000 S 
ENDBRANCH  24  25
ENDBRANCH  19  22
ENDBRANCH  17  18
BRANCH  17  30
ATOM     30  C   UNL     1      -0.837  12.213  18.728  0.00  0.00    +0.000 C 
BRANCH  30  31
ATOM     31  O   UNL     1      -0.794  13.023  17.541  0.00  0.00    +0.000 OA
ATOM     32  H   UNL     1      -0.446  13.890  17.819  0.00  0.00    +0.000 HD
ENDBRANCH  30  31
ENDBRANCH  17  30
ENDBRANCH   4  17
TORSDOF 9
ENDMDL
MODEL 9
REMARK VINA RESULT:      -6.9      2.236      3.273
REMARK  Name = 
REMARK  11 active torsions:
REMARK  status: ('A' for Active; 'I' for Inactive)
REMARK    1  A    between atoms: C_1  and  C_2
REMARK    2  A    between atoms: C_2  and  C_3
REMARK    3  A    between atoms: C_6  and  C_7
REMARK    4  A    between atoms: C_10  and  CA_11
REMARK    5  A    between atoms: CA_11  and  C_12
REMARK    6  A    between atoms: CA_11  and  N_14
REMARK    7  A    between atoms: C_12  and  O_13
REMARK    8  A    between atoms: C_15  and  C_17
REMARK    9  A    between atoms: C_19  and  C_20
REMARK   10  A    between atoms: C_25  and  O_26
REMARK   11  A    between atoms: O_26  and  C_27
REMARK                            x       y       z     vdW  Elec       q    Type
REMARK                         _______ _______ _______ _____ _____    ______ ____
ROOT
ATOM      1  C   UNL     1       1.754   7.829  19.940  0.00  0.00    +0.000 A 
ATOM      2  C   UNL     1       1.694   8.606  18.773  0.00  0.00    +0.000 A 
ATOM      3  C   UNL     1       1.275   9.929  18.799  0.00  0.00    +0.000 A 
ATOM      4  C   UNL     1       0.858  10.527  19.996  0.00  0.00    +0.000 A 
ATOM      5  C   UNL     1       0.879   9.758  21.178  0.00  0.00    +0.000 A 
ATOM      6  C   UNL     1       1.335   8.428  21.142  0.00  0.00    +0.000 A 
ENDROOT
BRANCH   1  10
ATOM      7  C   UNL     1       3.062   3.736  19.556  0.00  0.00    +0.000 A 
ATOM      8  C   UNL     1       3.456   4.706  18.635  0.00  0.00    +0.000 A 
ATOM      9  C   UNL     1       3.061   6.031  18.798  0.00  0.00    +0.000 A 
ATOM     10  C   UNL     1       2.240   6.435  19.867  0.00  0.00    +0.000 A 
ATOM     11  C   UNL     1       1.882   5.456  20.809  0.00  0.00    +0.000 A 
ATOM     12  C   UNL     1       2.295   4.125  20.660  0.00  0.00    +0.000 A 
BRANCH   7  14
ATOM     13  C   UNL     1       3.420   1.899  17.891  0.00  0.00    +0.000 C 
ATOM     14  C   UNL     1       3.476   2.304  19.355  0.00  0.00    +0.000 C 
ENDBRANCH   7  14
ENDBRANCH   1  10
BRANCH   5  15
ATOM     15  O   UNL     1       0.409  10.387  22.304  0.00  0.00    +0.000 OA
ATOM     16  C   UNL     1      -0.324   9.607  23.242  0.00  0.00    +0.000 C 
ENDBRANCH   5  15
BRANCH   4  17
ATOM     17  CA  UNL     1       0.274  11.937  19.984  0.00  0.00    +0.000 C 
BRANCH  17  18
ATOM     18  N   UNL     1      -1.076  11.983  20.548  0.00  0.00    +0.000 N 
ATOM     19  C   UNL     1      -1.903  13.065  20.396  0.00  0.00    +0.000 C 
ATOM     20  O   UNL     1      -1.578  14.130  19.892  0.00  0.00    +0.000 OA
ATOM     21  H   UNL     1      -1.450  11.109  20.894  0.00  0.00    +0.000 HD
BRANCH  19  22
ATOM     22  C   UNL     1      -3.295  12.831  20.870  0.00  0.00    +0.000 C 
ATOM     23  C   UNL     1      -4.258  13.960  21.087  0.00  0.00    +0.000 C 
ATOM     24  C   UNL     1      -4.427  13.076  19.876  0.00  0.00    +0.000 C 
BRANCH  24  25
ATOM     25  C   UNL     1      -5.558  12.050  19.805  0.00  0.00    +0.000 A 
ATOM     26  C   UNL     1      -6.544  11.855  20.747  0.00  0.00    +0.000 A 
ATOM     27  C   UNL     1      -7.414  10.781  20.390  0.00  0.00    +0.000 A 
ATOM     28  C   UNL     1      -7.062  10.207  19.189  0.00  0.00    +0.000 A 
ATOM     29  S   UNL     1      -5.702  10.974  18.489  0.00  0.00    +0.000 S 
ENDBRANCH  24  25
ENDBRANCH  19  22
ENDBRANCH  17  18
BRANCH  17  30
ATOM     30  C   UNL     1       1.207  12.876  20.782  0.00  0.00    +0.000 C 
BRANCH  30  31
ATOM     31  O   UNL     1       1.424  14.120  20.095  0.00  0.00    +0.000 OA
ATOM     32  H   UNL     1       2.370  14.327  20.206  0.00  0.00    +0.000 HD
ENDBRANCH  30  31
ENDBRANCH  17  30
ENDBRANCH   4  17
TORSDOF 9
ENDMDL
