MODEL 1
REMARK VINA RESULT:      -8.3      0.000      0.000
REMARK  Name = 
REMARK  6 active torsions:
REMARK  status: ('A' for Active; 'I' for Inactive)
REMARK    1  A    between atoms: C_1  and  C_2
REMARK    2  A    between atoms: C_8  and  C_9
REMARK    3  A    between atoms: C_11  and  C_12
REMARK    4  A    between atoms: N_14  and  C_15
REMARK    5  A    between atoms: C_22  and  C_23
REMARK    6  A    between atoms: C_26  and  N_27
REMARK                            x       y       z     vdW  Elec       q    Type
REMARK                         _______ _______ _______ _____ _____    ______ ____
ROOT
ATOM      1  C   UNL     1       0.602  11.220  18.730  0.00  0.00    +0.000 A 
ATOM      2  C   UNL     1       1.745  11.994  18.666  0.00  0.00    +0.000 A 
ATOM      3  N   UNL     1       1.351  13.302  18.541  0.00  0.00    +0.000 N 
ATOM      4  N   UNL     1       0.004  13.401  18.420  0.00  0.00    +0.000 NA
ATOM      5  C   UNL     1      -0.468  12.148  18.520  0.00  0.00    +0.000 A 
ENDROOT
BRANCH   1  16
ATOM      6  C   UNL     1       3.350   4.359  19.340  0.00  0.00    +0.000 C 
ATOM      7  C   UNL     1       2.560   5.521  19.878  0.00  0.00    +0.000 C 
ATOM      8  O   UNL     1       1.904   5.420  20.910  0.00  0.00    +0.000 OA
ATOM      9  N   UNL     1       2.633   6.640  19.076  0.00  0.00    +0.000 N 
ATOM     10  C   UNL     1       2.005   7.810  19.365  0.00  0.00    +0.000 C 
ATOM     11  N   UNL     1       1.594   8.212  20.515  0.00  0.00    +0.000 NA
ATOM     12  N   UNL     1       0.897   9.401  20.396  0.00  0.00    +0.000 N 
ATOM     13  C   UNL     1       0.280   9.957  21.506  0.00  0.00    +0.000 C 
ATOM     14  C   UNL     1       0.659   9.391  22.855  0.00  0.00    +0.000 C 
ATOM     15  O   UNL     1      -0.513  10.897  21.436  0.00  0.00    +0.000 OA
ATOM     16  C   UNL     1       0.522   9.764  19.025  0.00  0.00    +0.000 C 
ATOM     17  S   UNL     1       1.714   8.822  17.993  0.00  0.00    +0.000 S 
ATOM     18  H   UNL     1       2.990   6.542  18.137  0.00  0.00    +0.000 HD
ENDBRANCH   1  16
BRANCH   3  19
ATOM     19  C   UNL     1       2.194  14.446  18.520  0.00  0.00    +0.000 A 
ATOM     20  C   UNL     1       3.569  14.320  18.267  0.00  0.00    +0.000 A 
ATOM     21  C   UNL     1       4.385  15.451  18.236  0.00  0.00    +0.000 A 
ATOM     22  C   UNL     1       3.839  16.711  18.468  0.00  0.00    +0.000 A 
ATOM     23  C   UNL     1       2.474  16.844  18.728  0.00  0.00    +0.000 A 
ATOM     24  C   UNL     1       1.651  15.716  18.755  0.00  0.00    +0.000 A 
ENDBRANCH   3  19
BRANCH   5  25
ATOM     25  C   UNL     1      -1.916  11.893  18.430  0.00  0.00    +0.000 A 
ATOM     26  C   UNL     1      -2.796  12.331  19.432  0.00  0.00    +0.000 A 
ATOM     27  C   UNL     1      -4.174  12.110  19.339  0.00  0.00    +0.000 A 
ATOM     28  C   UNL     1      -4.686  11.410  18.244  0.00  0.00    +0.000 A 
ATOM     29  C   UNL     1      -3.827  10.933  17.247  0.00  0.00    +0.000 A 
ATOM     30  C   UNL     1      -2.450  11.180  17.345  0.00  0.00    +0.000 A 
BRANCH  28  31
ATOM     31  N   UNL     1      -6.131  11.165  18.155  0.00  0.00    +0.000 N 
ATOM     32  O   UNL     1      -6.581  10.164  18.726  0.00  0.00    +0.000 OA
ATOM     33  O   UNL     1      -6.815  11.978  17.516  0.00  0.00    +0.000 OA
ENDBRANCH  28  31
ENDBRANCH   5  25
TORSDOF 4
ENDMDL
MODEL 2
REMARK VINA RESULT:      -8.2      0.239      1.205
REMARK  Name = 
REMARK  6 active torsions:
REMARK  status: ('A' for Active; 'I' for Inactive)
REMARK    1  A    between atoms: C_1  and  C_2
REMARK    2  A    between atoms: C_8  and  C_9
REMARK    3  A    between atoms: C_11  and  C_12
REMARK    4  A    between atoms: N_14  and  C_15
REMARK    5  A    between atoms: C_22  and  C_23
REMARK    6  A    between atoms: C_26  and  N_27
REMARK                            x       y       z     vdW  Elec       q    Type
REMARK                         _______ _______ _______ _____ _____    ______ ____
ROOT
ATOM      1  C   UNL     1       0.503  11.276  18.789  0.00  0.00    +0.000 A 
ATOM      2  C   UNL     1       1.631  12.073  18.743  0.00  0.00    +0.000 A 
ATOM      3  N   UNL     1       1.213  13.375  18.640  0.00  0.00    +0.000 N 
ATOM      4  N   UNL     1      -0.136  13.451  18.517  0.00  0.00    +0.000 NA
ATOM      5  C   UNL     1      -0.584  12.187  18.593  0.00  0.00    +0.000 A 
ENDROOT
BRANCH   1  16
ATOM      6  C   UNL     1       3.387   4.465  19.317  0.00  0.00    +0.000 C 
ATOM      7  C   UNL     1       2.566   5.600  19.865  0.00  0.00    +0.000 C 
ATOM      8  O   UNL     1       1.899   5.468  20.886  0.00  0.00    +0.000 OA
ATOM      9  N   UNL     1       2.625   6.734  19.083  0.00  0.00    +0.000 N 
ATOM     10  C   UNL     1       1.969   7.886  19.383  0.00  0.00    +0.000 C 
ATOM     11  N   UNL     1       1.535   8.259  20.535  0.00  0.00    +0.000 NA
ATOM     12  N   UNL     1       0.815   9.435  20.428  0.00  0.00    +0.000 N 
ATOM     13  C   UNL     1       0.172   9.958  21.539  0.00  0.00    +0.000 C 
ATOM     14  C   UNL     1       0.545   9.377  22.883  0.00  0.00    +0.000 C 
ATOM     15  O   UNL     1      -0.640  10.883  21.475  0.00  0.00    +0.000 OA
ATOM     16  C   UNL     1       0.449   9.814  19.059  0.00  0.00    +0.000 C 
ATOM     17  S   UNL     1       1.674   8.916  18.026  0.00  0.00    +0.000 S 
ATOM     18  H   UNL     1       2.996   6.661  18.147  0.00  0.00    +0.000 HD
ENDBRANCH   1  16
BRANCH   3  19
ATOM     19  C   UNL     1       2.033  14.535  18.643  0.00  0.00    +0.000 A 
ATOM     20  C   UNL     1       1.653  15.682  19.357  0.00  0.00    +0.000 A 
ATOM     21  C   UNL     1       2.472  16.811  19.363  0.00  0.00    +0.000 A 
ATOM     22  C   UNL     1       3.669  16.807  18.651  0.00  0.00    +0.000 A 
ATOM     23  C   UNL     1       4.051  15.674  17.932  0.00  0.00    +0.000 A 
ATOM     24  C   UNL     1       3.237  14.539  17.925  0.00  0.00    +0.000 A 
ENDBRANCH   3  19
BRANCH   5  25
ATOM     25  C   UNL     1      -2.027  11.907  18.494  0.00  0.00    +0.000 A 
ATOM     26  C   UNL     1      -2.554  11.171  17.421  0.00  0.00    +0.000 A 
ATOM     27  C   UNL     1      -3.921  10.885  17.335  0.00  0.00    +0.000 A 
ATOM     28  C   UNL     1      -4.787  11.367  18.319  0.00  0.00    +0.000 A 
ATOM     29  C   UNL     1      -4.293  12.131  19.382  0.00  0.00    +0.000 A 
ATOM     30  C   UNL     1      -2.918  12.394  19.464  0.00  0.00    +0.000 A 
BRANCH  28  31
ATOM     31  N   UNL     1      -6.224  11.079  18.220  0.00  0.00    +0.000 N 
ATOM     32  O   UNL     1      -6.646  10.058  18.778  0.00  0.00    +0.000 OA
ATOM     33  O   UNL     1      -6.930  11.878  17.586  0.00  0.00    +0.000 OA
ENDBRANCH  28  31
ENDBRANCH   5  25
TORSDOF 4
ENDMDL
MODEL 3
REMARK VINA RESULT:      -8.2      0.158      1.027
REMARK  Name = 
REMARK  6 active torsions:
REMARK  status: ('A' for Active; 'I' for Inactive)
REMARK    1  A    between atoms: C_1  and  C_2
REMARK    2  A    between atoms: C_8  and  C_9
REMARK    3  A    between atoms: C_11  and  C_12
REMARK    4  A    between atoms: N_14  and  C_15
REMARK    5  A    between atoms: C_22  and  C_23
REMARK    6  A    between atoms: C_26  and  N_27
REMARK                            x       y       z     vdW  Elec       q    Type
REMARK                         _______ _______ _______ _____ _____    ______ ____
ROOT
ATOM      1  C   UNL     1       0.698  11.168  18.649  0.00  0.00    +0.000 A 
ATOM      2  C   UNL     1       1.837  11.949  18.585  0.00  0.00    +0.000 A 
ATOM      3  N   UNL     1       1.436  13.257  18.493  0.00  0.00    +0.000 N 
ATOM      4  N   UNL     1       0.087  13.353  18.395  0.00  0.00    +0.000 NA
ATOM      5  C   UNL     1      -0.379  12.096  18.474  0.00  0.00    +0.000 A 
ENDROOT
BRANCH   1  16
ATOM      6  C   UNL     1       3.495   4.316  19.115  0.00  0.00    +0.000 C 
ATOM      7  C   UNL     1       2.697   5.461  19.678  0.00  0.00    +0.000 C 
ATOM      8  O   UNL     1       2.043   5.334  20.708  0.00  0.00    +0.000 OA
ATOM      9  N   UNL     1       2.761   6.596  18.899  0.00  0.00    +0.000 N 
ATOM     10  C   UNL     1       2.125   7.756  19.212  0.00  0.00    +0.000 C 
ATOM     11  N   UNL     1       1.713   8.131  20.371  0.00  0.00    +0.000 NA
ATOM     12  N   UNL     1       1.008   9.318  20.277  0.00  0.00    +0.000 N 
ATOM     13  C   UNL     1       0.388   9.846  21.399  0.00  0.00    +0.000 C 
ATOM     14  C   UNL     1       0.773   9.256  22.736  0.00  0.00    +0.000 C 
ATOM     15  O   UNL     1      -0.412  10.783  21.350  0.00  0.00    +0.000 OA
ATOM     16  C   UNL     1       0.629   9.706  18.915  0.00  0.00    +0.000 C 
ATOM     17  S   UNL     1       1.826   8.794  17.862  0.00  0.00    +0.000 S 
ATOM     18  H   UNL     1       3.118   6.521  17.957  0.00  0.00    +0.000 HD
ENDBRANCH   1  16
BRANCH   3  19
ATOM     19  C   UNL     1       2.274  14.405  18.485  0.00  0.00    +0.000 A 
ATOM     20  C   UNL     1       3.644  14.292  18.199  0.00  0.00    +0.000 A 
ATOM     21  C   UNL     1       4.454  15.428  18.181  0.00  0.00    +0.000 A 
ATOM     22  C   UNL     1       3.908  16.678  18.456  0.00  0.00    +0.000 A 
ATOM     23  C   UNL     1       2.548  16.798  18.748  0.00  0.00    +0.000 A 
ATOM     24  C   UNL     1       1.731  15.667  18.764  0.00  0.00    +0.000 A 
ENDBRANCH   3  19
BRANCH   5  25
ATOM     25  C   UNL     1      -1.827  11.837  18.400  0.00  0.00    +0.000 A 
ATOM     26  C   UNL     1      -2.382  11.105  17.339  0.00  0.00    +0.000 A 
ATOM     27  C   UNL     1      -3.754  10.839  17.277  0.00  0.00    +0.000 A 
ATOM     28  C   UNL     1      -4.597  11.338  18.273  0.00  0.00    +0.000 A 
ATOM     29  C   UNL     1      -4.074  12.099  19.325  0.00  0.00    +0.000 A 
ATOM     30  C   UNL     1      -2.694  12.341  19.383  0.00  0.00    +0.000 A 
BRANCH  28  31
ATOM     31  N   UNL     1      -6.039  11.071  18.199  0.00  0.00    +0.000 N 
ATOM     32  O   UNL     1      -6.743  11.877  17.578  0.00  0.00    +0.000 OA
ATOM     33  O   UNL     1      -6.466  10.051  18.760  0.00  0.00    +0.000 OA
ENDBRANCH  28  31
ENDBRANCH   5  25
TORSDOF 4
ENDMDL
MODEL 4
REMARK VINA RESULT:      -7.7      2.606      6.777
REMARK  Name = 
REMARK  6 active torsions:
REMARK  status: ('A' for Active; 'I' for Inactive)
REMARK    1  A    between atoms: C_1  and  C_2
REMARK    2  A    between atoms: C_8  and  C_9
REMARK    3  A    between atoms: C_11  and  C_12
REMARK    4  A    between atoms: N_14  and  C_15
REMARK    5  A    between atoms: C_22  and  C_23
REMARK    6  A    between atoms: C_26  and  N_27
REMARK                            x       y       z     vdW  Elec       q    Type
REMARK                         _______ _______ _______ _____ _____    ______ ____
ROOT
ATOM      1  C   UNL     1      -1.281  12.916  19.919  0.00  0.00    +0.000 A 
ATOM      2  C   UNL     1      -1.203  14.271  19.655  0.00  0.00    +0.000 A 
ATOM      3  N   UNL     1       0.012  14.508  19.064  0.00  0.00    +0.000 N 
ATOM      4  N   UNL     1       0.767  13.382  19.023  0.00  0.00    +0.000 NA
ATOM      5  C   UNL     1       0.006  12.408  19.548  0.00  0.00    +0.000 A 
ENDROOT
BRANCH   1  16
ATOM      6  C   UNL     1      -7.860  12.261  23.277  0.00  0.00    +0.000 C 
ATOM      7  C   UNL     1      -6.931  11.997  22.123  0.00  0.00    +0.000 C 
ATOM      8  O   UNL     1      -7.244  11.231  21.217  0.00  0.00    +0.000 OA
ATOM      9  N   UNL     1      -5.728  12.661  22.237  0.00  0.00    +0.000 N 
ATOM     10  C   UNL     1      -4.737  12.579  21.311  0.00  0.00    +0.000 C 
ATOM     11  N   UNL     1      -4.849  12.236  20.077  0.00  0.00    +0.000 NA
ATOM     12  N   UNL     1      -3.604  12.156  19.478  0.00  0.00    +0.000 N 
ATOM     13  C   UNL     1      -3.491  11.702  18.173  0.00  0.00    +0.000 C 
ATOM     14  C   UNL     1      -4.766  11.609  17.367  0.00  0.00    +0.000 C 
ATOM     15  O   UNL     1      -2.412  11.420  17.648  0.00  0.00    +0.000 OA
ATOM     16  C   UNL     1      -2.469  12.166  20.407  0.00  0.00    +0.000 C 
ATOM     17  S   UNL     1      -3.160  12.949  21.918  0.00  0.00    +0.000 S 
ATOM     18  H   UNL     1      -5.476  13.061  23.129  0.00  0.00    +0.000 HD
ENDBRANCH   1  16
BRANCH   3  19
ATOM     19  C   UNL     1       0.483  15.748  18.553  0.00  0.00    +0.000 A 
ATOM     20  C   UNL     1       1.858  15.989  18.409  0.00  0.00    +0.000 A 
ATOM     21  C   UNL     1       2.309  17.205  17.894  0.00  0.00    +0.000 A 
ATOM     22  C   UNL     1       1.393  18.189  17.531  0.00  0.00    +0.000 A 
ATOM     23  C   UNL     1       0.025  17.960  17.678  0.00  0.00    +0.000 A 
ATOM     24  C   UNL     1      -0.433  16.744  18.188  0.00  0.00    +0.000 A 
ENDBRANCH   3  19
BRANCH   5  25
ATOM     25  C   UNL     1       0.530  11.036  19.656  0.00  0.00    +0.000 A 
ATOM     26  C   UNL     1       0.994  10.343  18.526  0.00  0.00    +0.000 A 
ATOM     27  C   UNL     1       1.511   9.047  18.629  0.00  0.00    +0.000 A 
ATOM     28  C   UNL     1       1.539   8.414  19.873  0.00  0.00    +0.000 A 
ATOM     29  C   UNL     1       1.053   9.070  21.010  0.00  0.00    +0.000 A 
ATOM     30  C   UNL     1       0.554  10.375  20.895  0.00  0.00    +0.000 A 
BRANCH  28  31
ATOM     31  N   UNL     1       2.070   7.048  19.977  0.00  0.00    +0.000 N 
ATOM     32  O   UNL     1       1.560   6.295  20.816  0.00  0.00    +0.000 OA
ATOM     33  O   UNL     1       2.994   6.730  19.214  0.00  0.00    +0.000 OA
ENDBRANCH  28  31
ENDBRANCH   5  25
TORSDOF 4
ENDMDL
MODEL 5
REMARK VINA RESULT:      -7.7      2.166      6.617
REMARK  Name = 
REMARK  6 active torsions:
REMARK  status: ('A' for Active; 'I' for Inactive)
REMARK    1  A    between atoms: C_1  and  C_2
REMARK    2  A    between atoms: C_8  and  C_9
REMARK    3  A    between atoms: C_11  and  C_12
REMARK    4  A    between atoms: N_14  and  C_15
REMARK    5  A    between atoms: C_22  and  C_23
REMARK    6  A    between atoms: C_26  and  N_27
REMARK                            x       y       z     vdW  Elec       q    Type
REMARK                         _______ _______ _______ _____ _____    ______ ____
ROOT
ATOM      1  C   UNL     1      -0.507  12.310  19.555  0.00  0.00    +0.000 A 
ATOM      2  C   UNL     1      -0.250  13.641  19.287  0.00  0.00    +0.000 A 
ATOM      3  N   UNL     1       1.048  13.731  18.854  0.00  0.00    +0.000 N 
ATOM      4  N   UNL     1       1.676  12.531  18.924  0.00  0.00    +0.000 NA
ATOM      5  C   UNL     1       0.753  11.658  19.359  0.00  0.00    +0.000 A 
ENDROOT
BRANCH   1  16
ATOM      6  C   UNL     1      -7.520  12.462  21.963  0.00  0.00    +0.000 C 
ATOM      7  C   UNL     1      -6.472  12.052  20.964  0.00  0.00    +0.000 C 
ATOM      8  O   UNL     1      -6.733  11.275  20.052  0.00  0.00    +0.000 OA
ATOM      9  N   UNL     1      -5.235  12.602  21.224  0.00  0.00    +0.000 N 
ATOM     10  C   UNL     1      -4.139  12.377  20.452  0.00  0.00    +0.000 C 
ATOM     11  N   UNL     1      -4.114  11.984  19.228  0.00  0.00    +0.000 NA
ATOM     12  N   UNL     1      -2.813  11.755  18.816  0.00  0.00    +0.000 N 
ATOM     13  C   UNL     1      -2.568  11.227  17.558  0.00  0.00    +0.000 C 
ATOM     14  C   UNL     1      -3.722  11.216  16.583  0.00  0.00    +0.000 C 
ATOM     15  O   UNL     1      -1.461  10.816  17.203  0.00  0.00    +0.000 OA
ATOM     16  C   UNL     1      -1.822  11.702  19.896  0.00  0.00    +0.000 C 
ATOM     17  S   UNL     1      -2.631  12.625  21.263  0.00  0.00    +0.000 S 
ATOM     18  H   UNL     1      -5.069  13.020  22.128  0.00  0.00    +0.000 HD
ENDBRANCH   1  16
BRANCH   3  19
ATOM     19  C   UNL     1       1.712  14.900  18.393  0.00  0.00    +0.000 A 
ATOM     20  C   UNL     1       2.985  14.819  17.807  0.00  0.00    +0.000 A 
ATOM     21  C   UNL     1       3.622  15.972  17.345  0.00  0.00    +0.000 A 
ATOM     22  C   UNL     1       2.999  17.210  17.474  0.00  0.00    +0.000 A 
ATOM     23  C   UNL     1       1.736  17.301  18.062  0.00  0.00    +0.000 A 
ATOM     24  C   UNL     1       1.092  16.151  18.522  0.00  0.00    +0.000 A 
ENDBRANCH   3  19
BRANCH   5  25
ATOM     25  C   UNL     1       1.107  10.240  19.550  0.00  0.00    +0.000 A 
ATOM     26  C   UNL     1       1.647   9.478  18.502  0.00  0.00    +0.000 A 
ATOM     27  C   UNL     1       2.003   8.137  18.686  0.00  0.00    +0.000 A 
ATOM     28  C   UNL     1       1.789   7.533  19.927  0.00  0.00    +0.000 A 
ATOM     29  C   UNL     1       1.222   8.261  20.979  0.00  0.00    +0.000 A 
ATOM     30  C   UNL     1       0.886   9.609  20.785  0.00  0.00    +0.000 A 
BRANCH  28  31
ATOM     31  N   UNL     1       2.150   6.122  20.114  0.00  0.00    +0.000 N 
ATOM     32  O   UNL     1       1.365   5.406  20.749  0.00  0.00    +0.000 OA
ATOM     33  O   UNL     1       3.218   5.730  19.621  0.00  0.00    +0.000 OA
ENDBRANCH  28  31
ENDBRANCH   5  25
TORSDOF 4
ENDMDL
MODEL 6
REMARK VINA RESULT:      -7.6      2.189      6.627
REMARK  Name = 
REMARK  6 active torsions:
REMARK  status: ('A' for Active; 'I' for Inactive)
REMARK    1  A    between atoms: C_1  and  C_2
REMARK    2  A    between atoms: C_8  and  C_9
REMARK    3  A    between atoms: C_11  and  C_12
REMARK    4  A    between atoms: N_14  and  C_15
REMARK    5  A    between atoms: C_22  and  C_23
REMARK    6  A    between atoms: C_26  and  N_27
REMARK                            x       y       z     vdW  Elec       q    Type
REMARK                         _______ _______ _______ _____ _____    ______ ____
ROOT
ATOM      1  C   UNL     1      -0.510  12.313  19.624  0.00  0.00    +0.000 A 
ATOM      2  C   UNL     1      -0.247  13.641  19.344  0.00  0.00    +0.000 A 
ATOM      3  N   UNL     1       1.049  13.721  18.903  0.00  0.00    +0.000 N 
ATOM      4  N   UNL     1       1.671  12.518  18.979  0.00  0.00    +0.000 NA
ATOM      5  C   UNL     1       0.745  11.654  19.426  0.00  0.00    +0.000 A 
ENDROOT
BRANCH   1  16
ATOM      6  C   UNL     1      -7.490  12.512  22.120  0.00  0.00    +0.000 C 
ATOM      7  C   UNL     1      -6.459  12.100  21.105  0.00  0.00    +0.000 C 
ATOM      8  O   UNL     1      -6.739  11.332  20.190  0.00  0.00    +0.000 OA
ATOM      9  N   UNL     1      -5.214  12.637  21.353  0.00  0.00    +0.000 N 
ATOM     10  C   UNL     1      -4.129  12.408  20.567  0.00  0.00    +0.000 C 
ATOM     11  N   UNL     1      -4.123  12.024  19.339  0.00  0.00    +0.000 NA
ATOM     12  N   UNL     1      -2.830  11.785  18.910  0.00  0.00    +0.000 N 
ATOM     13  C   UNL     1      -2.605  11.264  17.645  0.00  0.00    +0.000 C 
ATOM     14  C   UNL     1      -3.771  11.271  16.684  0.00  0.00    +0.000 C 
ATOM     15  O   UNL     1      -1.507  10.846  17.273  0.00  0.00    +0.000 OA
ATOM     16  C   UNL     1      -1.826  11.716  19.977  0.00  0.00    +0.000 C 
ATOM     17  S   UNL     1      -2.610  12.635  21.360  0.00  0.00    +0.000 S 
ATOM     18  H   UNL     1      -5.033  13.047  22.258  0.00  0.00    +0.000 HD
ENDBRANCH   1  16
BRANCH   3  19
ATOM     19  C   UNL     1       1.716  14.883  18.428  0.00  0.00    +0.000 A 
ATOM     20  C   UNL     1       1.119  16.149  18.540  0.00  0.00    +0.000 A 
ATOM     21  C   UNL     1       1.789  17.285  18.082  0.00  0.00    +0.000 A 
ATOM     22  C   UNL     1       3.049  17.164  17.503  0.00  0.00    +0.000 A 
ATOM     23  C   UNL     1       3.646  15.908  17.382  0.00  0.00    +0.000 A 
ATOM     24  C   UNL     1       2.983  14.769  17.842  0.00  0.00    +0.000 A 
ENDBRANCH   3  19
BRANCH   5  25
ATOM     25  C   UNL     1       1.093  10.236  19.627  0.00  0.00    +0.000 A 
ATOM     26  C   UNL     1       0.916   9.612  20.871  0.00  0.00    +0.000 A 
ATOM     27  C   UNL     1       1.225   8.260  21.059  0.00  0.00    +0.000 A 
ATOM     28  C   UNL     1       1.751   7.522  19.997  0.00  0.00    +0.000 A 
ATOM     29  C   UNL     1       1.969   8.128  18.754  0.00  0.00    +0.000 A 
ATOM     30  C   UNL     1       1.637   9.479  18.576  0.00  0.00    +0.000 A 
BRANCH  28  31
ATOM     31  N   UNL     1       2.089   6.107  20.199  0.00  0.00    +0.000 N 
ATOM     32  O   UNL     1       1.251   5.389  20.758  0.00  0.00    +0.000 OA
ATOM     33  O   UNL     1       3.194   5.714  19.793  0.00  0.00    +0.000 OA
ENDBRANCH  28  31
ENDBRANCH   5  25
TORSDOF 4
ENDMDL
MODEL 7
REMARK VINA RESULT:      -7.6      2.145      6.671
REMARK  Name = 
REMARK  6 active torsions:
REMARK  status: ('A' for Active; 'I' for Inactive)
REMARK    1  A    between atoms: C_1  and  C_2
REMARK    2  A    between atoms: C_8  and  C_9
REMARK    3  A    between atoms: C_11  and  C_12
REMARK    4  A    between atoms: N_14  and  C_15
REMARK    5  A    between atoms: C_22  and  C_23
REMARK    6  A    between atoms: C_26  and  N_27
REMARK                            x       y       z     vdW  Elec       q    Type
REMARK                         _______ _______ _______ _____ _____    ______ ____
ROOT
ATOM      1  C   UNL     1      -0.498  12.322  19.513  0.00  0.00    +0.000 A 
ATOM      2  C   UNL     1      -0.249  13.659  19.265  0.00  0.00    +0.000 A 
ATOM      3  N   UNL     1       1.051  13.764  18.839  0.00  0.00    +0.000 N 
ATOM      4  N   UNL     1       1.686  12.567  18.895  0.00  0.00    +0.000 NA
ATOM      5  C   UNL     1       0.767  11.682  19.313  0.00  0.00    +0.000 A 
ENDROOT
BRANCH   1  16
ATOM      6  C   UNL     1      -7.548  12.406  21.813  0.00  0.00    +0.000 C 
ATOM      7  C   UNL     1      -6.480  12.001  20.833  0.00  0.00    +0.000 C 
ATOM      8  O   UNL     1      -6.718  11.213  19.923  0.00  0.00    +0.000 OA
ATOM      9  N   UNL     1      -5.254  12.568  21.107  0.00  0.00    +0.000 N 
ATOM     10  C   UNL     1      -4.144  12.352  20.354  0.00  0.00    +0.000 C 
ATOM     11  N   UNL     1      -4.095  11.949  19.133  0.00  0.00    +0.000 NA
ATOM     12  N   UNL     1      -2.785  11.732  18.743  0.00  0.00    +0.000 N 
ATOM     13  C   UNL     1      -2.515  11.197  17.493  0.00  0.00    +0.000 C 
ATOM     14  C   UNL     1      -3.654  11.164  16.501  0.00  0.00    +0.000 C 
ATOM     15  O   UNL     1      -1.398  10.797  17.159  0.00  0.00    +0.000 OA
ATOM     16  C   UNL     1      -1.811  11.701  19.839  0.00  0.00    +0.000 C 
ATOM     17  S   UNL     1      -2.652  12.625  21.185  0.00  0.00    +0.000 S 
ATOM     18  H   UNL     1      -5.107  12.997  22.009  0.00  0.00    +0.000 HD
ENDBRANCH   1  16
BRANCH   3  19
ATOM     19  C   UNL     1       1.708  14.944  18.397  0.00  0.00    +0.000 A 
ATOM     20  C   UNL     1       1.091  16.199  18.521  0.00  0.00    +0.000 A 
ATOM     21  C   UNL     1       1.751  17.353  18.096  0.00  0.00    +0.000 A 
ATOM     22  C   UNL     1       3.023  17.261  17.537  0.00  0.00    +0.000 A 
ATOM     23  C   UNL     1       3.640  16.017  17.404  0.00  0.00    +0.000 A 
ATOM     24  C   UNL     1       2.987  14.859  17.831  0.00  0.00    +0.000 A 
ENDBRANCH   3  19
BRANCH   5  25
ATOM     25  C   UNL     1       1.129  10.264  19.485  0.00  0.00    +0.000 A 
ATOM     26  C   UNL     1       1.700   9.526  18.436  0.00  0.00    +0.000 A 
ATOM     27  C   UNL     1       2.065   8.186  18.602  0.00  0.00    +0.000 A 
ATOM     28  C   UNL     1       1.828   7.556  19.826  0.00  0.00    +0.000 A 
ATOM     29  C   UNL     1       1.230   8.259  20.878  0.00  0.00    +0.000 A 
ATOM     30  C   UNL     1       0.887   9.607  20.702  0.00  0.00    +0.000 A 
BRANCH  28  31
ATOM     31  N   UNL     1       2.198   6.145  19.995  0.00  0.00    +0.000 N 
ATOM     32  O   UNL     1       3.159   5.720  19.343  0.00  0.00    +0.000 OA
ATOM     33  O   UNL     1       1.526   5.464  20.785  0.00  0.00    +0.000 OA
ENDBRANCH  28  31
ENDBRANCH   5  25
TORSDOF 4
ENDMDL
MODEL 8
REMARK VINA RESULT:      -7.5      2.797      7.540
REMARK  Name = 
REMARK  6 active torsions:
REMARK  status: ('A' for Active; 'I' for Inactive)
REMARK    1  A    between atoms: C_1  and  C_2
REMARK    2  A    between atoms: C_8  and  C_9
REMARK    3  A    between atoms: C_11  and  C_12
REMARK    4  A    between atoms: N_14  and  C_15
REMARK    5  A    between atoms: C_22  and  C_23
REMARK    6  A    between atoms: C_26  and  N_27
REMARK                            x       y       z     vdW  Elec       q    Type
REMARK                         _______ _______ _______ _____ _____    ______ ____
ROOT
ATOM      1  C   UNL     1       0.325  11.885  19.180  0.00  0.00    +0.000 A 
ATOM      2  C   UNL     1      -0.866  12.530  18.907  0.00  0.00    +0.000 A 
ATOM      3  N   UNL     1      -1.817  11.566  18.689  0.00  0.00    +0.000 N 
ATOM      4  N   UNL     1      -1.273  10.324  18.709  0.00  0.00    +0.000 NA
ATOM      5  C   UNL     1       0.028  10.497  18.993  0.00  0.00    +0.000 A 
ENDROOT
BRANCH   1  16
ATOM      6  C   UNL     1       5.997  16.636  18.682  0.00  0.00    +0.000 C 
ATOM      7  C   UNL     1       4.890  15.974  19.455  0.00  0.00    +0.000 C 
ATOM      8  O   UNL     1       4.772  16.140  20.665  0.00  0.00    +0.000 OA
ATOM      9  N   UNL     1       4.096  15.164  18.673  0.00  0.00    +0.000 N 
ATOM     10  C   UNL     1       3.031  14.469  19.153  0.00  0.00    +0.000 C 
ATOM     11  N   UNL     1       2.363  14.709  20.225  0.00  0.00    +0.000 NA
ATOM     12  N   UNL     1       1.424  13.717  20.447  0.00  0.00    +0.000 N 
ATOM     13  C   UNL     1       0.664  13.729  21.607  0.00  0.00    +0.000 C 
ATOM     14  C   UNL     1       0.685  14.999  22.426  0.00  0.00    +0.000 C 
ATOM     15  O   UNL     1      -0.042  12.783  21.960  0.00  0.00    +0.000 OA
ATOM     16  C   UNL     1       1.597  12.508  19.635  0.00  0.00    +0.000 C 
ATOM     17  S   UNL     1       2.586  13.094  18.202  0.00  0.00    +0.000 S 
ATOM     18  H   UNL     1       4.423  14.902  17.754  0.00  0.00    +0.000 HD
ENDBRANCH   1  16
BRANCH   3  19
ATOM     19  C   UNL     1      -3.203  11.775  18.453  0.00  0.00    +0.000 A 
ATOM     20  C   UNL     1      -4.032  12.292  19.461  0.00  0.00    +0.000 A 
ATOM     21  C   UNL     1      -5.389  12.506  19.215  0.00  0.00    +0.000 A 
ATOM     22  C   UNL     1      -5.927  12.197  17.969  0.00  0.00    +0.000 A 
ATOM     23  C   UNL     1      -5.111  11.676  16.964  0.00  0.00    +0.000 A 
ATOM     24  C   UNL     1      -3.752  11.464  17.202  0.00  0.00    +0.000 A 
ENDBRANCH   3  19
BRANCH   5  25
ATOM     25  C   UNL     1       0.925   9.332  19.093  0.00  0.00    +0.000 A 
ATOM     26  C   UNL     1       1.099   8.649  20.307  0.00  0.00    +0.000 A 
ATOM     27  C   UNL     1       1.934   7.530  20.399  0.00  0.00    +0.000 A 
ATOM     28  C   UNL     1       2.635   7.100  19.271  0.00  0.00    +0.000 A 
ATOM     29  C   UNL     1       2.506   7.783  18.056  0.00  0.00    +0.000 A 
ATOM     30  C   UNL     1       1.651   8.892  17.974  0.00  0.00    +0.000 A 
BRANCH  28  31
ATOM     31  N   UNL     1       3.523   5.934  19.373  0.00  0.00    +0.000 N 
ATOM     32  O   UNL     1       4.525   5.908  18.648  0.00  0.00    +0.000 OA
ATOM     33  O   UNL     1       3.217   5.047  20.184  0.00  0.00    +0.000 OA
ENDBRANCH  28  31
ENDBRANCH   5  25
TORSDOF 4
ENDMDL
MODEL 9
REMARK VINA RESULT:      -7.5      2.798      7.504
REMARK  Name = 
REMARK  6 active torsions:
REMARK  status: ('A' for Active; 'I' for Inactive)
REMARK    1  A    between atoms: C_1  and  C_2
REMARK    2  A    between atoms: C_8  and  C_9
REMARK    3  A    between atoms: C_11  and  C_12
REMARK    4  A    between atoms: N_14  and  C_15
REMARK    5  A    between atoms: C_22  and  C_23
REMARK    6  A    between atoms: C_26  and  N_27
REMARK                            x       y       z     vdW  Elec       q    Type
REMARK                         _______ _______ _______ _____ _____    ______ ____
ROOT
ATOM      1  C   UNL     1       0.318  11.890  19.188  0.00  0.00    +0.000 A 
ATOM      2  C   UNL     1      -0.874  12.536  18.919  0.00  0.00    +0.000 A 
ATOM      3  N   UNL     1      -1.825  11.573  18.699  0.00  0.00    +0.000 N 
ATOM      4  N   UNL     1      -1.281  10.331  18.715  0.00  0.00    +0.000 NA
ATOM      5  C   UNL     1       0.020  10.502  18.997  0.00  0.00    +0.000 A 
ENDROOT
BRANCH   1  16
ATOM      6  C   UNL     1       5.997  16.632  18.689  0.00  0.00    +0.000 C 
ATOM      7  C   UNL     1       4.888  15.972  19.463  0.00  0.00    +0.000 C 
ATOM      8  O   UNL     1       4.769  16.140  20.672  0.00  0.00    +0.000 OA
ATOM      9  N   UNL     1       4.093  15.162  18.680  0.00  0.00    +0.000 N 
ATOM     10  C   UNL     1       3.027  14.470  19.161  0.00  0.00    +0.000 C 
ATOM     11  N   UNL     1       2.358  14.712  20.232  0.00  0.00    +0.000 NA
ATOM     12  N   UNL     1       1.418  13.722  20.454  0.00  0.00    +0.000 N 
ATOM     13  C   UNL     1       0.657  13.737  21.613  0.00  0.00    +0.000 C 
ATOM     14  C   UNL     1       0.680  15.007  22.432  0.00  0.00    +0.000 C 
ATOM     15  O   UNL     1      -0.051  12.792  21.967  0.00  0.00    +0.000 OA
ATOM     16  C   UNL     1       1.590  12.512  19.644  0.00  0.00    +0.000 C 
ATOM     17  S   UNL     1       2.581  13.095  18.211  0.00  0.00    +0.000 S 
ATOM     18  H   UNL     1       4.421  14.900  17.762  0.00  0.00    +0.000 HD
ENDBRANCH   1  16
BRANCH   3  19
ATOM     19  C   UNL     1      -3.212  11.783  18.466  0.00  0.00    +0.000 A 
ATOM     20  C   UNL     1      -3.785  11.477  17.221  0.00  0.00    +0.000 A 
ATOM     21  C   UNL     1      -5.149  11.675  17.007  0.00  0.00    +0.000 A 
ATOM     22  C   UNL     1      -5.946  12.188  18.027  0.00  0.00    +0.000 A 
ATOM     23  C   UNL     1      -5.383  12.502  19.265  0.00  0.00    +0.000 A 
ATOM     24  C   UNL     1      -4.019  12.301  19.486  0.00  0.00    +0.000 A 
ENDBRANCH   3  19
BRANCH   5  25
ATOM     25  C   UNL     1       0.917   9.337  19.092  0.00  0.00    +0.000 A 
ATOM     26  C   UNL     1       1.089   8.648  20.303  0.00  0.00    +0.000 A 
ATOM     27  C   UNL     1       1.924   7.528  20.391  0.00  0.00    +0.000 A 
ATOM     28  C   UNL     1       2.628   7.105  19.262  0.00  0.00    +0.000 A 
ATOM     29  C   UNL     1       2.500   7.794  18.050  0.00  0.00    +0.000 A 
ATOM     30  C   UNL     1       1.645   8.904  17.973  0.00  0.00    +0.000 A 
BRANCH  28  31
ATOM     31  N   UNL     1       3.515   5.939  19.359  0.00  0.00    +0.000 N 
ATOM     32  O   UNL     1       3.225   5.062  20.182  0.00  0.00    +0.000 OA
ATOM     33  O   UNL     1       4.500   5.900  18.607  0.00  0.00    +0.000 OA
ENDBRANCH  28  31
ENDBRANCH   5  25
TORSDOF 4
ENDMDL
