MODEL 1
REMARK VINA RESULT:      -7.7      0.000      0.000
REMARK  Name = 
REMARK  6 active torsions:
REMARK  status: ('A' for Active; 'I' for Inactive)
REMARK    1  A    between atoms: C_2  and  C_3
REMARK    2  A    between atoms: C_3  and  C_4
REMARK    3  A    between atoms: C_3  and  N_17
REMARK    4  A    between atoms: C_4  and  C_5
REMARK    5  A    between atoms: C_8  and  C_9
REMARK    6  A    between atoms: C_18  and  C_20
REMARK                            x       y       z     vdW  Elec       q    Type
REMARK                         _______ _______ _______ _____ _____    ______ ____
ROOT
ATOM      1  C   UNL     1       4.516   3.991  19.277  0.00  0.00    +0.000 C 
ENDROOT
BRANCH   1   2
ATOM      2  N   UNL     1       5.101   3.889  17.928  0.00  0.00    +0.000 N 
ATOM      3  C   UNL     1       6.378   4.350  17.693  0.00  0.00    +0.000 C 
ATOM      4  O   UNL     1       7.067   4.814  18.598  0.00  0.00    +0.000 OA
ATOM      5  H   UNL     1       4.486   3.759  17.128  0.00  0.00    +0.000 HD
BRANCH   3   6
ATOM      6  C   UNL     1       6.890   4.185  16.248  0.00  0.00    +0.000 C 
ATOM      7  N   UNL     1       6.052   3.234  15.446  0.00  0.00    +0.000 NA
ATOM      8  C   UNL     1       5.588   4.053  14.291  0.00  0.00    +0.000 C 
ATOM      9  C   UNL     1       6.784   4.325  13.362  0.00  0.00    +0.000 C 
ATOM     10  C   UNL     1       7.612   5.342  14.161  0.00  0.00    +0.000 C 
ATOM     11  C   UNL     1       6.788   5.497  15.450  0.00  0.00    +0.000 C 
ATOM     12  C   UNL     1       5.360   5.420  14.917  0.00  0.00    +0.000 C 
ATOM     13  H   UNL     1       5.232   2.956  15.983  0.00  0.00    +0.000 HD
ENDBRANCH   3   6
ENDBRANCH   1   2
BRANCH   1  15
ATOM     14  N   UNL     1       4.792   1.744  20.643  0.00  0.00    +0.000 NA
ATOM     15  C   UNL     1       4.652   2.730  20.032  0.00  0.00    +0.000 C 
ENDBRANCH   1  15
BRANCH   1  16
ATOM     16  C   UNL     1       3.044   4.415  19.156  0.00  0.00    +0.000 C 
BRANCH  16  17
ATOM     17  C   UNL     1       2.690   5.884  19.218  0.00  0.00    +0.000 A 
ATOM     18  C   UNL     1       2.799   6.742  18.121  0.00  0.00    +0.000 A 
ATOM     19  C   UNL     1       2.291   8.040  18.192  0.00  0.00    +0.000 A 
ATOM     20  C   UNL     1       1.659   8.509  19.351  0.00  0.00    +0.000 A 
ATOM     21  C   UNL     1       1.612   7.676  20.473  0.00  0.00    +0.000 A 
ATOM     22  C   UNL     1       2.117   6.377  20.401  0.00  0.00    +0.000 A 
BRANCH  20  23
ATOM     23  C   UNL     1       0.990   9.872  19.374  0.00  0.00    +0.000 C 
ATOM     24  C   UNL     1       0.403  10.170  20.763  0.00  0.00    +0.000 C 
ATOM     25  C   UNL     1      -0.423  11.447  20.745  0.00  0.00    +0.000 C 
ATOM     26  O   UNL     1      -1.427  11.381  19.735  0.00  0.00    +0.000 OA
ATOM     27  C   UNL     1      -0.867  11.279  18.427  0.00  0.00    +0.000 C 
ATOM     28  C   UNL     1      -0.078   9.989  18.278  0.00  0.00    +0.000 C 
ENDBRANCH  20  23
ENDBRANCH  16  17
ENDBRANCH   1  16
TORSDOF 6
ENDMDL
MODEL 2
REMARK VINA RESULT:      -7.4      1.453      1.708
REMARK  Name = 
REMARK  6 active torsions:
REMARK  status: ('A' for Active; 'I' for Inactive)
REMARK    1  A    between atoms: C_2  and  C_3
REMARK    2  A    between atoms: C_3  and  C_4
REMARK    3  A    between atoms: C_3  and  N_17
REMARK    4  A    between atoms: C_4  and  C_5
REMARK    5  A    between atoms: C_8  and  C_9
REMARK    6  A    between atoms: C_18  and  C_20
REMARK                            x       y       z     vdW  Elec       q    Type
REMARK                         _______ _______ _______ _____ _____    ______ ____
ROOT
ATOM      1  C   UNL     1       3.286   4.665  20.169  0.00  0.00    +0.000 C 
ENDROOT
BRANCH   1   2
ATOM      2  N   UNL     1       4.073   4.328  18.969  0.00  0.00    +0.000 N 
ATOM      3  C   UNL     1       5.364   4.791  18.839  0.00  0.00    +0.000 C 
ATOM      4  O   UNL     1       5.900   5.451  19.726  0.00  0.00    +0.000 OA
ATOM      5  H   UNL     1       3.590   4.019  18.129  0.00  0.00    +0.000 HD
BRANCH   3   6
ATOM      6  C   UNL     1       6.095   4.371  17.548  0.00  0.00    +0.000 C 
ATOM      7  N   UNL     1       5.235   3.536  16.645  0.00  0.00    +0.000 NA
ATOM      8  C   UNL     1       5.200   4.308  15.371  0.00  0.00    +0.000 C 
ATOM      9  C   UNL     1       6.583   4.225  14.702  0.00  0.00    +0.000 C 
ATOM     10  C   UNL     1       7.449   5.126  15.594  0.00  0.00    +0.000 C 
ATOM     11  C   UNL     1       6.447   5.584  16.669  0.00  0.00    +0.000 C 
ATOM     12  C   UNL     1       5.170   5.751  15.851  0.00  0.00    +0.000 C 
ATOM     13  H   UNL     1       4.286   3.494  17.013  0.00  0.00    +0.000 HD
ENDBRANCH   3   6
ENDBRANCH   1   2
BRANCH   1  15
ATOM     14  N   UNL     1       2.897   2.543  21.699  0.00  0.00    +0.000 NA
ATOM     15  C   UNL     1       3.048   3.482  21.020  0.00  0.00    +0.000 C 
ENDBRANCH   1  15
BRANCH   1  16
ATOM     16  C   UNL     1       1.964   5.318  19.737  0.00  0.00    +0.000 C 
BRANCH  16  17
ATOM     17  C   UNL     1       1.852   6.826  19.729  0.00  0.00    +0.000 A 
ATOM     18  C   UNL     1       2.126   7.605  18.602  0.00  0.00    +0.000 A 
ATOM     19  C   UNL     1       1.835   8.970  18.605  0.00  0.00    +0.000 A 
ATOM     20  C   UNL     1       1.259   9.587  19.724  0.00  0.00    +0.000 A 
ATOM     21  C   UNL     1       1.051   8.823  20.876  0.00  0.00    +0.000 A 
ATOM     22  C   UNL     1       1.338   7.457  20.872  0.00  0.00    +0.000 A 
BRANCH  20  23
ATOM     23  C   UNL     1       0.821  11.039  19.671  0.00  0.00    +0.000 C 
ATOM     24  C   UNL     1      -0.685  11.146  19.377  0.00  0.00    +0.000 C 
ATOM     25  C   UNL     1      -1.095  12.592  19.143  0.00  0.00    +0.000 C 
ATOM     26  O   UNL     1      -0.299  13.179  18.116  0.00  0.00    +0.000 OA
ATOM     27  C   UNL     1       1.081  13.234  18.471  0.00  0.00    +0.000 C 
ATOM     28  C   UNL     1       1.647  11.835  18.652  0.00  0.00    +0.000 C 
ENDBRANCH  20  23
ENDBRANCH  16  17
ENDBRANCH   1  16
TORSDOF 6
ENDMDL
MODEL 3
REMARK VINA RESULT:      -7.4      4.387      9.035
REMARK  Name = 
REMARK  6 active torsions:
REMARK  status: ('A' for Active; 'I' for Inactive)
REMARK    1  A    between atoms: C_2  and  C_3
REMARK    2  A    between atoms: C_3  and  C_4
REMARK    3  A    between atoms: C_3  and  N_17
REMARK    4  A    between atoms: C_4  and  C_5
REMARK    5  A    between atoms: C_8  and  C_9
REMARK    6  A    between atoms: C_18  and  C_20
REMARK                            x       y       z     vdW  Elec       q    Type
REMARK                         _______ _______ _______ _____ _____    ______ ____
ROOT
ATOM      1  C   UNL     1       1.305  10.894  18.865  0.00  0.00    +0.000 C 
ENDROOT
BRANCH   1   2
ATOM      2  N   UNL     1       0.024  11.197  18.200  0.00  0.00    +0.000 N 
ATOM      3  C   UNL     1      -1.135  11.280  18.939  0.00  0.00    +0.000 C 
ATOM      4  O   UNL     1      -1.125  11.149  20.161  0.00  0.00    +0.000 OA
ATOM      5  H   UNL     1      -0.059  11.055  17.196  0.00  0.00    +0.000 HD
BRANCH   3   6
ATOM      6  C   UNL     1      -2.412  11.610  18.141  0.00  0.00    +0.000 C 
ATOM      7  N   UNL     1      -2.128  11.910  16.699  0.00  0.00    +0.000 NA
ATOM      8  C   UNL     1      -2.938  10.903  15.958  0.00  0.00    +0.000 C 
ATOM      9  C   UNL     1      -4.428  11.264  16.097  0.00  0.00    +0.000 C 
ATOM     10  C   UNL     1      -4.731  10.903  17.558  0.00  0.00    +0.000 C 
ATOM     11  C   UNL     1      -3.366  10.405  18.064  0.00  0.00    +0.000 C 
ATOM     12  C   UNL     1      -2.831   9.669  16.840  0.00  0.00    +0.000 C 
ATOM     13  H   UNL     1      -1.145  11.734  16.495  0.00  0.00    +0.000 HD
ENDBRANCH   3   6
ENDBRANCH   1   2
BRANCH   1  15
ATOM     14  N   UNL     1       2.495  13.106  19.689  0.00  0.00    +0.000 NA
ATOM     15  C   UNL     1       1.987  12.119  19.327  0.00  0.00    +0.000 C 
ENDBRANCH   1  15
BRANCH   1  16
ATOM     16  C   UNL     1       2.192  10.087  17.905  0.00  0.00    +0.000 C 
BRANCH  16  17
ATOM     17  C   UNL     1       2.561   8.664  18.259  0.00  0.00    +0.000 A 
ATOM     18  C   UNL     1       1.969   7.961  19.310  0.00  0.00    +0.000 A 
ATOM     19  C   UNL     1       2.223   6.598  19.474  0.00  0.00    +0.000 A 
ATOM     20  C   UNL     1       3.065   5.905  18.594  0.00  0.00    +0.000 A 
ATOM     21  C   UNL     1       3.714   6.623  17.584  0.00  0.00    +0.000 A 
ATOM     22  C   UNL     1       3.457   7.985  17.418  0.00  0.00    +0.000 A 
BRANCH  20  23
ATOM     23  C   UNL     1       3.228   4.400  18.698  0.00  0.00    +0.000 C 
ATOM     24  C   UNL     1       2.247   3.677  17.760  0.00  0.00    +0.000 C 
ATOM     25  C   UNL     1       2.277   2.174  17.990  0.00  0.00    +0.000 C 
ATOM     26  O   UNL     1       2.038   1.872  19.363  0.00  0.00    +0.000 OA
ATOM     27  C   UNL     1       3.052   2.402  20.214  0.00  0.00    +0.000 C 
ATOM     28  C   UNL     1       3.074   3.920  20.147  0.00  0.00    +0.000 C 
ENDBRANCH  20  23
ENDBRANCH  16  17
ENDBRANCH   1  16
TORSDOF 6
ENDMDL
MODEL 4
REMARK VINA RESULT:      -7.4      4.424      6.858
REMARK  Name = 
REMARK  6 active torsions:
REMARK  status: ('A' for Active; 'I' for Inactive)
REMARK    1  A    between atoms: C_2  and  C_3
REMARK    2  A    between atoms: C_3  and  C_4
REMARK    3  A    between atoms: C_3  and  N_17
REMARK    4  A    between atoms: C_4  and  C_5
REMARK    5  A    between atoms: C_8  and  C_9
REMARK    6  A    between atoms: C_18  and  C_20
REMARK                            x       y       z     vdW  Elec       q    Type
REMARK                         _______ _______ _______ _____ _____    ______ ____
ROOT
ATOM      1  C   UNL     1       5.522   5.259  16.365  0.00  0.00    +0.000 C 
ENDROOT
BRANCH   1   2
ATOM      2  N   UNL     1       4.367   4.762  17.134  0.00  0.00    +0.000 N 
ATOM      3  C   UNL     1       3.439   5.648  17.636  0.00  0.00    +0.000 C 
ATOM      4  O   UNL     1       3.527   6.855  17.423  0.00  0.00    +0.000 OA
ATOM      5  H   UNL     1       4.404   3.830  17.539  0.00  0.00    +0.000 HD
BRANCH   3   6
ATOM      6  C   UNL     1       2.269   5.017  18.416  0.00  0.00    +0.000 C 
ATOM      7  N   UNL     1       1.471   4.060  17.581  0.00  0.00    +0.000 NA
ATOM      8  C   UNL     1       1.557   2.774  18.331  0.00  0.00    +0.000 C 
ATOM      9  C   UNL     1       0.719   2.892  19.615  0.00  0.00    +0.000 C 
ATOM     10  C   UNL     1       1.565   3.827  20.491  0.00  0.00    +0.000 C 
ATOM     11  C   UNL     1       2.763   4.137  19.578  0.00  0.00    +0.000 C 
ATOM     12  C   UNL     1       2.975   2.798  18.879  0.00  0.00    +0.000 C 
ATOM     13  H   UNL     1       1.924   3.927  16.678  0.00  0.00    +0.000 HD
ENDBRANCH   3   6
ENDBRANCH   1   2
BRANCH   1  15
ATOM     14  N   UNL     1       5.945   3.857  14.164  0.00  0.00    +0.000 NA
ATOM     15  C   UNL     1       5.758   4.458  15.147  0.00  0.00    +0.000 C 
ENDBRANCH   1  15
BRANCH   1  16
ATOM     16  C   UNL     1       6.762   5.275  17.273  0.00  0.00    +0.000 C 
BRANCH  16  17
ATOM     17  C   UNL     1       7.291   6.597  17.780  0.00  0.00    +0.000 A 
ATOM     18  C   UNL     1       8.183   6.703  18.849  0.00  0.00    +0.000 A 
ATOM     19  C   UNL     1       8.772   7.932  19.154  0.00  0.00    +0.000 A 
ATOM     20  C   UNL     1       8.490   9.078  18.399  0.00  0.00    +0.000 A 
ATOM     21  C   UNL     1       7.543   8.989  17.374  0.00  0.00    +0.000 A 
ATOM     22  C   UNL     1       6.958   7.759  17.066  0.00  0.00    +0.000 A 
BRANCH  20  23
ATOM     23  C   UNL     1       9.234  10.376  18.651  0.00  0.00    +0.000 C 
ATOM     24  C   UNL     1       9.317  10.677  20.157  0.00  0.00    +0.000 C 
ATOM     25  C   UNL     1       9.898  12.060  20.408  0.00  0.00    +0.000 C 
ATOM     26  O   UNL     1       9.159  13.050  19.698  0.00  0.00    +0.000 OA
ATOM     27  C   UNL     1       9.231  12.865  18.285  0.00  0.00    +0.000 C 
ATOM     28  C   UNL     1       8.599  11.543  17.882  0.00  0.00    +0.000 C 
ENDBRANCH  20  23
ENDBRANCH  16  17
ENDBRANCH   1  16
TORSDOF 6
ENDMDL
MODEL 5
REMARK VINA RESULT:      -7.4      4.764     10.721
REMARK  Name = 
REMARK  6 active torsions:
REMARK  status: ('A' for Active; 'I' for Inactive)
REMARK    1  A    between atoms: C_2  and  C_3
REMARK    2  A    between atoms: C_3  and  C_4
REMARK    3  A    between atoms: C_3  and  N_17
REMARK    4  A    between atoms: C_4  and  C_5
REMARK    5  A    between atoms: C_8  and  C_9
REMARK    6  A    between atoms: C_18  and  C_20
REMARK                            x       y       z     vdW  Elec       q    Type
REMARK                         _______ _______ _______ _____ _____    ______ ____
ROOT
ATOM      1  C   UNL     1       0.279  11.313  20.855  0.00  0.00    +0.000 C 
ENDROOT
BRANCH   1   2
ATOM      2  N   UNL     1      -1.049  11.893  21.126  0.00  0.00    +0.000 N 
ATOM      3  C   UNL     1      -1.601  11.797  22.384  0.00  0.00    +0.000 C 
ATOM      4  O   UNL     1      -0.991  11.270  23.311  0.00  0.00    +0.000 OA
ATOM      5  H   UNL     1      -1.671  12.095  20.346  0.00  0.00    +0.000 HD
BRANCH   3   6
ATOM      6  C   UNL     1      -2.989  12.446  22.555  0.00  0.00    +0.000 C 
ATOM      7  N   UNL     1      -3.635  12.087  23.861  0.00  0.00    +0.000 NA
ATOM      8  C   UNL     1      -3.871  13.404  24.517  0.00  0.00    +0.000 C 
ATOM      9  C   UNL     1      -4.996  14.138  23.766  0.00  0.00    +0.000 C 
ATOM     10  C   UNL     1      -4.317  14.554  22.454  0.00  0.00    +0.000 C 
ATOM     11  C   UNL     1      -2.899  13.981  22.622  0.00  0.00    +0.000 C 
ATOM     12  C   UNL     1      -2.646  14.208  24.109  0.00  0.00    +0.000 C 
ATOM     13  H   UNL     1      -2.980  11.562  24.438  0.00  0.00    +0.000 HD
ENDBRANCH   3   6
ENDBRANCH   1   2
BRANCH   1  15
ATOM     14  N   UNL     1       2.165  13.165  20.901  0.00  0.00    +0.000 NA
ATOM     15  C   UNL     1       1.340  12.340  20.863  0.00  0.00    +0.000 C 
ENDBRANCH   1  15
BRANCH   1  16
ATOM     16  C   UNL     1       0.236  10.562  19.515  0.00  0.00    +0.000 C 
BRANCH  16  17
ATOM     17  C   UNL     1       1.181   9.404  19.285  0.00  0.00    +0.000 A 
ATOM     18  C   UNL     1       1.403   8.402  20.232  0.00  0.00    +0.000 A 
ATOM     19  C   UNL     1       2.147   7.269  19.894  0.00  0.00    +0.000 A 
ATOM     20  C   UNL     1       2.678   7.108  18.608  0.00  0.00    +0.000 A 
ATOM     21  C   UNL     1       2.517   8.143  17.682  0.00  0.00    +0.000 A 
ATOM     22  C   UNL     1       1.770   9.273  18.018  0.00  0.00    +0.000 A 
BRANCH  20  23
ATOM     23  C   UNL     1       3.368   5.816  18.209  0.00  0.00    +0.000 C 
ATOM     24  C   UNL     1       2.338   4.744  17.816  0.00  0.00    +0.000 C 
ATOM     25  C   UNL     1       3.008   3.397  17.591  0.00  0.00    +0.000 C 
ATOM     26  O   UNL     1       3.773   3.021  18.734  0.00  0.00    +0.000 OA
ATOM     27  C   UNL     1       4.840   3.933  18.990  0.00  0.00    +0.000 C 
ATOM     28  C   UNL     1       4.301   5.315  19.319  0.00  0.00    +0.000 C 
ENDBRANCH  20  23
ENDBRANCH  16  17
ENDBRANCH   1  16
TORSDOF 6
ENDMDL
MODEL 6
REMARK VINA RESULT:      -7.3      0.594      1.115
REMARK  Name = 
REMARK  6 active torsions:
REMARK  status: ('A' for Active; 'I' for Inactive)
REMARK    1  A    between atoms: C_2  and  C_3
REMARK    2  A    between atoms: C_3  and  C_4
REMARK    3  A    between atoms: C_3  and  N_17
REMARK    4  A    between atoms: C_4  and  C_5
REMARK    5  A    between atoms: C_8  and  C_9
REMARK    6  A    between atoms: C_18  and  C_20
REMARK                            x       y       z     vdW  Elec       q    Type
REMARK                         _______ _______ _______ _____ _____    ______ ____
ROOT
ATOM      1  C   UNL     1       4.547   3.669  19.435  0.00  0.00    +0.000 C 
ENDROOT
BRANCH   1   2
ATOM      2  N   UNL     1       5.176   3.584  18.105  0.00  0.00    +0.000 N 
ATOM      3  C   UNL     1       6.201   4.440  17.769  0.00  0.00    +0.000 C 
ATOM      4  O   UNL     1       6.640   5.258  18.574  0.00  0.00    +0.000 OA
ATOM      5  H   UNL     1       4.680   3.115  17.350  0.00  0.00    +0.000 HD
BRANCH   3   6
ATOM      6  C   UNL     1       6.789   4.256  16.356  0.00  0.00    +0.000 C 
ATOM      7  N   UNL     1       6.045   3.230  15.554  0.00  0.00    +0.000 NA
ATOM      8  C   UNL     1       5.589   3.980  14.349  0.00  0.00    +0.000 C 
ATOM      9  C   UNL     1       6.810   4.290  13.465  0.00  0.00    +0.000 C 
ATOM     10  C   UNL     1       7.540   5.380  14.262  0.00  0.00    +0.000 C 
ATOM     11  C   UNL     1       6.649   5.531  15.506  0.00  0.00    +0.000 C 
ATOM     12  C   UNL     1       5.255   5.352  14.913  0.00  0.00    +0.000 C 
ATOM     13  H   UNL     1       5.218   2.923  16.064  0.00  0.00    +0.000 HD
ENDBRANCH   3   6
ENDBRANCH   1   2
BRANCH   1  15
ATOM     14  N   UNL     1       5.095   1.528  20.885  0.00  0.00    +0.000 NA
ATOM     15  C   UNL     1       4.845   2.483  20.262  0.00  0.00    +0.000 C 
ENDBRANCH   1  15
BRANCH   1  16
ATOM     16  C   UNL     1       3.032   3.866  19.264  0.00  0.00    +0.000 C 
BRANCH  16  17
ATOM     17  C   UNL     1       2.448   5.255  19.391  0.00  0.00    +0.000 A 
ATOM     18  C   UNL     1       1.837   5.721  20.557  0.00  0.00    +0.000 A 
ATOM     19  C   UNL     1       1.478   7.066  20.671  0.00  0.00    +0.000 A 
ATOM     20  C   UNL     1       1.725   7.974  19.633  0.00  0.00    +0.000 A 
ATOM     21  C   UNL     1       2.272   7.494  18.439  0.00  0.00    +0.000 A 
ATOM     22  C   UNL     1       2.634   6.150  18.326  0.00  0.00    +0.000 A 
BRANCH  20  23
ATOM     23  C   UNL     1       1.456   9.456  19.817  0.00  0.00    +0.000 C 
ATOM     24  C   UNL     1       0.636   9.709  21.093  0.00  0.00    +0.000 C 
ATOM     25  C   UNL     1       0.208  11.166  21.189  0.00  0.00    +0.000 C 
ATOM     26  O   UNL     1      -0.487  11.563  20.009  0.00  0.00    +0.000 OA
ATOM     27  C   UNL     1       0.339  11.490  18.848  0.00  0.00    +0.000 C 
ATOM     28  C   UNL     1       0.772  10.058  18.583  0.00  0.00    +0.000 C 
ENDBRANCH  20  23
ENDBRANCH  16  17
ENDBRANCH   1  16
TORSDOF 6
ENDMDL
MODEL 7
REMARK VINA RESULT:      -7.3      1.562      2.013
REMARK  Name = 
REMARK  6 active torsions:
REMARK  status: ('A' for Active; 'I' for Inactive)
REMARK    1  A    between atoms: C_2  and  C_3
REMARK    2  A    between atoms: C_3  and  C_4
REMARK    3  A    between atoms: C_3  and  N_17
REMARK    4  A    between atoms: C_4  and  C_5
REMARK    5  A    between atoms: C_8  and  C_9
REMARK    6  A    between atoms: C_18  and  C_20
REMARK                            x       y       z     vdW  Elec       q    Type
REMARK                         _______ _______ _______ _____ _____    ______ ____
ROOT
ATOM      1  C   UNL     1       2.772   4.199  19.933  0.00  0.00    +0.000 C 
ENDROOT
BRANCH   1   2
ATOM      2  N   UNL     1       3.626   4.769  18.875  0.00  0.00    +0.000 N 
ATOM      3  C   UNL     1       4.947   4.393  18.777  0.00  0.00    +0.000 C 
ATOM      4  O   UNL     1       5.431   3.553  19.531  0.00  0.00    +0.000 OA
ATOM      5  H   UNL     1       3.340   5.632  18.418  0.00  0.00    +0.000 HD
BRANCH   3   6
ATOM      6  C   UNL     1       5.743   5.046  17.629  0.00  0.00    +0.000 C 
ATOM      7  N   UNL     1       6.856   4.172  17.131  0.00  0.00    +0.000 NA
ATOM      8  C   UNL     1       6.547   3.989  15.684  0.00  0.00    +0.000 C 
ATOM      9  C   UNL     1       6.798   5.319  14.951  0.00  0.00    +0.000 C 
ATOM     10  C   UNL     1       5.626   6.194  15.418  0.00  0.00    +0.000 C 
ATOM     11  C   UNL     1       4.874   5.252  16.375  0.00  0.00    +0.000 C 
ATOM     12  C   UNL     1       5.028   3.907  15.672  0.00  0.00    +0.000 C 
ATOM     13  H   UNL     1       6.807   3.259  17.580  0.00  0.00    +0.000 HD
ENDBRANCH   3   6
ENDBRANCH   1   2
BRANCH   1  15
ATOM     14  N   UNL     1       0.838   2.703  18.927  0.00  0.00    +0.000 NA
ATOM     15  C   UNL     1       1.679   3.379  19.375  0.00  0.00    +0.000 C 
ENDBRANCH   1  15
BRANCH   1  16
ATOM     16  C   UNL     1       2.227   5.338  20.809  0.00  0.00    +0.000 C 
BRANCH  16  17
ATOM     17  C   UNL     1       2.029   6.708  20.201  0.00  0.00    +0.000 A 
ATOM     18  C   UNL     1       2.333   7.004  18.870  0.00  0.00    +0.000 A 
ATOM     19  C   UNL     1       1.963   8.233  18.322  0.00  0.00    +0.000 A 
ATOM     20  C   UNL     1       1.279   9.190  19.083  0.00  0.00    +0.000 A 
ATOM     21  C   UNL     1       1.037   8.924  20.434  0.00  0.00    +0.000 A 
ATOM     22  C   UNL     1       1.403   7.693  20.981  0.00  0.00    +0.000 A 
BRANCH  20  23
ATOM     23  C   UNL     1       0.762  10.466  18.444  0.00  0.00    +0.000 C 
ATOM     24  C   UNL     1       1.264  11.703  19.207  0.00  0.00    +0.000 C 
ATOM     25  C   UNL     1       0.606  12.972  18.686  0.00  0.00    +0.000 C 
ATOM     26  O   UNL     1      -0.814  12.852  18.722  0.00  0.00    +0.000 OA
ATOM     27  C   UNL     1      -1.287  11.808  17.872  0.00  0.00    +0.000 C 
ATOM     28  C   UNL     1      -0.769  10.458  18.337  0.00  0.00    +0.000 C 
ENDBRANCH  20  23
ENDBRANCH  16  17
ENDBRANCH   1  16
TORSDOF 6
ENDMDL
MODEL 8
REMARK VINA RESULT:      -7.2      2.162      4.848
REMARK  Name = 
REMARK  6 active torsions:
REMARK  status: ('A' for Active; 'I' for Inactive)
REMARK    1  A    between atoms: C_2  and  C_3
REMARK    2  A    between atoms: C_3  and  C_4
REMARK    3  A    between atoms: C_3  and  N_17
REMARK    4  A    between atoms: C_4  and  C_5
REMARK    5  A    between atoms: C_8  and  C_9
REMARK    6  A    between atoms: C_18  and  C_20
REMARK                            x       y       z     vdW  Elec       q    Type
REMARK                         _______ _______ _______ _____ _____    ______ ____
ROOT
ATOM      1  C   UNL     1       3.950   5.739  16.920  0.00  0.00    +0.000 C 
ENDROOT
BRANCH   1   2
ATOM      2  N   UNL     1       3.486   4.856  18.005  0.00  0.00    +0.000 N 
ATOM      3  C   UNL     1       2.625   3.817  17.729  0.00  0.00    +0.000 C 
ATOM      4  O   UNL     1       2.259   3.577  16.581  0.00  0.00    +0.000 OA
ATOM      5  H   UNL     1       3.556   5.174  18.969  0.00  0.00    +0.000 HD
BRANCH   3   6
ATOM      6  C   UNL     1       2.213   2.953  18.938  0.00  0.00    +0.000 C 
ATOM      7  N   UNL     1       3.395   2.405  19.682  0.00  0.00    +0.000 NA
ATOM      8  C   UNL     1       3.218   2.928  21.067  0.00  0.00    +0.000 C 
ATOM      9  C   UNL     1       2.031   2.202  21.724  0.00  0.00    +0.000 C 
ATOM     10  C   UNL     1       0.819   2.806  21.000  0.00  0.00    +0.000 C 
ATOM     11  C   UNL     1       1.480   3.780  20.009  0.00  0.00    +0.000 C 
ATOM     12  C   UNL     1       2.646   4.317  20.833  0.00  0.00    +0.000 C 
ATOM     13  H   UNL     1       4.255   2.799  19.305  0.00  0.00    +0.000 HD
ENDBRANCH   3   6
ENDBRANCH   1   2
BRANCH   1  15
ATOM     14  N   UNL     1       6.277   4.929  15.963  0.00  0.00    +0.000 NA
ATOM     15  C   UNL     1       5.252   5.305  16.375  0.00  0.00    +0.000 C 
ENDBRANCH   1  15
BRANCH   1  16
ATOM     16  C   UNL     1       4.014   7.184  17.440  0.00  0.00    +0.000 C 
BRANCH  16  17
ATOM     17  C   UNL     1       2.865   7.728  18.258  0.00  0.00    +0.000 A 
ATOM     18  C   UNL     1       2.582   7.299  19.556  0.00  0.00    +0.000 A 
ATOM     19  C   UNL     1       1.621   7.963  20.321  0.00  0.00    +0.000 A 
ATOM     20  C   UNL     1       0.928   9.069  19.814  0.00  0.00    +0.000 A 
ATOM     21  C   UNL     1       1.158   9.455  18.490  0.00  0.00    +0.000 A 
ATOM     22  C   UNL     1       2.122   8.794  17.726  0.00  0.00    +0.000 A 
BRANCH  20  23
ATOM     23  C   UNL     1      -0.015   9.867  20.696  0.00  0.00    +0.000 C 
ATOM     24  C   UNL     1       0.372  11.356  20.706  0.00  0.00    +0.000 C 
ATOM     25  C   UNL     1      -0.450  12.128  21.726  0.00  0.00    +0.000 C 
ATOM     26  O   UNL     1      -0.340  11.531  23.015  0.00  0.00    +0.000 OA
ATOM     27  C   UNL     1      -0.863  10.204  23.040  0.00  0.00    +0.000 C 
ATOM     28  C   UNL     1      -0.068   9.294  22.119  0.00  0.00    +0.000 C 
ENDBRANCH  20  23
ENDBRANCH  16  17
ENDBRANCH   1  16
TORSDOF 6
ENDMDL
MODEL 9
REMARK VINA RESULT:      -7.2      2.387      4.613
REMARK  Name = 
REMARK  6 active torsions:
REMARK  status: ('A' for Active; 'I' for Inactive)
REMARK    1  A    between atoms: C_2  and  C_3
REMARK    2  A    between atoms: C_3  and  C_4
REMARK    3  A    between atoms: C_3  and  N_17
REMARK    4  A    between atoms: C_4  and  C_5
REMARK    5  A    between atoms: C_8  and  C_9
REMARK    6  A    between atoms: C_18  and  C_20
REMARK                            x       y       z     vdW  Elec       q    Type
REMARK                         _______ _______ _______ _____ _____    ______ ____
ROOT
ATOM      1  C   UNL     1       4.925   6.290  17.152  0.00  0.00    +0.000 C 
ENDROOT
BRANCH   1   2
ATOM      2  N   UNL     1       4.236   5.419  18.121  0.00  0.00    +0.000 N 
ATOM      3  C   UNL     1       4.085   4.075  17.857  0.00  0.00    +0.000 C 
ATOM      4  O   UNL     1       4.552   3.567  16.840  0.00  0.00    +0.000 OA
ATOM      5  H   UNL     1       3.628   5.838  18.821  0.00  0.00    +0.000 HD
BRANCH   3   6
ATOM      6  C   UNL     1       3.356   3.260  18.943  0.00  0.00    +0.000 C 
ATOM      7  N   UNL     1       3.237   4.006  20.239  0.00  0.00    +0.000 NA
ATOM      8  C   UNL     1       1.768   4.060  20.487  0.00  0.00    +0.000 C 
ATOM      9  C   UNL     1       1.274   2.650  20.854  0.00  0.00    +0.000 C 
ATOM     10  C   UNL     1       1.343   1.904  19.514  0.00  0.00    +0.000 C 
ATOM     11  C   UNL     1       1.890   2.983  18.565  0.00  0.00    +0.000 C 
ATOM     12  C   UNL     1       1.197   4.238  19.089  0.00  0.00    +0.000 C 
ATOM     13  H   UNL     1       3.571   4.961  20.121  0.00  0.00    +0.000 HD
ENDBRANCH   3   6
ENDBRANCH   1   2
BRANCH   1  15
ATOM     14  N   UNL     1       7.424   6.794  17.853  0.00  0.00    +0.000 NA
ATOM     15  C   UNL     1       6.314   6.578  17.563  0.00  0.00    +0.000 C 
ENDBRANCH   1  15
BRANCH   1  16
ATOM     16  C   UNL     1       4.115   7.583  16.972  0.00  0.00    +0.000 C 
BRANCH  16  17
ATOM     17  C   UNL     1       2.988   7.889  17.932  0.00  0.00    +0.000 A 
ATOM     18  C   UNL     1       2.899   7.329  19.208  0.00  0.00    +0.000 A 
ATOM     19  C   UNL     1       1.936   7.785  20.110  0.00  0.00    +0.000 A 
ATOM     20  C   UNL     1       1.047   8.811  19.765  0.00  0.00    +0.000 A 
ATOM     21  C   UNL     1       1.088   9.323  18.464  0.00  0.00    +0.000 A 
ATOM     22  C   UNL     1       2.054   8.870  17.564  0.00  0.00    +0.000 A 
BRANCH  20  23
ATOM     23  C   UNL     1       0.095   9.393  20.794  0.00  0.00    +0.000 C 
ATOM     24  C   UNL     1       0.037  10.926  20.680  0.00  0.00    +0.000 C 
ATOM     25  C   UNL     1      -0.770  11.529  21.820  0.00  0.00    +0.000 C 
ATOM     26  O   UNL     1      -0.259  11.098  23.079  0.00  0.00    +0.000 OA
ATOM     27  C   UNL     1      -0.369   9.686  23.248  0.00  0.00    +0.000 C 
ATOM     28  C   UNL     1       0.470   8.952  22.215  0.00  0.00    +0.000 C 
ENDBRANCH  20  23
ENDBRANCH  16  17
ENDBRANCH   1  16
TORSDOF 6
ENDMDL
