MODEL 1
REMARK VINA RESULT:      -6.7      0.000      0.000
REMARK  Name = 
REMARK  7 active torsions:
REMARK  status: ('A' for Active; 'I' for Inactive)
REMARK    1  A    between atoms: C_1  and  N_2
REMARK    2  A    between atoms: N_2  and  C_12
REMARK    3  A    between atoms: N_5  and  C_6
REMARK    4  A    between atoms: C_6  and  C_7
REMARK    5  A    between atoms: C_12  and  C_13
REMARK    6  A    between atoms: C_13  and  C_14
REMARK    7  A    between atoms: C_14  and  O_15
REMARK                            x       y       z     vdW  Elec       q    Type
REMARK                         _______ _______ _______ _____ _____    ______ ____
ROOT
ATOM      1  C   UNL     1       3.750   7.105  17.361  0.00  0.00    +0.000 C 
ATOM      2  N   UNL     1       4.440   5.808  17.424  0.00  0.00    +0.000 N 
ATOM      3  C   UNL     1       3.754   4.622  17.687  0.00  0.00    +0.000 C 
ATOM      4  O   UNL     1       4.313   3.546  17.911  0.00  0.00    +0.000 OA
ATOM      5  N   UNL     1       2.387   4.689  17.731  0.00  0.00    +0.000 N 
ATOM      6  H   UNL     1       1.945   5.308  17.072  0.00  0.00    +0.000 HD
ENDROOT
BRANCH   2   7
ATOM      7  C   UNL     1       5.977   5.837  17.451  0.00  0.00    +0.000 C 
ATOM      8  C   UNL     1       6.508   5.456  18.880  0.00  0.00    +0.000 C 
ATOM      9  C   UNL     1       7.986   5.770  19.115  0.00  0.00    +0.000 C 
ATOM     10  O   UNL     1       8.253   7.141  18.862  0.00  0.00    +0.000 OA
ATOM     11  C   UNL     1       7.981   7.492  17.514  0.00  0.00    +0.000 C 
ATOM     12  C   UNL     1       6.518   7.268  17.166  0.00  0.00    +0.000 C 
BRANCH   7  13
ATOM     13  C   UNL     1       6.530   4.775  16.442  0.00  0.00    +0.000 C 
BRANCH  13  14
ATOM     14  C   UNL     1       6.372   5.069  14.951  0.00  0.00    +0.000 C 
BRANCH  14  15
ATOM     15  O   UNL     1       7.661   5.360  14.403  0.00  0.00    +0.000 OA
ATOM     16  H   UNL     1       7.528   5.650  13.485  0.00  0.00    +0.000 HD
ENDBRANCH  14  15
ENDBRANCH  13  14
ENDBRANCH   7  13
ENDBRANCH   2   7
BRANCH   5  17
ATOM     17  C   UNL     1       1.655   3.460  17.971  0.00  0.00    +0.000 C 
BRANCH  17  18
ATOM     18  C   UNL     1       1.574   3.196  19.427  0.00  0.00    +0.000 A 
ATOM     19  C   UNL     1       0.992   3.871  20.481  0.00  0.00    +0.000 A 
ATOM     20  C   UNL     1       1.310   3.139  21.650  0.00  0.00    +0.000 A 
ATOM     21  C   UNL     1       2.062   2.066  21.236  0.00  0.00    +0.000 A 
ATOM     22  O   UNL     1       2.225   2.087  19.889  0.00  0.00    +0.000 OA
ENDBRANCH  17  18
ENDBRANCH   5  17
TORSDOF 6
ENDMDL
MODEL 2
REMARK VINA RESULT:      -6.7      2.090      6.773
REMARK  Name = 
REMARK  7 active torsions:
REMARK  status: ('A' for Active; 'I' for Inactive)
REMARK    1  A    between atoms: C_1  and  N_2
REMARK    2  A    between atoms: N_2  and  C_12
REMARK    3  A    between atoms: N_5  and  C_6
REMARK    4  A    between atoms: C_6  and  C_7
REMARK    5  A    between atoms: C_12  and  C_13
REMARK    6  A    between atoms: C_13  and  C_14
REMARK    7  A    between atoms: C_14  and  O_15
REMARK                            x       y       z     vdW  Elec       q    Type
REMARK                         _______ _______ _______ _____ _____    ______ ____
ROOT
ATOM      1  C   UNL     1       2.950   2.741  16.976  0.00  0.00    +0.000 C 
ATOM      2  N   UNL     1       3.634   3.686  17.871  0.00  0.00    +0.000 N 
ATOM      3  C   UNL     1       4.918   4.159  17.600  0.00  0.00    +0.000 C 
ATOM      4  O   UNL     1       5.586   4.817  18.400  0.00  0.00    +0.000 OA
ATOM      5  N   UNL     1       5.460   3.831  16.385  0.00  0.00    +0.000 N 
ATOM      6  H   UNL     1       4.828   3.813  15.601  0.00  0.00    +0.000 HD
ENDROOT
BRANCH   2   7
ATOM      7  C   UNL     1       2.992   3.930  19.247  0.00  0.00    +0.000 C 
ATOM      8  C   UNL     1       3.474   2.846  20.277  0.00  0.00    +0.000 C 
ATOM      9  C   UNL     1       2.659   2.789  21.570  0.00  0.00    +0.000 C 
ATOM     10  O   UNL     1       1.282   2.592  21.285  0.00  0.00    +0.000 OA
ATOM     11  C   UNL     1       0.743   3.660  20.522  0.00  0.00    +0.000 C 
ATOM     12  C   UNL     1       1.444   3.792  19.179  0.00  0.00    +0.000 C 
BRANCH   7  13
ATOM     13  C   UNL     1       3.446   5.329  19.785  0.00  0.00    +0.000 C 
BRANCH  13  14
ATOM     14  C   UNL     1       2.535   6.523  19.504  0.00  0.00    +0.000 C 
BRANCH  14  15
ATOM     15  O   UNL     1       1.993   6.986  20.743  0.00  0.00    +0.000 OA
ATOM     16  H   UNL     1       2.236   6.340  21.428  0.00  0.00    +0.000 HD
ENDBRANCH  14  15
ENDBRANCH  13  14
ENDBRANCH   7  13
ENDBRANCH   2   7
BRANCH   5  17
ATOM     17  C   UNL     1       6.780   4.341  16.072  0.00  0.00    +0.000 C 
BRANCH  17  18
ATOM     18  C   UNL     1       6.936   4.472  14.604  0.00  0.00    +0.000 A 
ATOM     19  C   UNL     1       6.347   3.837  13.528  0.00  0.00    +0.000 A 
ATOM     20  C   UNL     1       6.960   4.365  12.367  0.00  0.00    +0.000 A 
ATOM     21  C   UNL     1       7.880   5.288  12.806  0.00  0.00    +0.000 A 
ATOM     22  O   UNL     1       7.870   5.366  14.161  0.00  0.00    +0.000 OA
ENDBRANCH  17  18
ENDBRANCH   5  17
TORSDOF 6
ENDMDL
MODEL 3
REMARK VINA RESULT:      -6.6      1.894      6.392
REMARK  Name = 
REMARK  7 active torsions:
REMARK  status: ('A' for Active; 'I' for Inactive)
REMARK    1  A    between atoms: C_1  and  N_2
REMARK    2  A    between atoms: N_2  and  C_12
REMARK    3  A    between atoms: N_5  and  C_6
REMARK    4  A    between atoms: C_6  and  C_7
REMARK    5  A    between atoms: C_12  and  C_13
REMARK    6  A    between atoms: C_13  and  C_14
REMARK    7  A    between atoms: C_14  and  O_15
REMARK                            x       y       z     vdW  Elec       q    Type
REMARK                         _______ _______ _______ _____ _____    ______ ____
ROOT
ATOM      1  C   UNL     1       3.631   6.862  17.709  0.00  0.00    +0.000 C 
ATOM      2  N   UNL     1       4.063   5.497  18.045  0.00  0.00    +0.000 N 
ATOM      3  C   UNL     1       5.217   4.935  17.498  0.00  0.00    +0.000 C 
ATOM      4  O   UNL     1       5.522   3.747  17.624  0.00  0.00    +0.000 OA
ATOM      5  N   UNL     1       6.019   5.758  16.754  0.00  0.00    +0.000 N 
ATOM      6  H   UNL     1       6.109   6.709  17.074  0.00  0.00    +0.000 HD
ENDROOT
BRANCH   2   7
ATOM      7  C   UNL     1       3.061   4.619  18.814  0.00  0.00    +0.000 C 
ATOM      8  C   UNL     1       2.124   5.509  19.707  0.00  0.00    +0.000 C 
ATOM      9  C   UNL     1       1.321   4.736  20.753  0.00  0.00    +0.000 C 
ATOM     10  O   UNL     1       2.183   3.976  21.586  0.00  0.00    +0.000 OA
ATOM     11  C   UNL     1       2.910   3.007  20.847  0.00  0.00    +0.000 C 
ATOM     12  C   UNL     1       3.793   3.658  19.794  0.00  0.00    +0.000 C 
BRANCH   7  13
ATOM     13  C   UNL     1       2.155   3.855  17.790  0.00  0.00    +0.000 C 
BRANCH  13  14
ATOM     14  C   UNL     1       2.320   2.339  17.695  0.00  0.00    +0.000 C 
BRANCH  14  15
ATOM     15  O   UNL     1       1.126   1.719  18.178  0.00  0.00    +0.000 OA
ATOM     16  H   UNL     1       1.356   1.236  18.990  0.00  0.00    +0.000 HD
ENDBRANCH  14  15
ENDBRANCH  13  14
ENDBRANCH   7  13
ENDBRANCH   2   7
BRANCH   5  17
ATOM     17  C   UNL     1       7.239   5.200  16.204  0.00  0.00    +0.000 C 
BRANCH  17  18
ATOM     18  C   UNL     1       7.031   4.828  14.785  0.00  0.00    +0.000 A 
ATOM     19  C   UNL     1       6.197   3.925  14.156  0.00  0.00    +0.000 A 
ATOM     20  C   UNL     1       6.507   3.988  12.776  0.00  0.00    +0.000 A 
ATOM     21  C   UNL     1       7.507   4.925  12.651  0.00  0.00    +0.000 A 
ATOM     22  O   UNL     1       7.829   5.444  13.863  0.00  0.00    +0.000 OA
ENDBRANCH  17  18
ENDBRANCH   5  17
TORSDOF 6
ENDMDL
MODEL 4
REMARK VINA RESULT:      -6.4      2.171      6.722
REMARK  Name = 
REMARK  7 active torsions:
REMARK  status: ('A' for Active; 'I' for Inactive)
REMARK    1  A    between atoms: C_1  and  N_2
REMARK    2  A    between atoms: N_2  and  C_12
REMARK    3  A    between atoms: N_5  and  C_6
REMARK    4  A    between atoms: C_6  and  C_7
REMARK    5  A    between atoms: C_12  and  C_13
REMARK    6  A    between atoms: C_13  and  C_14
REMARK    7  A    between atoms: C_14  and  O_15
REMARK                            x       y       z     vdW  Elec       q    Type
REMARK                         _______ _______ _______ _____ _____    ______ ____
ROOT
ATOM      1  C   UNL     1       2.972   3.005  16.747  0.00  0.00    +0.000 C 
ATOM      2  N   UNL     1       3.706   3.848  17.702  0.00  0.00    +0.000 N 
ATOM      3  C   UNL     1       4.974   4.353  17.413  0.00  0.00    +0.000 C 
ATOM      4  O   UNL     1       5.687   4.922  18.242  0.00  0.00    +0.000 OA
ATOM      5  N   UNL     1       5.447   4.162  16.142  0.00  0.00    +0.000 N 
ATOM      6  H   UNL     1       4.773   4.229  15.396  0.00  0.00    +0.000 HD
ENDROOT
BRANCH   2   7
ATOM      7  C   UNL     1       3.143   3.938  19.130  0.00  0.00    +0.000 C 
ATOM      8  C   UNL     1       1.843   3.066  19.263  0.00  0.00    +0.000 C 
ATOM      9  C   UNL     1       1.021   3.336  20.523  0.00  0.00    +0.000 C 
ATOM     10  O   UNL     1       0.678   4.711  20.612  0.00  0.00    +0.000 OA
ATOM     11  C   UNL     1       1.829   5.536  20.704  0.00  0.00    +0.000 C 
ATOM     12  C   UNL     1       2.714   5.393  19.475  0.00  0.00    +0.000 C 
BRANCH   7  13
ATOM     13  C   UNL     1       4.199   3.370  20.136  0.00  0.00    +0.000 C 
BRANCH  13  14
ATOM     14  C   UNL     1       4.471   1.867  20.101  0.00  0.00    +0.000 C 
BRANCH  14  15
ATOM     15  O   UNL     1       5.362   1.538  21.169  0.00  0.00    +0.000 OA
ATOM     16  H   UNL     1       5.107   2.076  21.938  0.00  0.00    +0.000 HD
ENDBRANCH  14  15
ENDBRANCH  13  14
ENDBRANCH   7  13
ENDBRANCH   2   7
BRANCH   5  17
ATOM     17  C   UNL     1       6.749   4.708  15.813  0.00  0.00    +0.000 C 
BRANCH  17  18
ATOM     18  C   UNL     1       6.956   4.675  14.346  0.00  0.00    +0.000 A 
ATOM     19  C   UNL     1       6.416   3.911  13.330  0.00  0.00    +0.000 A 
ATOM     20  C   UNL     1       7.062   4.316  12.138  0.00  0.00    +0.000 A 
ATOM     21  C   UNL     1       7.951   5.301  12.500  0.00  0.00    +0.000 A 
ATOM     22  O   UNL     1       7.891   5.531  13.837  0.00  0.00    +0.000 OA
ENDBRANCH  17  18
ENDBRANCH   5  17
TORSDOF 6
ENDMDL
MODEL 5
REMARK VINA RESULT:      -6.4      3.258      4.839
REMARK  Name = 
REMARK  7 active torsions:
REMARK  status: ('A' for Active; 'I' for Inactive)
REMARK    1  A    between atoms: C_1  and  N_2
REMARK    2  A    between atoms: N_2  and  C_12
REMARK    3  A    between atoms: N_5  and  C_6
REMARK    4  A    between atoms: C_6  and  C_7
REMARK    5  A    between atoms: C_12  and  C_13
REMARK    6  A    between atoms: C_13  and  C_14
REMARK    7  A    between atoms: C_14  and  O_15
REMARK                            x       y       z     vdW  Elec       q    Type
REMARK                         _______ _______ _______ _____ _____    ______ ____
ROOT
ATOM      1  C   UNL     1       2.034   4.663  18.016  0.00  0.00    +0.000 C 
ATOM      2  N   UNL     1       3.304   5.390  17.880  0.00  0.00    +0.000 N 
ATOM      3  C   UNL     1       3.348   6.780  17.762  0.00  0.00    +0.000 C 
ATOM      4  O   UNL     1       4.371   7.409  17.484  0.00  0.00    +0.000 OA
ATOM      5  N   UNL     1       2.171   7.458  17.933  0.00  0.00    +0.000 N 
ATOM      6  H   UNL     1       1.544   7.101  18.637  0.00  0.00    +0.000 HD
ENDROOT
BRANCH   2   7
ATOM      7  C   UNL     1       4.563   4.549  17.610  0.00  0.00    +0.000 C 
ATOM      8  C   UNL     1       5.799   5.150  18.371  0.00  0.00    +0.000 C 
ATOM      9  C   UNL     1       7.153   4.602  17.920  0.00  0.00    +0.000 C 
ATOM     10  O   UNL     1       7.325   4.783  16.522  0.00  0.00    +0.000 OA
ATOM     11  C   UNL     1       6.344   4.082  15.775  0.00  0.00    +0.000 C 
ATOM     12  C   UNL     1       4.942   4.573  16.101  0.00  0.00    +0.000 C 
BRANCH   7  13
ATOM     13  C   UNL     1       4.336   3.096  18.147  0.00  0.00    +0.000 C 
BRANCH  13  14
ATOM     14  C   UNL     1       4.427   2.879  19.657  0.00  0.00    +0.000 C 
BRANCH  14  15
ATOM     15  O   UNL     1       5.207   1.707  19.904  0.00  0.00    +0.000 OA
ATOM     16  H   UNL     1       4.704   0.946  19.569  0.00  0.00    +0.000 HD
ENDBRANCH  14  15
ENDBRANCH  13  14
ENDBRANCH   7  13
ENDBRANCH   2   7
BRANCH   5  17
ATOM     17  C   UNL     1       2.202   8.904  17.847  0.00  0.00    +0.000 C 
BRANCH  17  18
ATOM     18  C   UNL     1       1.211   9.489  18.780  0.00  0.00    +0.000 A 
ATOM     19  C   UNL     1       0.255  10.477  18.650  0.00  0.00    +0.000 A 
ATOM     20  C   UNL     1      -0.344  10.625  19.923  0.00  0.00    +0.000 A 
ATOM     21  C   UNL     1       0.280   9.719  20.748  0.00  0.00    +0.000 A 
ATOM     22  O   UNL     1       1.222   9.021  20.064  0.00  0.00    +0.000 OA
ENDBRANCH  17  18
ENDBRANCH   5  17
TORSDOF 6
ENDMDL
MODEL 6
REMARK VINA RESULT:      -6.3      1.885      6.602
REMARK  Name = 
REMARK  7 active torsions:
REMARK  status: ('A' for Active; 'I' for Inactive)
REMARK    1  A    between atoms: C_1  and  N_2
REMARK    2  A    between atoms: N_2  and  C_12
REMARK    3  A    between atoms: N_5  and  C_6
REMARK    4  A    between atoms: C_6  and  C_7
REMARK    5  A    between atoms: C_12  and  C_13
REMARK    6  A    between atoms: C_13  and  C_14
REMARK    7  A    between atoms: C_14  and  O_15
REMARK                            x       y       z     vdW  Elec       q    Type
REMARK                         _______ _______ _______ _____ _____    ______ ____
ROOT
ATOM      1  C   UNL     1       3.563   6.912  17.716  0.00  0.00    +0.000 C 
ATOM      2  N   UNL     1       3.827   5.509  18.066  0.00  0.00    +0.000 N 
ATOM      3  C   UNL     1       4.944   4.828  17.580  0.00  0.00    +0.000 C 
ATOM      4  O   UNL     1       5.115   3.614  17.714  0.00  0.00    +0.000 OA
ATOM      5  N   UNL     1       5.871   5.563  16.890  0.00  0.00    +0.000 N 
ATOM      6  H   UNL     1       6.043   6.498  17.222  0.00  0.00    +0.000 HD
ENDROOT
BRANCH   2   7
ATOM      7  C   UNL     1       2.696   4.741  18.769  0.00  0.00    +0.000 C 
ATOM      8  C   UNL     1       3.268   3.889  19.958  0.00  0.00    +0.000 C 
ATOM      9  C   UNL     1       2.303   2.841  20.513  0.00  0.00    +0.000 C 
ATOM     10  O   UNL     1       1.860   1.973  19.481  0.00  0.00    +0.000 OA
ATOM     11  C   UNL     1       1.149   2.672  18.472  0.00  0.00    +0.000 C 
ATOM     12  C   UNL     1       2.023   3.722  17.803  0.00  0.00    +0.000 C 
BRANCH   7  13
ATOM     13  C   UNL     1       1.673   5.764  19.367  0.00  0.00    +0.000 C 
BRANCH  13  14
ATOM     14  C   UNL     1       1.850   6.166  20.830  0.00  0.00    +0.000 C 
BRANCH  14  15
ATOM     15  O   UNL     1       1.964   7.589  20.903  0.00  0.00    +0.000 OA
ATOM     16  H   UNL     1       2.361   7.893  20.070  0.00  0.00    +0.000 HD
ENDBRANCH  14  15
ENDBRANCH  13  14
ENDBRANCH   7  13
ENDBRANCH   2   7
BRANCH   5  17
ATOM     17  C   UNL     1       7.055   4.879  16.406  0.00  0.00    +0.000 C 
BRANCH  17  18
ATOM     18  C   UNL     1       6.958   4.675  14.942  0.00  0.00    +0.000 A 
ATOM     19  C   UNL     1       6.193   3.841  14.151  0.00  0.00    +0.000 A 
ATOM     20  C   UNL     1       6.600   4.072  12.815  0.00  0.00    +0.000 A 
ATOM     21  C   UNL     1       7.584   5.031  12.875  0.00  0.00    +0.000 A 
ATOM     22  O   UNL     1       7.806   5.408  14.160  0.00  0.00    +0.000 OA
ENDBRANCH  17  18
ENDBRANCH   5  17
TORSDOF 6
ENDMDL
MODEL 7
REMARK VINA RESULT:      -6.3      1.725      6.218
REMARK  Name = 
REMARK  7 active torsions:
REMARK  status: ('A' for Active; 'I' for Inactive)
REMARK    1  A    between atoms: C_1  and  N_2
REMARK    2  A    between atoms: N_2  and  C_12
REMARK    3  A    between atoms: N_5  and  C_6
REMARK    4  A    between atoms: C_6  and  C_7
REMARK    5  A    between atoms: C_12  and  C_13
REMARK    6  A    between atoms: C_13  and  C_14
REMARK    7  A    between atoms: C_14  and  O_15
REMARK                            x       y       z     vdW  Elec       q    Type
REMARK                         _______ _______ _______ _____ _____    ______ ____
ROOT
ATOM      1  C   UNL     1       2.535   6.124  18.115  0.00  0.00    +0.000 C 
ATOM      2  N   UNL     1       3.424   5.025  18.518  0.00  0.00    +0.000 N 
ATOM      3  C   UNL     1       4.721   4.908  18.019  0.00  0.00    +0.000 C 
ATOM      4  O   UNL     1       5.436   3.920  18.202  0.00  0.00    +0.000 OA
ATOM      5  N   UNL     1       5.192   5.944  17.257  0.00  0.00    +0.000 N 
ATOM      6  H   UNL     1       4.917   6.871  17.539  0.00  0.00    +0.000 HD
ENDROOT
BRANCH   2   7
ATOM      7  C   UNL     1       2.787   3.866  19.302  0.00  0.00    +0.000 C 
ATOM      8  C   UNL     1       1.492   4.352  20.047  0.00  0.00    +0.000 C 
ATOM      9  C   UNL     1       0.968   3.386  21.109  0.00  0.00    +0.000 C 
ATOM     10  O   UNL     1       1.979   3.094  22.062  0.00  0.00    +0.000 OA
ATOM     11  C   UNL     1       3.098   2.458  21.465  0.00  0.00    +0.000 C 
ATOM     12  C   UNL     1       3.745   3.345  20.413  0.00  0.00    +0.000 C 
BRANCH   7  13
ATOM     13  C   UNL     1       2.363   2.739  18.301  0.00  0.00    +0.000 C 
BRANCH  13  14
ATOM     14  C   UNL     1       3.083   1.396  18.403  0.00  0.00    +0.000 C 
BRANCH  14  15
ATOM     15  O   UNL     1       4.255   1.442  17.585  0.00  0.00    +0.000 OA
ATOM     16  H   UNL     1       4.974   1.806  18.128  0.00  0.00    +0.000 HD
ENDBRANCH  14  15
ENDBRANCH  13  14
ENDBRANCH   7  13
ENDBRANCH   2   7
BRANCH   5  17
ATOM     17  C   UNL     1       6.550   5.856  16.757  0.00  0.00    +0.000 C 
BRANCH  17  18
ATOM     18  C   UNL     1       6.556   5.225  15.416  0.00  0.00    +0.000 A 
ATOM     19  C   UNL     1       5.699   4.351  14.778  0.00  0.00    +0.000 A 
ATOM     20  C   UNL     1       6.281   4.067  13.520  0.00  0.00    +0.000 A 
ATOM     21  C   UNL     1       7.452   4.787  13.469  0.00  0.00    +0.000 A 
ATOM     22  O   UNL     1       7.626   5.497  14.612  0.00  0.00    +0.000 OA
ENDBRANCH  17  18
ENDBRANCH   5  17
TORSDOF 6
ENDMDL
MODEL 8
REMARK VINA RESULT:      -6.3      2.145      6.589
REMARK  Name = 
REMARK  7 active torsions:
REMARK  status: ('A' for Active; 'I' for Inactive)
REMARK    1  A    between atoms: C_1  and  N_2
REMARK    2  A    between atoms: N_2  and  C_12
REMARK    3  A    between atoms: N_5  and  C_6
REMARK    4  A    between atoms: C_6  and  C_7
REMARK    5  A    between atoms: C_12  and  C_13
REMARK    6  A    between atoms: C_13  and  C_14
REMARK    7  A    between atoms: C_14  and  O_15
REMARK                            x       y       z     vdW  Elec       q    Type
REMARK                         _______ _______ _______ _____ _____    ______ ____
ROOT
ATOM      1  C   UNL     1       3.958   2.027  17.688  0.00  0.00    +0.000 C 
ATOM      2  N   UNL     1       3.881   3.491  17.794  0.00  0.00    +0.000 N 
ATOM      3  C   UNL     1       4.911   4.316  17.340  0.00  0.00    +0.000 C 
ATOM      4  O   UNL     1       4.958   5.529  17.557  0.00  0.00    +0.000 OA
ATOM      5  N   UNL     1       5.931   3.719  16.649  0.00  0.00    +0.000 N 
ATOM      6  H   UNL     1       5.676   2.964  16.033  0.00  0.00    +0.000 HD
ENDROOT
BRANCH   2   7
ATOM      7  C   UNL     1       2.748   4.069  18.658  0.00  0.00    +0.000 C 
ATOM      8  C   UNL     1       3.279   4.427  20.092  0.00  0.00    +0.000 C 
ATOM      9  C   UNL     1       2.186   4.694  21.127  0.00  0.00    +0.000 C 
ATOM     10  O   UNL     1       1.299   3.590  21.215  0.00  0.00    +0.000 OA
ATOM     11  C   UNL     1       0.632   3.350  19.986  0.00  0.00    +0.000 C 
ATOM     12  C   UNL     1       1.616   3.023  18.874  0.00  0.00    +0.000 C 
BRANCH   7  13
ATOM     13  C   UNL     1       2.224   5.391  18.002  0.00  0.00    +0.000 C 
BRANCH  13  14
ATOM     14  C   UNL     1       2.485   6.699  18.746  0.00  0.00    +0.000 C 
BRANCH  14  15
ATOM     15  O   UNL     1       2.922   7.681  17.803  0.00  0.00    +0.000 OA
ATOM     16  H   UNL     1       3.630   7.281  17.272  0.00  0.00    +0.000 HD
ENDBRANCH  14  15
ENDBRANCH  13  14
ENDBRANCH   7  13
ENDBRANCH   2   7
BRANCH   5  17
ATOM     17  C   UNL     1       6.993   4.564  16.142  0.00  0.00    +0.000 C 
BRANCH  17  18
ATOM     18  C   UNL     1       6.983   4.554  14.660  0.00  0.00    +0.000 A 
ATOM     19  C   UNL     1       6.268   3.836  13.722  0.00  0.00    +0.000 A 
ATOM     20  C   UNL     1       6.752   4.238  12.455  0.00  0.00    +0.000 A 
ATOM     21  C   UNL     1       7.728   5.176  12.698  0.00  0.00    +0.000 A 
ATOM     22  O   UNL     1       7.873   5.380  14.032  0.00  0.00    +0.000 OA
ENDBRANCH  17  18
ENDBRANCH   5  17
TORSDOF 6
ENDMDL
MODEL 9
REMARK VINA RESULT:      -6.2      1.990      6.380
REMARK  Name = 
REMARK  7 active torsions:
REMARK  status: ('A' for Active; 'I' for Inactive)
REMARK    1  A    between atoms: C_1  and  N_2
REMARK    2  A    between atoms: N_2  and  C_12
REMARK    3  A    between atoms: N_5  and  C_6
REMARK    4  A    between atoms: C_6  and  C_7
REMARK    5  A    between atoms: C_12  and  C_13
REMARK    6  A    between atoms: C_13  and  C_14
REMARK    7  A    between atoms: C_14  and  O_15
REMARK                            x       y       z     vdW  Elec       q    Type
REMARK                         _______ _______ _______ _____ _____    ______ ____
ROOT
ATOM      1  C   UNL     1       3.321   3.601  16.943  0.00  0.00    +0.000 C 
ATOM      2  N   UNL     1       3.864   4.095  18.217  0.00  0.00    +0.000 N 
ATOM      3  C   UNL     1       5.230   4.313  18.400  0.00  0.00    +0.000 C 
ATOM      4  O   UNL     1       5.740   4.566  19.493  0.00  0.00    +0.000 OA
ATOM      5  N   UNL     1       6.033   4.197  17.296  0.00  0.00    +0.000 N 
ATOM      6  H   UNL     1       5.652   4.532  16.426  0.00  0.00    +0.000 HD
ENDROOT
BRANCH   2   7
ATOM      7  C   UNL     1       2.908   4.112  19.422  0.00  0.00    +0.000 C 
ATOM      8  C   UNL     1       3.385   3.090  20.515  0.00  0.00    +0.000 C 
ATOM      9  C   UNL     1       2.348   2.782  21.595  0.00  0.00    +0.000 C 
ATOM     10  O   UNL     1       1.139   2.319  21.011  0.00  0.00    +0.000 OA
ATOM     11  C   UNL     1       0.554   3.297  20.165  0.00  0.00    +0.000 C 
ATOM     12  C   UNL     1       1.478   3.658  19.011  0.00  0.00    +0.000 C 
BRANCH   7  13
ATOM     13  C   UNL     1       2.921   5.538  20.069  0.00  0.00    +0.000 C 
BRANCH  13  14
ATOM     14  C   UNL     1       2.593   6.726  19.166  0.00  0.00    +0.000 C 
BRANCH  14  15
ATOM     15  O   UNL     1       2.003   7.756  19.963  0.00  0.00    +0.000 OA
ATOM     16  H   UNL     1       2.239   8.608  19.559  0.00  0.00    +0.000 HD
ENDBRANCH  14  15
ENDBRANCH  13  14
ENDBRANCH   7  13
ENDBRANCH   2   7
BRANCH   5  17
ATOM     17  C   UNL     1       7.450   4.452  17.459  0.00  0.00    +0.000 C 
BRANCH  17  18
ATOM     18  C   UNL     1       7.680   5.896  17.703  0.00  0.00    +0.000 A 
ATOM     19  C   UNL     1       8.221   6.603  18.758  0.00  0.00    +0.000 A 
ATOM     20  C   UNL     1       8.113   7.973  18.419  0.00  0.00    +0.000 A 
ATOM     21  C   UNL     1       7.518   8.014  17.180  0.00  0.00    +0.000 A 
ATOM     22  O   UNL     1       7.255   6.760  16.734  0.00  0.00    +0.000 OA
ENDBRANCH  17  18
ENDBRANCH   5  17
TORSDOF 6
ENDMDL
