MODEL 1
REMARK VINA RESULT:      -8.4      0.000      0.000
REMARK  Name = 
REMARK  7 active torsions:
REMARK  status: ('A' for Active; 'I' for Inactive)
REMARK    1  A    between atoms: C_1  and  C_2
REMARK    2  A    between atoms: C_2  and  C_3
REMARK    3  A    between atoms: C_3  and  C_4
REMARK    4  A    between atoms: C_4  and  C_6
REMARK    5  A    between atoms: C_9  and  N_10
REMARK    6  A    between atoms: N_10  and  C_11
REMARK    7  A    between atoms: C_13  and  C_14
REMARK                            x       y       z     vdW  Elec       q    Type
REMARK                         _______ _______ _______ _____ _____    ______ ____
ROOT
ATOM      1  C   UNL     1       6.671   6.610  17.242  0.00  0.00    +0.000 A 
ATOM      2  C   UNL     1       7.712   6.815  18.140  0.00  0.00    +0.000 A 
ATOM      3  C   UNL     1       7.886   5.728  18.956  0.00  0.00    +0.000 A 
ATOM      4  C   UNL     1       8.423   4.412  18.396  0.00  0.00    +0.000 C 
ATOM      5  N   UNL     1       6.868   5.422  19.729  0.00  0.00    +0.000 NA
ATOM      6  C   UNL     1       5.764   5.230  19.038  0.00  0.00    +0.000 A 
ATOM      7  C   UNL     1       5.016   4.187  19.572  0.00  0.00    +0.000 A 
ATOM      8  C   UNL     1       3.746   3.876  19.147  0.00  0.00    +0.000 A 
ATOM      9  C   UNL     1       3.167   5.037  18.653  0.00  0.00    +0.000 A 
ATOM     10  N   UNL     1       1.897   5.456  18.958  0.00  0.00    +0.000 NA
ATOM     11  C   UNL     1       2.015   6.755  19.020  0.00  0.00    +0.000 A 
ATOM     12  N   UNL     1       3.167   7.188  18.390  0.00  0.00    +0.000 N 
ATOM     13  C   UNL     1       3.978   6.078  18.098  0.00  0.00    +0.000 A 
ATOM     14  C   UNL     1       5.448   5.917  17.848  0.00  0.00    +0.000 A 
ATOM     15  H   UNL     1       3.489   8.138  18.464  0.00  0.00    +0.000 HD
ENDROOT
BRANCH   1  16
ATOM     16  N   UNL     1       7.293   6.147  15.874  0.00  0.00    +0.000 N 
ATOM     17  H   UNL     1       8.302   6.126  15.940  0.00  0.00    +0.000 HD
BRANCH  16  21
ATOM     18  C   UNL     1       5.717   3.458  12.658  0.00  0.00    +0.000 A 
ATOM     19  C   UNL     1       6.971   4.047  12.575  0.00  0.00    +0.000 A 
ATOM     20  C   UNL     1       7.464   4.940  13.591  0.00  0.00    +0.000 A 
ATOM     21  C   UNL     1       6.768   5.301  14.768  0.00  0.00    +0.000 A 
ATOM     22  C   UNL     1       5.536   4.623  14.876  0.00  0.00    +0.000 A 
ATOM     23  C   UNL     1       5.012   3.737  13.842  0.00  0.00    +0.000 A 
BRANCH  18  24
ATOM     24  C   UNL     1       5.129   2.556  11.549  0.00  0.00    +0.000 C 
ATOM     25  O   UNL     1       5.765   1.558  11.209  0.00  0.00    +0.000 OA
BRANCH  24  26
ATOM     26  C   UNL     1       3.770   2.920  10.905  0.00  0.00    +0.000 C 
BRANCH  26  28
ATOM     27  C   UNL     1       2.430   4.461   9.248  0.00  0.00    +0.000 C 
ATOM     28  C   UNL     1       3.620   4.288  10.198  0.00  0.00    +0.000 C 
ENDBRANCH  26  28
ENDBRANCH  24  26
ENDBRANCH  18  24
ENDBRANCH  16  21
ENDBRANCH   1  16
TORSDOF 5
ENDMDL
MODEL 2
REMARK VINA RESULT:      -8.0      5.100      8.267
REMARK  Name = 
REMARK  7 active torsions:
REMARK  status: ('A' for Active; 'I' for Inactive)
REMARK    1  A    between atoms: C_1  and  C_2
REMARK    2  A    between atoms: C_2  and  C_3
REMARK    3  A    between atoms: C_3  and  C_4
REMARK    4  A    between atoms: C_4  and  C_6
REMARK    5  A    between atoms: C_9  and  N_10
REMARK    6  A    between atoms: N_10  and  C_11
REMARK    7  A    between atoms: C_13  and  C_14
REMARK                            x       y       z     vdW  Elec       q    Type
REMARK                         _______ _______ _______ _____ _____    ______ ____
ROOT
ATOM      1  C   UNL     1       0.779  10.066  18.459  0.00  0.00    +0.000 A 
ATOM      2  C   UNL     1       1.723  11.086  18.488  0.00  0.00    +0.000 A 
ATOM      3  C   UNL     1       1.300  12.132  19.266  0.00  0.00    +0.000 A 
ATOM      4  C   UNL     1       1.190  11.981  20.782  0.00  0.00    +0.000 C 
ATOM      5  N   UNL     1       0.204  12.738  18.866  0.00  0.00    +0.000 NA
ATOM      6  C   UNL     1      -0.803  11.901  18.739  0.00  0.00    +0.000 A 
ATOM      7  C   UNL     1      -1.994  12.487  19.154  0.00  0.00    +0.000 A 
ATOM      8  C   UNL     1      -3.224  11.897  18.983  0.00  0.00    +0.000 A 
ATOM      9  C   UNL     1      -3.145  11.065  17.875  0.00  0.00    +0.000 A 
ATOM     10  N   UNL     1      -4.084  11.019  16.876  0.00  0.00    +0.000 NA
ATOM     11  C   UNL     1      -3.369  10.825  15.800  0.00  0.00    +0.000 A 
ATOM     12  N   UNL     1      -2.107  10.356  16.111  0.00  0.00    +0.000 N 
ATOM     13  C   UNL     1      -1.899  10.471  17.495  0.00  0.00    +0.000 A 
ATOM     14  C   UNL     1      -0.667  10.554  18.347  0.00  0.00    +0.000 A 
ATOM     15  H   UNL     1      -1.379  10.288  15.419  0.00  0.00    +0.000 HD
ENDROOT
BRANCH   1  16
ATOM     16  N   UNL     1       1.208   8.976  19.509  0.00  0.00    +0.000 N 
ATOM     17  H   UNL     1       0.536   8.937  20.263  0.00  0.00    +0.000 HD
BRANCH  16  21
ATOM     18  C   UNL     1       3.550   5.191  19.015  0.00  0.00    +0.000 A 
ATOM     19  C   UNL     1       2.754   5.423  20.128  0.00  0.00    +0.000 A 
ATOM     20  C   UNL     1       2.029   6.655  20.305  0.00  0.00    +0.000 A 
ATOM     21  C   UNL     1       2.020   7.735  19.392  0.00  0.00    +0.000 A 
ATOM     22  C   UNL     1       2.761   7.443  18.228  0.00  0.00    +0.000 A 
ATOM     23  C   UNL     1       3.523   6.212  18.047  0.00  0.00    +0.000 A 
BRANCH  18  24
ATOM     24  C   UNL     1       4.399   3.913  18.830  0.00  0.00    +0.000 C 
ATOM     25  O   UNL     1       5.608   3.977  19.053  0.00  0.00    +0.000 OA
BRANCH  24  26
ATOM     26  C   UNL     1       3.717   2.599  18.381  0.00  0.00    +0.000 C 
BRANCH  26  28
ATOM     27  C   UNL     1       1.105   2.419  18.624  0.00  0.00    +0.000 C 
ATOM     28  C   UNL     1       2.318   2.668  17.722  0.00  0.00    +0.000 C 
ENDBRANCH  26  28
ENDBRANCH  24  26
ENDBRANCH  18  24
ENDBRANCH  16  21
ENDBRANCH   1  16
TORSDOF 5
ENDMDL
MODEL 3
REMARK VINA RESULT:      -7.9      4.948      7.963
REMARK  Name = 
REMARK  7 active torsions:
REMARK  status: ('A' for Active; 'I' for Inactive)
REMARK    1  A    between atoms: C_1  and  C_2
REMARK    2  A    between atoms: C_2  and  C_3
REMARK    3  A    between atoms: C_3  and  C_4
REMARK    4  A    between atoms: C_4  and  C_6
REMARK    5  A    between atoms: C_9  and  N_10
REMARK    6  A    between atoms: N_10  and  C_11
REMARK    7  A    between atoms: C_13  and  C_14
REMARK                            x       y       z     vdW  Elec       q    Type
REMARK                         _______ _______ _______ _____ _____    ______ ____
ROOT
ATOM      1  C   UNL     1       0.699  10.073  18.228  0.00  0.00    +0.000 A 
ATOM      2  C   UNL     1       1.616  11.107  18.374  0.00  0.00    +0.000 A 
ATOM      3  C   UNL     1       1.171  12.042  19.272  0.00  0.00    +0.000 A 
ATOM      4  C   UNL     1       1.077  11.709  20.761  0.00  0.00    +0.000 C 
ATOM      5  N   UNL     1       0.057  12.661  18.952  0.00  0.00    +0.000 NA
ATOM      6  C   UNL     1      -0.929  11.817  18.732  0.00  0.00    +0.000 A 
ATOM      7  C   UNL     1      -2.132  12.318  19.219  0.00  0.00    +0.000 A 
ATOM      8  C   UNL     1      -3.347  11.719  18.984  0.00  0.00    +0.000 A 
ATOM      9  C   UNL     1      -3.255  11.026  17.786  0.00  0.00    +0.000 A 
ATOM     10  N   UNL     1      -4.200  11.073  16.792  0.00  0.00    +0.000 NA
ATOM     11  C   UNL     1      -3.489  11.027  15.698  0.00  0.00    +0.000 A 
ATOM     12  N   UNL     1      -2.212  10.560  15.944  0.00  0.00    +0.000 N 
ATOM     13  C   UNL     1      -1.996  10.515  17.332  0.00  0.00    +0.000 A 
ATOM     14  C   UNL     1      -0.760  10.530  18.182  0.00  0.00    +0.000 A 
ATOM     15  H   UNL     1      -1.488  10.594  15.246  0.00  0.00    +0.000 HD
ENDROOT
BRANCH   1  16
ATOM     16  N   UNL     1       1.165   8.878  19.140  0.00  0.00    +0.000 N 
ATOM     17  H   UNL     1       0.404   8.576  19.732  0.00  0.00    +0.000 HD
BRANCH  16  21
ATOM     18  C   UNL     1       4.243   5.692  18.481  0.00  0.00    +0.000 A 
ATOM     19  C   UNL     1       3.374   5.662  19.563  0.00  0.00    +0.000 A 
ATOM     20  C   UNL     1       2.408   6.706  19.796  0.00  0.00    +0.000 A 
ATOM     21  C   UNL     1       2.216   7.838  18.970  0.00  0.00    +0.000 A 
ATOM     22  C   UNL     1       3.045   7.802  17.830  0.00  0.00    +0.000 A 
ATOM     23  C   UNL     1       4.047   6.767  17.596  0.00  0.00    +0.000 A 
BRANCH  18  24
ATOM     24  C   UNL     1       5.339   4.629  18.244  0.00  0.00    +0.000 C 
ATOM     25  O   UNL     1       5.572   3.819  19.142  0.00  0.00    +0.000 OA
BRANCH  24  26
ATOM     26  C   UNL     1       6.106   4.604  16.901  0.00  0.00    +0.000 C 
BRANCH  26  28
ATOM     27  C   UNL     1       6.199   3.960  14.353  0.00  0.00    +0.000 C 
ATOM     28  C   UNL     1       5.362   4.149  15.622  0.00  0.00    +0.000 C 
ENDBRANCH  26  28
ENDBRANCH  24  26
ENDBRANCH  18  24
ENDBRANCH  16  21
ENDBRANCH   1  16
TORSDOF 5
ENDMDL
MODEL 4
REMARK VINA RESULT:      -7.8      4.508      8.183
REMARK  Name = 
REMARK  7 active torsions:
REMARK  status: ('A' for Active; 'I' for Inactive)
REMARK    1  A    between atoms: C_1  and  C_2
REMARK    2  A    between atoms: C_2  and  C_3
REMARK    3  A    between atoms: C_3  and  C_4
REMARK    4  A    between atoms: C_4  and  C_6
REMARK    5  A    between atoms: C_9  and  N_10
REMARK    6  A    between atoms: N_10  and  C_11
REMARK    7  A    between atoms: C_13  and  C_14
REMARK                            x       y       z     vdW  Elec       q    Type
REMARK                         _______ _______ _______ _____ _____    ______ ____
ROOT
ATOM      1  C   UNL     1       3.052   6.409  17.809  0.00  0.00    +0.000 A 
ATOM      2  C   UNL     1       2.133   5.407  18.095  0.00  0.00    +0.000 A 
ATOM      3  C   UNL     1       2.687   4.438  18.892  0.00  0.00    +0.000 A 
ATOM      4  C   UNL     1       3.045   4.738  20.347  0.00  0.00    +0.000 C 
ATOM      5  N   UNL     1       3.705   3.786  18.378  0.00  0.00    +0.000 NA
ATOM      6  C   UNL     1       4.672   4.596  18.005  0.00  0.00    +0.000 A 
ATOM      7  C   UNL     1       5.919   4.043  18.273  0.00  0.00    +0.000 A 
ATOM      8  C   UNL     1       7.100   4.601  17.843  0.00  0.00    +0.000 A 
ATOM      9  C   UNL     1       6.833   5.321  16.687  0.00  0.00    +0.000 A 
ATOM     10  N   UNL     1       7.594   5.259  15.547  0.00  0.00    +0.000 NA
ATOM     11  C   UNL     1       6.710   5.353  14.590  0.00  0.00    +0.000 A 
ATOM     12  N   UNL     1       5.513   5.862  15.057  0.00  0.00    +0.000 N 
ATOM     13  C   UNL     1       5.537   5.886  16.461  0.00  0.00    +0.000 A 
ATOM     14  C   UNL     1       4.464   5.900  17.509  0.00  0.00    +0.000 A 
ATOM     15  H   UNL     1       4.680   5.868  14.492  0.00  0.00    +0.000 HD
ENDROOT
BRANCH   1  16
ATOM     16  N   UNL     1       2.796   7.602  18.803  0.00  0.00    +0.000 N 
ATOM     17  H   UNL     1       3.675   8.005  19.096  0.00  0.00    +0.000 HD
BRANCH  16  21
ATOM     18  C   UNL     1      -0.561  10.526  19.292  0.00  0.00    +0.000 A 
ATOM     19  C   UNL     1      -0.012   9.850  20.373  0.00  0.00    +0.000 A 
ATOM     20  C   UNL     1       1.044   8.883  20.212  0.00  0.00    +0.000 A 
ATOM     21  C   UNL     1       1.645   8.528  18.982  0.00  0.00    +0.000 A 
ATOM     22  C   UNL     1       1.135   9.291  17.911  0.00  0.00    +0.000 A 
ATOM     23  C   UNL     1       0.048  10.253  18.054  0.00  0.00    +0.000 A 
BRANCH  18  24
ATOM     24  C   UNL     1      -1.743  11.514  19.422  0.00  0.00    +0.000 C 
ATOM     25  O   UNL     1      -1.829  12.191  20.446  0.00  0.00    +0.000 OA
BRANCH  24  26
ATOM     26  C   UNL     1      -2.775  11.629  18.274  0.00  0.00    +0.000 C 
BRANCH  26  28
ATOM     27  C   UNL     1      -3.079   9.869  16.343  0.00  0.00    +0.000 C 
ATOM     28  C   UNL     1      -3.458  10.343  17.750  0.00  0.00    +0.000 C 
ENDBRANCH  26  28
ENDBRANCH  24  26
ENDBRANCH  18  24
ENDBRANCH  16  21
ENDBRANCH   1  16
TORSDOF 5
ENDMDL
MODEL 5
REMARK VINA RESULT:      -7.8      5.030      8.041
REMARK  Name = 
REMARK  7 active torsions:
REMARK  status: ('A' for Active; 'I' for Inactive)
REMARK    1  A    between atoms: C_1  and  C_2
REMARK    2  A    between atoms: C_2  and  C_3
REMARK    3  A    between atoms: C_3  and  C_4
REMARK    4  A    between atoms: C_4  and  C_6
REMARK    5  A    between atoms: C_9  and  N_10
REMARK    6  A    between atoms: N_10  and  C_11
REMARK    7  A    between atoms: C_13  and  C_14
REMARK                            x       y       z     vdW  Elec       q    Type
REMARK                         _______ _______ _______ _____ _____    ______ ____
ROOT
ATOM      1  C   UNL     1       0.711  10.293  18.319  0.00  0.00    +0.000 A 
ATOM      2  C   UNL     1       1.559  11.375  18.521  0.00  0.00    +0.000 A 
ATOM      3  C   UNL     1       1.041  12.247  19.443  0.00  0.00    +0.000 A 
ATOM      4  C   UNL     1       0.942  11.853  20.916  0.00  0.00    +0.000 C 
ATOM      5  N   UNL     1      -0.104  12.807  19.124  0.00  0.00    +0.000 NA
ATOM      6  C   UNL     1      -1.031  11.914  18.854  0.00  0.00    +0.000 A 
ATOM      7  C   UNL     1      -2.271  12.320  19.335  0.00  0.00    +0.000 A 
ATOM      8  C   UNL     1      -3.442  11.657  19.055  0.00  0.00    +0.000 A 
ATOM      9  C   UNL     1      -3.286  11.016  17.834  0.00  0.00    +0.000 A 
ATOM     10  N   UNL     1      -4.215  11.042  16.824  0.00  0.00    +0.000 NA
ATOM     11  C   UNL     1      -3.483  11.082  15.743  0.00  0.00    +0.000 A 
ATOM     12  N   UNL     1      -2.184  10.685  15.998  0.00  0.00    +0.000 N 
ATOM     13  C   UNL     1      -1.991  10.601  17.386  0.00  0.00    +0.000 A 
ATOM     14  C   UNL     1      -0.773  10.661  18.260  0.00  0.00    +0.000 A 
ATOM     15  H   UNL     1      -1.452  10.790  15.315  0.00  0.00    +0.000 HD
ENDROOT
BRANCH   1  16
ATOM     16  N   UNL     1       1.235   9.096  19.196  0.00  0.00    +0.000 N 
ATOM     17  H   UNL     1       0.580   8.898  19.939  0.00  0.00    +0.000 HD
BRANCH  16  21
ATOM     18  C   UNL     1       4.035   5.686  18.428  0.00  0.00    +0.000 A 
ATOM     19  C   UNL     1       3.938   6.766  17.562  0.00  0.00    +0.000 A 
ATOM     20  C   UNL     1       3.011   7.846  17.789  0.00  0.00    +0.000 A 
ATOM     21  C   UNL     1       2.132   7.948  18.893  0.00  0.00    +0.000 A 
ATOM     22  C   UNL     1       2.312   6.888  19.805  0.00  0.00    +0.000 A 
ATOM     23  C   UNL     1       3.226   5.774  19.575  0.00  0.00    +0.000 A 
BRANCH  18  24
ATOM     24  C   UNL     1       4.964   4.477  18.175  0.00  0.00    +0.000 C 
ATOM     25  O   UNL     1       5.785   4.178  19.042  0.00  0.00    +0.000 OA
BRANCH  24  26
ATOM     26  C   UNL     1       4.840   3.679  16.855  0.00  0.00    +0.000 C 
BRANCH  26  28
ATOM     27  C   UNL     1       6.833   5.099  15.891  0.00  0.00    +0.000 C 
ATOM     28  C   UNL     1       5.903   3.889  15.750  0.00  0.00    +0.000 C 
ENDBRANCH  26  28
ENDBRANCH  24  26
ENDBRANCH  18  24
ENDBRANCH  16  21
ENDBRANCH   1  16
TORSDOF 5
ENDMDL
MODEL 6
REMARK VINA RESULT:      -7.7      4.972      8.331
REMARK  Name = 
REMARK  7 active torsions:
REMARK  status: ('A' for Active; 'I' for Inactive)
REMARK    1  A    between atoms: C_1  and  C_2
REMARK    2  A    between atoms: C_2  and  C_3
REMARK    3  A    between atoms: C_3  and  C_4
REMARK    4  A    between atoms: C_4  and  C_6
REMARK    5  A    between atoms: C_9  and  N_10
REMARK    6  A    between atoms: N_10  and  C_11
REMARK    7  A    between atoms: C_13  and  C_14
REMARK                            x       y       z     vdW  Elec       q    Type
REMARK                         _______ _______ _______ _____ _____    ______ ____
ROOT
ATOM      1  C   UNL     1       0.614  10.283  18.350  0.00  0.00    +0.000 A 
ATOM      2  C   UNL     1       1.465  11.362  18.555  0.00  0.00    +0.000 A 
ATOM      3  C   UNL     1       0.938  12.246  19.460  0.00  0.00    +0.000 A 
ATOM      4  C   UNL     1       0.811  11.868  20.935  0.00  0.00    +0.000 C 
ATOM      5  N   UNL     1      -0.198  12.811  19.116  0.00  0.00    +0.000 NA
ATOM      6  C   UNL     1      -1.127  11.921  18.839  0.00  0.00    +0.000 A 
ATOM      7  C   UNL     1      -2.372  12.340  19.295  0.00  0.00    +0.000 A 
ATOM      8  C   UNL     1      -3.542  11.682  19.002  0.00  0.00    +0.000 A 
ATOM      9  C   UNL     1      -3.370  11.028  17.790  0.00  0.00    +0.000 A 
ATOM     10  N   UNL     1      -4.281  11.050  16.764  0.00  0.00    +0.000 NA
ATOM     11  C   UNL     1      -3.532  11.074  15.695  0.00  0.00    +0.000 A 
ATOM     12  N   UNL     1      -2.240  10.671  15.976  0.00  0.00    +0.000 N 
ATOM     13  C   UNL     1      -2.070  10.600  17.369  0.00  0.00    +0.000 A 
ATOM     14  C   UNL     1      -0.867  10.660  18.262  0.00  0.00    +0.000 A 
ATOM     15  H   UNL     1      -1.495  10.765  15.305  0.00  0.00    +0.000 HD
ENDROOT
BRANCH   1  16
ATOM     16  N   UNL     1       1.114   9.092  19.247  0.00  0.00    +0.000 N 
ATOM     17  H   UNL     1       0.392   8.822  19.900  0.00  0.00    +0.000 HD
BRANCH  16  21
ATOM     18  C   UNL     1       4.050   5.813  18.417  0.00  0.00    +0.000 A 
ATOM     19  C   UNL     1       3.230   5.799  19.536  0.00  0.00    +0.000 A 
ATOM     20  C   UNL     1       2.311   6.871  19.823  0.00  0.00    +0.000 A 
ATOM     21  C   UNL     1       2.121   8.019  19.020  0.00  0.00    +0.000 A 
ATOM     22  C   UNL     1       2.897   7.970  17.843  0.00  0.00    +0.000 A 
ATOM     23  C   UNL     1       3.851   6.905  17.553  0.00  0.00    +0.000 A 
BRANCH  18  24
ATOM     24  C   UNL     1       5.098   4.717  18.120  0.00  0.00    +0.000 C 
ATOM     25  O   UNL     1       4.699   3.601  17.786  0.00  0.00    +0.000 OA
BRANCH  24  26
ATOM     26  C   UNL     1       6.606   5.044  18.245  0.00  0.00    +0.000 C 
BRANCH  26  28
ATOM     27  C   UNL     1       7.594   7.416  17.688  0.00  0.00    +0.000 C 
ATOM     28  C   UNL     1       7.252   6.000  17.214  0.00  0.00    +0.000 C 
ENDBRANCH  26  28
ENDBRANCH  24  26
ENDBRANCH  18  24
ENDBRANCH  16  21
ENDBRANCH   1  16
TORSDOF 5
ENDMDL
MODEL 7
REMARK VINA RESULT:      -7.6      4.630      8.868
REMARK  Name = 
REMARK  7 active torsions:
REMARK  status: ('A' for Active; 'I' for Inactive)
REMARK    1  A    between atoms: C_1  and  C_2
REMARK    2  A    between atoms: C_2  and  C_3
REMARK    3  A    between atoms: C_3  and  C_4
REMARK    4  A    between atoms: C_4  and  C_6
REMARK    5  A    between atoms: C_9  and  N_10
REMARK    6  A    between atoms: N_10  and  C_11
REMARK    7  A    between atoms: C_13  and  C_14
REMARK                            x       y       z     vdW  Elec       q    Type
REMARK                         _______ _______ _______ _____ _____    ______ ____
ROOT
ATOM      1  C   UNL     1       2.909   6.643  17.901  0.00  0.00    +0.000 A 
ATOM      2  C   UNL     1       1.952   5.670  18.162  0.00  0.00    +0.000 A 
ATOM      3  C   UNL     1       2.453   4.684  18.973  0.00  0.00    +0.000 A 
ATOM      4  C   UNL     1       2.781   4.973  20.437  0.00  0.00    +0.000 C 
ATOM      5  N   UNL     1       3.464   4.000  18.487  0.00  0.00    +0.000 NA
ATOM      6  C   UNL     1       4.466   4.780  18.140  0.00  0.00    +0.000 A 
ATOM      7  C   UNL     1       5.688   4.188  18.441  0.00  0.00    +0.000 A 
ATOM      8  C   UNL     1       6.896   4.709  18.044  0.00  0.00    +0.000 A 
ATOM      9  C   UNL     1       6.683   5.437  16.881  0.00  0.00    +0.000 A 
ATOM     10  N   UNL     1       7.472   5.350  15.762  0.00  0.00    +0.000 NA
ATOM     11  C   UNL     1       6.617   5.471  14.782  0.00  0.00    +0.000 A 
ATOM     12  N   UNL     1       5.424   6.017  15.216  0.00  0.00    +0.000 N 
ATOM     13  C   UNL     1       5.412   6.042  16.621  0.00  0.00    +0.000 A 
ATOM     14  C   UNL     1       4.311   6.089  17.639  0.00  0.00    +0.000 A 
ATOM     15  H   UNL     1       4.608   6.049  14.629  0.00  0.00    +0.000 HD
ENDROOT
BRANCH   1  16
ATOM     16  N   UNL     1       2.663   7.843  18.888  0.00  0.00    +0.000 N 
ATOM     17  H   UNL     1       3.545   8.201  19.227  0.00  0.00    +0.000 HD
BRANCH  16  21
ATOM     18  C   UNL     1      -0.786  10.666  19.331  0.00  0.00    +0.000 A 
ATOM     19  C   UNL     1      -0.261  10.336  18.089  0.00  0.00    +0.000 A 
ATOM     20  C   UNL     1       0.871   9.456  17.948  0.00  0.00    +0.000 A 
ATOM     21  C   UNL     1       1.552   8.825  19.015  0.00  0.00    +0.000 A 
ATOM     22  C   UNL     1       0.948   9.102  20.259  0.00  0.00    +0.000 A 
ATOM     23  C   UNL     1      -0.181  10.012  20.420  0.00  0.00    +0.000 A 
BRANCH  18  24
ATOM     24  C   UNL     1      -1.950  11.664  19.521  0.00  0.00    +0.000 C 
ATOM     25  O   UNL     1      -2.915  11.589  18.760  0.00  0.00    +0.000 OA
BRANCH  24  26
ATOM     26  C   UNL     1      -1.880  12.718  20.651  0.00  0.00    +0.000 C 
BRANCH  26  28
ATOM     27  C   UNL     1      -2.009  11.774  23.102  0.00  0.00    +0.000 C 
ATOM     28  C   UNL     1      -2.706  12.490  21.940  0.00  0.00    +0.000 C 
ENDBRANCH  26  28
ENDBRANCH  24  26
ENDBRANCH  18  24
ENDBRANCH  16  21
ENDBRANCH   1  16
TORSDOF 5
ENDMDL
MODEL 8
REMARK VINA RESULT:      -7.6      4.502      7.541
REMARK  Name = 
REMARK  7 active torsions:
REMARK  status: ('A' for Active; 'I' for Inactive)
REMARK    1  A    between atoms: C_1  and  C_2
REMARK    2  A    between atoms: C_2  and  C_3
REMARK    3  A    between atoms: C_3  and  C_4
REMARK    4  A    between atoms: C_4  and  C_6
REMARK    5  A    between atoms: C_9  and  N_10
REMARK    6  A    between atoms: N_10  and  C_11
REMARK    7  A    between atoms: C_13  and  C_14
REMARK                            x       y       z     vdW  Elec       q    Type
REMARK                         _______ _______ _______ _____ _____    ______ ____
ROOT
ATOM      1  C   UNL     1       3.988   5.984  18.998  0.00  0.00    +0.000 A 
ATOM      2  C   UNL     1       5.278   5.712  18.557  0.00  0.00    +0.000 A 
ATOM      3  C   UNL     1       5.276   4.752  17.578  0.00  0.00    +0.000 A 
ATOM      4  C   UNL     1       4.701   5.052  16.195  0.00  0.00    +0.000 C 
ATOM      5  N   UNL     1       4.816   3.573  17.932  0.00  0.00    +0.000 NA
ATOM      6  C   UNL     1       3.596   3.647  18.421  0.00  0.00    +0.000 A 
ATOM      7  C   UNL     1       2.830   2.558  18.018  0.00  0.00    +0.000 A 
ATOM      8  C   UNL     1       1.573   2.299  18.510  0.00  0.00    +0.000 A 
ATOM      9  C   UNL     1       1.497   2.836  19.787  0.00  0.00    +0.000 A 
ATOM     10  N   UNL     1       0.982   2.175  20.874  0.00  0.00    +0.000 NA
ATOM     11  C   UNL     1       1.746   2.570  21.856  0.00  0.00    +0.000 A 
ATOM     12  N   UNL     1       2.438   3.720  21.527  0.00  0.00    +0.000 N 
ATOM     13  C   UNL     1       2.294   3.968  20.152  0.00  0.00    +0.000 A 
ATOM     14  C   UNL     1       3.105   4.745  19.157  0.00  0.00    +0.000 A 
ATOM     15  H   UNL     1       3.175   4.082  22.108  0.00  0.00    +0.000 HD
ENDROOT
BRANCH   1  16
ATOM     16  N   UNL     1       3.482   7.273  18.252  0.00  0.00    +0.000 N 
ATOM     17  H   UNL     1       3.693   7.209  17.265  0.00  0.00    +0.000 HD
BRANCH  16  21
ATOM     18  C   UNL     1       0.088  10.045  19.175  0.00  0.00    +0.000 A 
ATOM     19  C   UNL     1       0.646   9.963  17.907  0.00  0.00    +0.000 A 
ATOM     20  C   UNL     1       1.761   9.098  17.618  0.00  0.00    +0.000 A 
ATOM     21  C   UNL     1       2.391   8.240  18.549  0.00  0.00    +0.000 A 
ATOM     22  C   UNL     1       1.752   8.273  19.806  0.00  0.00    +0.000 A 
ATOM     23  C   UNL     1       0.641   9.163  20.121  0.00  0.00    +0.000 A 
BRANCH  18  24
ATOM     24  C   UNL     1      -1.059  11.017  19.536  0.00  0.00    +0.000 C 
ATOM     25  O   UNL     1      -1.052  11.541  20.649  0.00  0.00    +0.000 OA
BRANCH  24  26
ATOM     26  C   UNL     1      -2.172  11.307  18.500  0.00  0.00    +0.000 C 
BRANCH  26  28
ATOM     27  C   UNL     1      -2.695   9.936  16.318  0.00  0.00    +0.000 C 
ATOM     28  C   UNL     1      -2.896  10.116  17.827  0.00  0.00    +0.000 C 
ENDBRANCH  26  28
ENDBRANCH  24  26
ENDBRANCH  18  24
ENDBRANCH  16  21
ENDBRANCH   1  16
TORSDOF 5
ENDMDL
MODEL 9
REMARK VINA RESULT:      -7.5      5.838      9.252
REMARK  Name = 
REMARK  7 active torsions:
REMARK  status: ('A' for Active; 'I' for Inactive)
REMARK    1  A    between atoms: C_1  and  C_2
REMARK    2  A    between atoms: C_2  and  C_3
REMARK    3  A    between atoms: C_3  and  C_4
REMARK    4  A    between atoms: C_4  and  C_6
REMARK    5  A    between atoms: C_9  and  N_10
REMARK    6  A    between atoms: N_10  and  C_11
REMARK    7  A    between atoms: C_13  and  C_14
REMARK                            x       y       z     vdW  Elec       q    Type
REMARK                         _______ _______ _______ _____ _____    ______ ____
ROOT
ATOM      1  C   UNL     1       0.275  11.426  18.897  0.00  0.00    +0.000 A 
ATOM      2  C   UNL     1       0.748  12.674  19.283  0.00  0.00    +0.000 A 
ATOM      3  C   UNL     1      -0.125  13.292  20.141  0.00  0.00    +0.000 A 
ATOM      4  C   UNL     1      -0.329  12.759  21.559  0.00  0.00    +0.000 C 
ATOM      5  N   UNL     1      -1.319  13.549  19.659  0.00  0.00    +0.000 NA
ATOM      6  C   UNL     1      -1.910  12.467  19.199  0.00  0.00    +0.000 A 
ATOM      7  C   UNL     1      -3.271  12.482  19.482  0.00  0.00    +0.000 A 
ATOM      8  C   UNL     1      -4.155  11.556  18.982  0.00  0.00    +0.000 A 
ATOM      9  C   UNL     1      -3.646  11.089  17.779  0.00  0.00    +0.000 A 
ATOM     10  N   UNL     1      -4.383  10.952  16.630  0.00  0.00    +0.000 NA
ATOM     11  C   UNL     1      -3.538  11.280  15.689  0.00  0.00    +0.000 A 
ATOM     12  N   UNL     1      -2.234  11.226  16.141  0.00  0.00    +0.000 N 
ATOM     13  C   UNL     1      -2.234  11.077  17.538  0.00  0.00    +0.000 A 
ATOM     14  C   UNL     1      -1.226  11.385  18.606  0.00  0.00    +0.000 A 
ATOM     15  H   UNL     1      -1.466  11.582  15.596  0.00  0.00    +0.000 HD
ENDROOT
BRANCH   1  16
ATOM     16  N   UNL     1       0.975  10.342  19.797  0.00  0.00    +0.000 N 
ATOM     17  H   UNL     1       0.735  10.490  20.768  0.00  0.00    +0.000 HD
BRANCH  16  21
ATOM     18  C   UNL     1       2.516   6.199  19.073  0.00  0.00    +0.000 A 
ATOM     19  C   UNL     1       2.487   7.159  18.070  0.00  0.00    +0.000 A 
ATOM     20  C   UNL     1       1.958   8.480  18.293  0.00  0.00    +0.000 A 
ATOM     21  C   UNL     1       1.440   8.956  19.520  0.00  0.00    +0.000 A 
ATOM     22  C   UNL     1       1.562   7.997  20.547  0.00  0.00    +0.000 A 
ATOM     23  C   UNL     1       2.069   6.646  20.330  0.00  0.00    +0.000 A 
BRANCH  18  24
ATOM     24  C   UNL     1       3.007   4.751  18.848  0.00  0.00    +0.000 C 
ATOM     25  O   UNL     1       4.219   4.548  18.786  0.00  0.00    +0.000 OA
BRANCH  24  26
ATOM     26  C   UNL     1       1.976   3.605  18.711  0.00  0.00    +0.000 C 
BRANCH  26  28
ATOM     27  C   UNL     1       1.352   2.885  21.162  0.00  0.00    +0.000 C 
ATOM     28  C   UNL     1       0.896   3.435  19.806  0.00  0.00    +0.000 C 
ENDBRANCH  26  28
ENDBRANCH  24  26
ENDBRANCH  18  24
ENDBRANCH  16  21
ENDBRANCH   1  16
TORSDOF 5
ENDMDL
