MODEL 1
REMARK VINA RESULT:      -7.8      0.000      0.000
REMARK  Name = 
REMARK  9 active torsions:
REMARK  status: ('A' for Active; 'I' for Inactive)
REMARK    1  A    between atoms: C_1  and  C_2
REMARK    2  A    between atoms: C_2  and  C_3
REMARK    3  A    between atoms: C_4  and  N_5
REMARK    4  A    between atoms: N_11  and  C_12
REMARK    5  A    between atoms: C_12  and  C_13
REMARK    6  A    between atoms: C_13  and  O_14
REMARK    7  A    between atoms: C_13  and  C_16
REMARK    8  A    between atoms: O_14  and  C_15
REMARK    9  A    between atoms: C_21  and  C_22
REMARK                            x       y       z     vdW  Elec       q    Type
REMARK                         _______ _______ _______ _____ _____    ______ ____
ROOT
ATOM      1  N   UNL     1       2.099   7.478  19.166  0.00  0.00    +0.000 N 
ATOM      2  C   UNL     1       2.114   8.079  17.855  0.00  0.00    +0.000 C 
ATOM      3  C   UNL     1       1.850   9.547  18.096  0.00  0.00    +0.000 C 
ATOM      4  C   UNL     1       1.042   9.587  19.403  0.00  0.00    +0.000 C 
ATOM      5  C   UNL     1       1.439  10.813  20.240  0.00  0.00    +0.000 C 
ATOM      6  C   UNL     1       0.823  12.083  19.659  0.00  0.00    +0.000 C 
ATOM      7  N   UNL     1      -0.647  12.027  19.614  0.00  0.00    +0.000 NA
ATOM      8  C   UNL     1      -1.058  10.901  18.751  0.00  0.00    +0.000 C 
ATOM      9  C   UNL     1      -0.479   9.537  19.164  0.00  0.00    +0.000 C 
ATOM     10  C   UNL     1       1.485   8.314  20.113  0.00  0.00    +0.000 C 
ATOM     11  O   UNL     1       1.337   8.112  21.303  0.00  0.00    +0.000 OA
ENDROOT
BRANCH   1  13
ATOM     12  C   UNL     1       3.809   5.757  18.893  0.00  0.00    +0.000 C 
ATOM     13  C   UNL     1       2.702   6.266  19.441  0.00  0.00    +0.000 C 
ATOM     14  C   UNL     1       2.116   5.322  20.423  0.00  0.00    +0.000 C 
ATOM     15  O   UNL     1       2.954   4.178  20.363  0.00  0.00    +0.000 OA
ATOM     16  C   UNL     1       3.947   4.404  19.459  0.00  0.00    +0.000 C 
ATOM     17  O   UNL     1       4.812   3.596  19.183  0.00  0.00    +0.000 OA
BRANCH  12  19
ATOM     18  C   UNL     1       4.793   5.915  16.538  0.00  0.00    +0.000 C 
ATOM     19  C   UNL     1       4.814   6.390  17.985  0.00  0.00    +0.000 C 
ENDBRANCH  12  19
ENDBRANCH   1  13
BRANCH   7  20
ATOM     20  C   UNL     1      -1.271  11.911  20.963  0.00  0.00    +0.000 C 
BRANCH  20  21
ATOM     21  C   UNL     1      -1.847  13.211  21.632  0.00  0.00    +0.000 C 
BRANCH  21  22
ATOM     22  C   UNL     1      -3.279  13.000  22.141  0.00  0.00    +0.000 A 
ATOM     23  C   UNL     1      -3.538  13.113  23.537  0.00  0.00    +0.000 A 
ATOM     24  C   UNL     1      -4.825  13.020  24.058  0.00  0.00    +0.000 A 
ATOM     25  C   UNL     1      -5.854  12.864  23.157  0.00  0.00    +0.000 A 
ATOM     26  C   UNL     1      -5.650  12.780  21.794  0.00  0.00    +0.000 A 
ATOM     27  C   UNL     1      -4.368  12.820  21.247  0.00  0.00    +0.000 A 
ATOM     28  C   UNL     1      -4.184  12.722  19.757  0.00  0.00    +0.000 C 
ATOM     29  C   UNL     1      -6.971  12.697  21.131  0.00  0.00    +0.000 C 
ATOM     30  O   UNL     1      -7.908  12.686  22.225  0.00  0.00    +0.000 OA
ATOM     31  C   UNL     1      -7.280  12.791  23.433  0.00  0.00    +0.000 C 
ATOM     32  O   UNL     1      -7.812  12.818  24.526  0.00  0.00    +0.000 OA
ENDBRANCH  21  22
BRANCH  21  33
ATOM     33  O   UNL     1      -1.052  13.585  22.771  0.00  0.00    +0.000 OA
ATOM     34  C   UNL     1      -0.096  14.600  22.497  0.00  0.00    +0.000 C 
ENDBRANCH  21  33
ENDBRANCH  20  21
ENDBRANCH   7  20
TORSDOF 6
ENDMDL
MODEL 2
REMARK VINA RESULT:      -7.8      2.513     10.833
REMARK  Name = 
REMARK  9 active torsions:
REMARK  status: ('A' for Active; 'I' for Inactive)
REMARK    1  A    between atoms: C_1  and  C_2
REMARK    2  A    between atoms: C_2  and  C_3
REMARK    3  A    between atoms: C_4  and  N_5
REMARK    4  A    between atoms: N_11  and  C_12
REMARK    5  A    between atoms: C_12  and  C_13
REMARK    6  A    between atoms: C_13  and  O_14
REMARK    7  A    between atoms: C_13  and  C_16
REMARK    8  A    between atoms: O_14  and  C_15
REMARK    9  A    between atoms: C_21  and  C_22
REMARK                            x       y       z     vdW  Elec       q    Type
REMARK                         _______ _______ _______ _____ _____    ______ ____
ROOT
ATOM      1  N   UNL     1      -0.249  13.234  20.656  0.00  0.00    +0.000 N 
ATOM      2  C   UNL     1      -0.442  13.543  19.260  0.00  0.00    +0.000 C 
ATOM      3  C   UNL     1      -0.471  12.203  18.564  0.00  0.00    +0.000 C 
ATOM      4  C   UNL     1       0.367  11.280  19.463  0.00  0.00    +0.000 C 
ATOM      5  C   UNL     1      -0.234   9.866  19.488  0.00  0.00    +0.000 C 
ATOM      6  C   UNL     1       0.086   9.124  18.192  0.00  0.00    +0.000 C 
ATOM      7  N   UNL     1       1.532   8.992  17.960  0.00  0.00    +0.000 NA
ATOM      8  C   UNL     1       2.126  10.341  17.856  0.00  0.00    +0.000 C 
ATOM      9  C   UNL     1       1.855  11.252  19.064  0.00  0.00    +0.000 C 
ATOM     10  C   UNL     1       0.223  11.924  20.836  0.00  0.00    +0.000 C 
ATOM     11  O   UNL     1       0.460  11.354  21.883  0.00  0.00    +0.000 OA
ENDROOT
BRANCH   1  13
ATOM     12  C   UNL     1      -1.736  14.198  22.334  0.00  0.00    +0.000 C 
ATOM     13  C   UNL     1      -0.580  14.111  21.670  0.00  0.00    +0.000 C 
ATOM     14  C   UNL     1       0.375  15.146  22.134  0.00  0.00    +0.000 C 
ATOM     15  O   UNL     1      -0.347  15.893  23.101  0.00  0.00    +0.000 OA
ATOM     16  C   UNL     1      -1.596  15.364  23.225  0.00  0.00    +0.000 C 
ATOM     17  O   UNL     1      -2.450  15.802  23.972  0.00  0.00    +0.000 OA
BRANCH  12  19
ATOM     18  C   UNL     1      -2.867  12.115  23.295  0.00  0.00    +0.000 C 
ATOM     19  C   UNL     1      -2.923  13.289  22.327  0.00  0.00    +0.000 C 
ENDBRANCH  12  19
ENDBRANCH   1  13
BRANCH   7  20
ATOM     20  C   UNL     1       2.225   8.192  19.011  0.00  0.00    +0.000 C 
BRANCH  20  21
ATOM     21  C   UNL     1       2.323   6.636  18.820  0.00  0.00    +0.000 C 
BRANCH  21  22
ATOM     22  C   UNL     1       3.446   6.253  17.849  0.00  0.00    +0.000 A 
ATOM     23  C   UNL     1       4.484   7.193  17.591  0.00  0.00    +0.000 A 
ATOM     24  C   UNL     1       5.579   6.882  16.789  0.00  0.00    +0.000 A 
ATOM     25  C   UNL     1       5.645   5.599  16.293  0.00  0.00    +0.000 A 
ATOM     26  C   UNL     1       4.675   4.648  16.544  0.00  0.00    +0.000 A 
ATOM     27  C   UNL     1       3.543   4.946  17.301  0.00  0.00    +0.000 A 
ATOM     28  C   UNL     1       2.506   3.885  17.550  0.00  0.00    +0.000 C 
ATOM     29  C   UNL     1       5.106   3.373  15.926  0.00  0.00    +0.000 C 
ATOM     30  O   UNL     1       6.348   3.704  15.276  0.00  0.00    +0.000 OA
ATOM     31  C   UNL     1       6.696   5.009  15.480  0.00  0.00    +0.000 C 
ATOM     32  O   UNL     1       7.693   5.566  15.063  0.00  0.00    +0.000 OA
ENDBRANCH  21  22
BRANCH  21  33
ATOM     33  O   UNL     1       2.620   5.994  20.073  0.00  0.00    +0.000 OA
ATOM     34  C   UNL     1       1.547   5.219  20.591  0.00  0.00    +0.000 C 
ENDBRANCH  21  33
ENDBRANCH  20  21
ENDBRANCH   7  20
TORSDOF 6
ENDMDL
MODEL 3
REMARK VINA RESULT:      -7.6      1.491      2.263
REMARK  Name = 
REMARK  9 active torsions:
REMARK  status: ('A' for Active; 'I' for Inactive)
REMARK    1  A    between atoms: C_1  and  C_2
REMARK    2  A    between atoms: C_2  and  C_3
REMARK    3  A    between atoms: C_4  and  N_5
REMARK    4  A    between atoms: N_11  and  C_12
REMARK    5  A    between atoms: C_12  and  C_13
REMARK    6  A    between atoms: C_13  and  O_14
REMARK    7  A    between atoms: C_13  and  C_16
REMARK    8  A    between atoms: O_14  and  C_15
REMARK    9  A    between atoms: C_21  and  C_22
REMARK                            x       y       z     vdW  Elec       q    Type
REMARK                         _______ _______ _______ _____ _____    ______ ____
ROOT
ATOM      1  N   UNL     1       2.246   7.493  19.072  0.00  0.00    +0.000 N 
ATOM      2  C   UNL     1       2.302   8.144  17.785  0.00  0.00    +0.000 C 
ATOM      3  C   UNL     1       1.948   9.587  18.061  0.00  0.00    +0.000 C 
ATOM      4  C   UNL     1       1.068   9.536  19.321  0.00  0.00    +0.000 C 
ATOM      5  C   UNL     1       1.353  10.747  20.222  0.00  0.00    +0.000 C 
ATOM      6  C   UNL     1       0.704  12.006  19.650  0.00  0.00    +0.000 C 
ATOM      7  N   UNL     1      -0.756  11.878  19.520  0.00  0.00    +0.000 NA
ATOM      8  C   UNL     1      -1.059  10.766  18.596  0.00  0.00    +0.000 C 
ATOM      9  C   UNL     1      -0.433   9.418  18.993  0.00  0.00    +0.000 C 
ATOM     10  C   UNL     1       1.537   8.261  20.010  0.00  0.00    +0.000 C 
ATOM     11  O   UNL     1       1.334   8.007  21.181  0.00  0.00    +0.000 OA
ENDROOT
BRANCH   1  13
ATOM     12  C   UNL     1       4.035   5.854  18.805  0.00  0.00    +0.000 C 
ATOM     13  C   UNL     1       2.895   6.304  19.338  0.00  0.00    +0.000 C 
ATOM     14  C   UNL     1       2.331   5.317  20.290  0.00  0.00    +0.000 C 
ATOM     15  O   UNL     1       3.219   4.212  20.228  0.00  0.00    +0.000 OA
ATOM     16  C   UNL     1       4.220   4.498  19.350  0.00  0.00    +0.000 C 
ATOM     17  O   UNL     1       5.126   3.733  19.079  0.00  0.00    +0.000 OA
BRANCH  12  19
ATOM     18  C   UNL     1       4.991   6.174  16.455  0.00  0.00    +0.000 C 
ATOM     19  C   UNL     1       5.030   6.547  17.931  0.00  0.00    +0.000 C 
ENDBRANCH  12  19
ENDBRANCH   1  13
BRANCH   7  20
ATOM     20  C   UNL     1      -1.448  11.680  20.826  0.00  0.00    +0.000 C 
BRANCH  20  21
ATOM     21  C   UNL     1      -1.110  12.663  22.004  0.00  0.00    +0.000 C 
BRANCH  21  22
ATOM     22  C   UNL     1      -2.345  13.454  22.454  0.00  0.00    +0.000 A 
ATOM     23  C   UNL     1      -3.639  12.917  22.198  0.00  0.00    +0.000 A 
ATOM     24  C   UNL     1      -4.799  13.537  22.653  0.00  0.00    +0.000 A 
ATOM     25  C   UNL     1      -4.642  14.674  23.414  0.00  0.00    +0.000 A 
ATOM     26  C   UNL     1      -3.404  15.211  23.711  0.00  0.00    +0.000 A 
ATOM     27  C   UNL     1      -2.228  14.640  23.226  0.00  0.00    +0.000 A 
ATOM     28  C   UNL     1      -0.899  15.256  23.568  0.00  0.00    +0.000 C 
ATOM     29  C   UNL     1      -3.606  16.374  24.604  0.00  0.00    +0.000 C 
ATOM     30  O   UNL     1      -5.038  16.470  24.732  0.00  0.00    +0.000 OA
ATOM     31  C   UNL     1      -5.676  15.476  24.046  0.00  0.00    +0.000 C 
ATOM     32  O   UNL     1      -6.877  15.298  23.980  0.00  0.00    +0.000 OA
ENDBRANCH  21  22
BRANCH  21  33
ATOM     33  O   UNL     1      -0.646  11.930  23.152  0.00  0.00    +0.000 OA
ATOM     34  C   UNL     1      -0.926  10.537  23.097  0.00  0.00    +0.000 C 
ENDBRANCH  21  33
ENDBRANCH  20  21
ENDBRANCH   7  20
TORSDOF 6
ENDMDL
MODEL 4
REMARK VINA RESULT:      -7.6      2.278      3.475
REMARK  Name = 
REMARK  9 active torsions:
REMARK  status: ('A' for Active; 'I' for Inactive)
REMARK    1  A    between atoms: C_1  and  C_2
REMARK    2  A    between atoms: C_2  and  C_3
REMARK    3  A    between atoms: C_4  and  N_5
REMARK    4  A    between atoms: N_11  and  C_12
REMARK    5  A    between atoms: C_12  and  C_13
REMARK    6  A    between atoms: C_13  and  O_14
REMARK    7  A    between atoms: C_13  and  C_16
REMARK    8  A    between atoms: O_14  and  C_15
REMARK    9  A    between atoms: C_21  and  C_22
REMARK                            x       y       z     vdW  Elec       q    Type
REMARK                         _______ _______ _______ _____ _____    ______ ____
ROOT
ATOM      1  N   UNL     1       3.787   5.841  17.648  0.00  0.00    +0.000 N 
ATOM      2  C   UNL     1       2.517   5.195  17.873  0.00  0.00    +0.000 C 
ATOM      3  C   UNL     1       1.512   6.321  17.936  0.00  0.00    +0.000 C 
ATOM      4  C   UNL     1       2.320   7.536  18.420  0.00  0.00    +0.000 C 
ATOM      5  C   UNL     1       1.825   8.816  17.730  0.00  0.00    +0.000 C 
ATOM      6  C   UNL     1       0.504   9.278  18.340  0.00  0.00    +0.000 C 
ATOM      7  N   UNL     1       0.614   9.559  19.779  0.00  0.00    +0.000 NA
ATOM      8  C   UNL     1       1.016   8.321  20.479  0.00  0.00    +0.000 C 
ATOM      9  C   UNL     1       2.312   7.683  19.954  0.00  0.00    +0.000 C 
ATOM     10  C   UNL     1       3.732   7.211  17.950  0.00  0.00    +0.000 C 
ATOM     11  O   UNL     1       4.620   8.035  17.843  0.00  0.00    +0.000 OA
ENDROOT
BRANCH   1  13
ATOM     12  C   UNL     1       6.098   5.053  17.645  0.00  0.00    +0.000 C 
ATOM     13  C   UNL     1       4.878   5.183  17.115  0.00  0.00    +0.000 C 
ATOM     14  C   UNL     1       4.809   4.534  15.783  0.00  0.00    +0.000 C 
ATOM     15  O   UNL     1       6.124   4.054  15.550  0.00  0.00    +0.000 OA
ATOM     16  C   UNL     1       6.904   4.361  16.624  0.00  0.00    +0.000 C 
ATOM     17  O   UNL     1       8.085   4.087  16.708  0.00  0.00    +0.000 OA
BRANCH  12  19
ATOM     18  C   UNL     1       7.893   6.194  19.064  0.00  0.00    +0.000 C 
ATOM     19  C   UNL     1       6.596   5.398  19.012  0.00  0.00    +0.000 C 
ENDBRANCH  12  19
ENDBRANCH   1  13
BRANCH   7  20
ATOM     20  C   UNL     1       1.559  10.669  20.091  0.00  0.00    +0.000 C 
BRANCH  20  21
ATOM     21  C   UNL     1       0.984  12.127  20.207  0.00  0.00    +0.000 C 
BRANCH  21  22
ATOM     22  C   UNL     1      -0.413  12.136  20.839  0.00  0.00    +0.000 A 
ATOM     23  C   UNL     1      -0.531  12.025  22.254  0.00  0.00    +0.000 A 
ATOM     24  C   UNL     1      -1.761  12.113  22.901  0.00  0.00    +0.000 A 
ATOM     25  C   UNL     1      -2.863  12.366  22.117  0.00  0.00    +0.000 A 
ATOM     26  C   UNL     1      -2.788  12.510  20.745  0.00  0.00    +0.000 A 
ATOM     27  C   UNL     1      -1.579  12.378  20.064  0.00  0.00    +0.000 A 
ATOM     28  C   UNL     1      -1.538  12.538  18.568  0.00  0.00    +0.000 C 
ATOM     29  C   UNL     1      -4.138  12.849  20.240  0.00  0.00    +0.000 C 
ATOM     30  O   UNL     1      -4.965  12.828  21.419  0.00  0.00    +0.000 OA
ATOM     31  C   UNL     1      -4.240  12.552  22.543  0.00  0.00    +0.000 C 
ATOM     32  O   UNL     1      -4.665  12.478  23.680  0.00  0.00    +0.000 OA
ENDBRANCH  21  22
BRANCH  21  33
ATOM     33  O   UNL     1       1.827  12.933  21.050  0.00  0.00    +0.000 OA
ATOM     34  C   UNL     1       2.196  14.178  20.472  0.00  0.00    +0.000 C 
ENDBRANCH  21  33
ENDBRANCH  20  21
ENDBRANCH   7  20
TORSDOF 6
ENDMDL
MODEL 5
REMARK VINA RESULT:      -7.6      1.071      1.083
REMARK  Name = 
REMARK  9 active torsions:
REMARK  status: ('A' for Active; 'I' for Inactive)
REMARK    1  A    between atoms: C_1  and  C_2
REMARK    2  A    between atoms: C_2  and  C_3
REMARK    3  A    between atoms: C_4  and  N_5
REMARK    4  A    between atoms: N_11  and  C_12
REMARK    5  A    between atoms: C_12  and  C_13
REMARK    6  A    between atoms: C_13  and  O_14
REMARK    7  A    between atoms: C_13  and  C_16
REMARK    8  A    between atoms: O_14  and  C_15
REMARK    9  A    between atoms: C_21  and  C_22
REMARK                            x       y       z     vdW  Elec       q    Type
REMARK                         _______ _______ _______ _____ _____    ______ ____
ROOT
ATOM      1  N   UNL     1       1.909   7.901  19.212  0.00  0.00    +0.000 N 
ATOM      2  C   UNL     1       1.702   8.504  17.918  0.00  0.00    +0.000 C 
ATOM      3  C   UNL     1       1.452   9.966  18.203  0.00  0.00    +0.000 C 
ATOM      4  C   UNL     1       0.864   9.989  19.623  0.00  0.00    +0.000 C 
ATOM      5  C   UNL     1       1.365  11.221  20.391  0.00  0.00    +0.000 C 
ATOM      6  C   UNL     1       0.639  12.479  19.921  0.00  0.00    +0.000 C 
ATOM      7  N   UNL     1      -0.817  12.395  20.112  0.00  0.00    +0.000 NA
ATOM      8  C   UNL     1      -1.339  11.261  19.322  0.00  0.00    +0.000 C 
ATOM      9  C   UNL     1      -0.675   9.909  19.631  0.00  0.00    +0.000 C 
ATOM     10  C   UNL     1       1.439   8.724  20.248  0.00  0.00    +0.000 C 
ATOM     11  O   UNL     1       1.487   8.518  21.445  0.00  0.00    +0.000 OA
ENDROOT
BRANCH   1  13
ATOM     12  C   UNL     1       3.692   6.289  18.781  0.00  0.00    +0.000 C 
ATOM     13  C   UNL     1       2.572   6.701  19.382  0.00  0.00    +0.000 C 
ATOM     14  C   UNL     1       2.046   5.655  20.293  0.00  0.00    +0.000 C 
ATOM     15  O   UNL     1       2.935   4.561  20.132  0.00  0.00    +0.000 OA
ATOM     16  C   UNL     1       3.901   4.904  19.236  0.00  0.00    +0.000 C 
ATOM     17  O   UNL     1       4.798   4.162  18.885  0.00  0.00    +0.000 OA
BRANCH  12  19
ATOM     18  C   UNL     1       4.705   6.606  16.454  0.00  0.00    +0.000 C 
ATOM     19  C   UNL     1       4.651   7.039  17.913  0.00  0.00    +0.000 C 
ENDBRANCH  12  19
ENDBRANCH   1  13
BRANCH   7  20
ATOM     20  C   UNL     1      -1.215  12.265  21.543  0.00  0.00    +0.000 C 
BRANCH  20  21
ATOM     21  C   UNL     1      -1.672  13.559  22.309  0.00  0.00    +0.000 C 
BRANCH  21  22
ATOM     22  C   UNL     1      -3.170  13.524  22.636  0.00  0.00    +0.000 A 
ATOM     23  C   UNL     1      -3.626  12.688  23.694  0.00  0.00    +0.000 A 
ATOM     24  C   UNL     1      -4.958  12.672  24.101  0.00  0.00    +0.000 A 
ATOM     25  C   UNL     1      -5.814  13.545  23.469  0.00  0.00    +0.000 A 
ATOM     26  C   UNL     1      -5.407  14.394  22.459  0.00  0.00    +0.000 A 
ATOM     27  C   UNL     1      -4.092  14.396  21.996  0.00  0.00    +0.000 A 
ATOM     28  C   UNL     1      -3.686  15.334  20.892  0.00  0.00    +0.000 C 
ATOM     29  C   UNL     1      -6.560  15.237  22.069  0.00  0.00    +0.000 C 
ATOM     30  O   UNL     1      -7.638  14.755  22.894  0.00  0.00    +0.000 OA
ATOM     31  C   UNL     1      -7.227  13.761  23.736  0.00  0.00    +0.000 C 
ATOM     32  O   UNL     1      -7.912  13.172  24.550  0.00  0.00    +0.000 OA
ENDBRANCH  21  22
BRANCH  21  33
ATOM     33  O   UNL     1      -0.976  13.672  23.564  0.00  0.00    +0.000 OA
ATOM     34  C   UNL     1      -0.764  15.013  23.985  0.00  0.00    +0.000 C 
ENDBRANCH  21  33
ENDBRANCH  20  21
ENDBRANCH   7  20
TORSDOF 6
ENDMDL
MODEL 6
REMARK VINA RESULT:      -7.6      2.234     11.041
REMARK  Name = 
REMARK  9 active torsions:
REMARK  status: ('A' for Active; 'I' for Inactive)
REMARK    1  A    between atoms: C_1  and  C_2
REMARK    2  A    between atoms: C_2  and  C_3
REMARK    3  A    between atoms: C_4  and  N_5
REMARK    4  A    between atoms: N_11  and  C_12
REMARK    5  A    between atoms: C_12  and  C_13
REMARK    6  A    between atoms: C_13  and  O_14
REMARK    7  A    between atoms: C_13  and  C_16
REMARK    8  A    between atoms: O_14  and  C_15
REMARK    9  A    between atoms: C_21  and  C_22
REMARK                            x       y       z     vdW  Elec       q    Type
REMARK                         _______ _______ _______ _____ _____    ______ ____
ROOT
ATOM      1  N   UNL     1      -2.333  11.596  19.295  0.00  0.00    +0.000 N 
ATOM      2  C   UNL     1      -1.341  12.262  20.103  0.00  0.00    +0.000 C 
ATOM      3  C   UNL     1      -0.014  11.751  19.593  0.00  0.00    +0.000 C 
ATOM      4  C   UNL     1      -0.329  10.359  19.021  0.00  0.00    +0.000 C 
ATOM      5  C   UNL     1       0.515  10.093  17.765  0.00  0.00    +0.000 C 
ATOM      6  C   UNL     1       1.956   9.764  18.146  0.00  0.00    +0.000 C 
ATOM      7  N   UNL     1       2.054   8.577  19.010  0.00  0.00    +0.000 NA
ATOM      8  C   UNL     1       1.313   8.834  20.263  0.00  0.00    +0.000 C 
ATOM      9  C   UNL     1      -0.158   9.236  20.062  0.00  0.00    +0.000 C 
ATOM     10  C   UNL     1      -1.799  10.475  18.639  0.00  0.00    +0.000 C 
ATOM     11  O   UNL     1      -2.363   9.721  17.870  0.00  0.00    +0.000 OA
ENDROOT
BRANCH   1  13
ATOM     12  C   UNL     1      -4.329  12.813  19.998  0.00  0.00    +0.000 C 
ATOM     13  C   UNL     1      -3.618  12.076  19.139  0.00  0.00    +0.000 C 
ATOM     14  C   UNL     1      -4.411  11.770  17.924  0.00  0.00    +0.000 C 
ATOM     15  O   UNL     1      -5.682  12.351  18.169  0.00  0.00    +0.000 OA
ATOM     16  C   UNL     1      -5.663  12.956  19.389  0.00  0.00    +0.000 C 
ATOM     17  O   UNL     1      -6.617  13.530  19.879  0.00  0.00    +0.000 OA
BRANCH  12  19
ATOM     18  C   UNL     1      -4.186  12.714  22.549  0.00  0.00    +0.000 C 
ATOM     19  C   UNL     1      -3.912  13.486  21.266  0.00  0.00    +0.000 C 
ENDBRANCH  12  19
ENDBRANCH   1  13
BRANCH   7  20
ATOM     20  C   UNL     1       1.562   7.331  18.355  0.00  0.00    +0.000 C 
BRANCH  20  21
ATOM     21  C   UNL     1       2.326   5.988  18.642  0.00  0.00    +0.000 C 
BRANCH  21  22
ATOM     22  C   UNL     1       3.492   5.780  17.667  0.00  0.00    +0.000 A 
ATOM     23  C   UNL     1       4.412   6.847  17.455  0.00  0.00    +0.000 A 
ATOM     24  C   UNL     1       5.540   6.699  16.653  0.00  0.00    +0.000 A 
ATOM     25  C   UNL     1       5.762   5.454  16.109  0.00  0.00    +0.000 A 
ATOM     26  C   UNL     1       4.911   4.385  16.314  0.00  0.00    +0.000 A 
ATOM     27  C   UNL     1       3.748   4.516  17.071  0.00  0.00    +0.000 A 
ATOM     28  C   UNL     1       2.844   3.330  17.270  0.00  0.00    +0.000 C 
ATOM     29  C   UNL     1       5.494   3.196  15.653  0.00  0.00    +0.000 C 
ATOM     30  O   UNL     1       6.691   3.697  15.028  0.00  0.00    +0.000 OA
ATOM     31  C   UNL     1       6.879   5.025  15.285  0.00  0.00    +0.000 C 
ATOM     32  O   UNL     1       7.805   5.714  14.898  0.00  0.00    +0.000 OA
ENDBRANCH  21  22
BRANCH  21  33
ATOM     33  O   UNL     1       2.888   6.002  19.966  0.00  0.00    +0.000 OA
ATOM     34  C   UNL     1       2.505   4.891  20.765  0.00  0.00    +0.000 C 
ENDBRANCH  21  33
ENDBRANCH  20  21
ENDBRANCH   7  20
TORSDOF 6
ENDMDL
MODEL 7
REMARK VINA RESULT:      -7.5      0.653      1.514
REMARK  Name = 
REMARK  9 active torsions:
REMARK  status: ('A' for Active; 'I' for Inactive)
REMARK    1  A    between atoms: C_1  and  C_2
REMARK    2  A    between atoms: C_2  and  C_3
REMARK    3  A    between atoms: C_4  and  N_5
REMARK    4  A    between atoms: N_11  and  C_12
REMARK    5  A    between atoms: C_12  and  C_13
REMARK    6  A    between atoms: C_13  and  O_14
REMARK    7  A    between atoms: C_13  and  C_16
REMARK    8  A    between atoms: O_14  and  C_15
REMARK    9  A    between atoms: C_21  and  C_22
REMARK                            x       y       z     vdW  Elec       q    Type
REMARK                         _______ _______ _______ _____ _____    ______ ____
ROOT
ATOM      1  N   UNL     1       2.168   7.386  19.075  0.00  0.00    +0.000 N 
ATOM      2  C   UNL     1       2.054   7.908  17.736  0.00  0.00    +0.000 C 
ATOM      3  C   UNL     1       1.748   9.377  17.914  0.00  0.00    +0.000 C 
ATOM      4  C   UNL     1       1.046   9.464  19.278  0.00  0.00    +0.000 C 
ATOM      5  C   UNL     1       1.455  10.751  20.010  0.00  0.00    +0.000 C 
ATOM      6  C   UNL     1       0.742  11.961  19.410  0.00  0.00    +0.000 C 
ATOM      7  N   UNL     1      -0.723  11.848  19.488  0.00  0.00    +0.000 NA
ATOM      8  C   UNL     1      -1.153  10.657  18.726  0.00  0.00    +0.000 C 
ATOM      9  C   UNL     1      -0.487   9.343  19.166  0.00  0.00    +0.000 C 
ATOM     10  C   UNL     1       1.596   8.253  20.020  0.00  0.00    +0.000 C 
ATOM     11  O   UNL     1       1.551   8.117  21.227  0.00  0.00    +0.000 OA
ENDROOT
BRANCH   1  13
ATOM     12  C   UNL     1       2.353   5.106  19.930  0.00  0.00    +0.000 C 
ATOM     13  C   UNL     1       2.841   6.216  19.368  0.00  0.00    +0.000 C 
ATOM     14  C   UNL     1       4.293   6.077  19.099  0.00  0.00    +0.000 C 
ATOM     15  O   UNL     1       4.631   4.796  19.607  0.00  0.00    +0.000 OA
ATOM     16  C   UNL     1       3.510   4.213  20.115  0.00  0.00    +0.000 C 
ATOM     17  O   UNL     1       3.490   3.113  20.633  0.00  0.00    +0.000 OA
BRANCH  12  19
ATOM     18  C   UNL     1       0.476   3.391  19.656  0.00  0.00    +0.000 C 
ATOM     19  C   UNL     1       0.941   4.721  20.233  0.00  0.00    +0.000 C 
ENDBRANCH  12  19
ENDBRANCH   1  13
BRANCH   7  20
ATOM     20  C   UNL     1      -1.234  11.789  20.887  0.00  0.00    +0.000 C 
BRANCH  20  21
ATOM     21  C   UNL     1      -1.844  13.095  21.513  0.00  0.00    +0.000 C 
BRANCH  21  22
ATOM     22  C   UNL     1      -3.278  12.870  22.008  0.00  0.00    +0.000 A 
ATOM     23  C   UNL     1      -3.545  12.945  23.405  0.00  0.00    +0.000 A 
ATOM     24  C   UNL     1      -4.836  12.837  23.916  0.00  0.00    +0.000 A 
ATOM     25  C   UNL     1      -5.859  12.706  23.005  0.00  0.00    +0.000 A 
ATOM     26  C   UNL     1      -5.647  12.659  21.641  0.00  0.00    +0.000 A 
ATOM     27  C   UNL     1      -4.362  12.714  21.103  0.00  0.00    +0.000 A 
ATOM     28  C   UNL     1      -4.169  12.656  19.612  0.00  0.00    +0.000 C 
ATOM     29  C   UNL     1      -6.964  12.593  20.969  0.00  0.00    +0.000 C 
ATOM     30  O   UNL     1      -7.908  12.553  22.056  0.00  0.00    +0.000 OA
ATOM     31  C   UNL     1      -7.286  12.625  23.270  0.00  0.00    +0.000 C 
ATOM     32  O   UNL     1      -7.825  12.622  24.361  0.00  0.00    +0.000 OA
ENDBRANCH  21  22
BRANCH  21  33
ATOM     33  O   UNL     1      -1.072  13.513  22.653  0.00  0.00    +0.000 OA
ATOM     34  C   UNL     1      -0.048  14.448  22.343  0.00  0.00    +0.000 C 
ENDBRANCH  21  33
ENDBRANCH  20  21
ENDBRANCH   7  20
TORSDOF 6
ENDMDL
MODEL 8
REMARK VINA RESULT:      -7.5      3.714      6.884
REMARK  Name = 
REMARK  9 active torsions:
REMARK  status: ('A' for Active; 'I' for Inactive)
REMARK    1  A    between atoms: C_1  and  C_2
REMARK    2  A    between atoms: C_2  and  C_3
REMARK    3  A    between atoms: C_4  and  N_5
REMARK    4  A    between atoms: N_11  and  C_12
REMARK    5  A    between atoms: C_12  and  C_13
REMARK    6  A    between atoms: C_13  and  O_14
REMARK    7  A    between atoms: C_13  and  C_16
REMARK    8  A    between atoms: O_14  and  C_15
REMARK    9  A    between atoms: C_21  and  C_22
REMARK                            x       y       z     vdW  Elec       q    Type
REMARK                         _______ _______ _______ _____ _____    ______ ____
ROOT
ATOM      1  N   UNL     1       1.750   8.167  19.687  0.00  0.00    +0.000 N 
ATOM      2  C   UNL     1       1.171   8.104  21.007  0.00  0.00    +0.000 C 
ATOM      3  C   UNL     1       0.034   9.099  20.983  0.00  0.00    +0.000 C 
ATOM      4  C   UNL     1       0.446  10.133  19.924  0.00  0.00    +0.000 C 
ATOM      5  C   UNL     1      -0.783  10.615  19.139  0.00  0.00    +0.000 C 
ATOM      6  C   UNL     1      -1.605  11.594  19.975  0.00  0.00    +0.000 C 
ATOM      7  N   UNL     1      -0.834  12.782  20.373  0.00  0.00    +0.000 NA
ATOM      8  C   UNL     1       0.316  12.353  21.196  0.00  0.00    +0.000 C 
ATOM      9  C   UNL     1       1.231  11.317  20.523  0.00  0.00    +0.000 C 
ATOM     10  C   UNL     1       1.361   9.332  19.007  0.00  0.00    +0.000 C 
ATOM     11  O   UNL     1       1.654   9.669  17.876  0.00  0.00    +0.000 OA
ENDROOT
BRANCH   1  13
ATOM     12  C   UNL     1       2.675   5.909  19.629  0.00  0.00    +0.000 C 
ATOM     13  C   UNL     1       2.516   7.148  19.156  0.00  0.00    +0.000 C 
ATOM     14  C   UNL     1       3.327   7.355  17.933  0.00  0.00    +0.000 C 
ATOM     15  O   UNL     1       4.028   6.134  17.757  0.00  0.00    +0.000 OA
ATOM     16  C   UNL     1       3.673   5.274  18.751  0.00  0.00    +0.000 C 
ATOM     17  O   UNL     1       4.121   4.149  18.870  0.00  0.00    +0.000 OA
BRANCH  12  19
ATOM     18  C   UNL     1       0.940   4.152  20.294  0.00  0.00    +0.000 C 
ATOM     19  C   UNL     1       1.957   5.198  20.730  0.00  0.00    +0.000 C 
ENDBRANCH  12  19
ENDBRANCH   1  13
BRANCH   7  20
ATOM     20  C   UNL     1      -0.375  13.599  19.214  0.00  0.00    +0.000 C 
BRANCH  20  21
ATOM     21  C   UNL     1       0.314  14.982  19.503  0.00  0.00    +0.000 C 
BRANCH  21  22
ATOM     22  C   UNL     1       1.836  14.904  19.333  0.00  0.00    +0.000 A 
ATOM     23  C   UNL     1       2.376  14.736  18.026  0.00  0.00    +0.000 A 
ATOM     24  C   UNL     1       3.748  14.744  17.788  0.00  0.00    +0.000 A 
ATOM     25  C   UNL     1       4.568  14.974  18.869  0.00  0.00    +0.000 A 
ATOM     26  C   UNL     1       4.084  15.171  20.148  0.00  0.00    +0.000 A 
ATOM     27  C   UNL     1       2.719  15.119  20.425  0.00  0.00    +0.000 A 
ATOM     28  C   UNL     1       2.230  15.335  21.831  0.00  0.00    +0.000 C 
ATOM     29  C   UNL     1       5.231  15.465  21.038  0.00  0.00    +0.000 C 
ATOM     30  O   UNL     1       6.377  15.363  20.172  0.00  0.00    +0.000 OA
ATOM     31  C   UNL     1       6.018  15.081  18.884  0.00  0.00    +0.000 C 
ATOM     32  O   UNL     1       6.767  14.946  17.936  0.00  0.00    +0.000 OA
ENDBRANCH  21  22
BRANCH  21  33
ATOM     33  O   UNL     1      -0.157  15.980  18.580  0.00  0.00    +0.000 OA
ATOM     34  C   UNL     1      -0.366  17.256  19.170  0.00  0.00    +0.000 C 
ENDBRANCH  21  33
ENDBRANCH  20  21
ENDBRANCH   7  20
TORSDOF 6
ENDMDL
MODEL 9
REMARK VINA RESULT:      -7.5      1.169      1.844
REMARK  Name = 
REMARK  9 active torsions:
REMARK  status: ('A' for Active; 'I' for Inactive)
REMARK    1  A    between atoms: C_1  and  C_2
REMARK    2  A    between atoms: C_2  and  C_3
REMARK    3  A    between atoms: C_4  and  N_5
REMARK    4  A    between atoms: N_11  and  C_12
REMARK    5  A    between atoms: C_12  and  C_13
REMARK    6  A    between atoms: C_13  and  O_14
REMARK    7  A    between atoms: C_13  and  C_16
REMARK    8  A    between atoms: O_14  and  C_15
REMARK    9  A    between atoms: C_21  and  C_22
REMARK                            x       y       z     vdW  Elec       q    Type
REMARK                         _______ _______ _______ _____ _____    ______ ____
ROOT
ATOM      1  N   UNL     1       2.684   7.185  18.772  0.00  0.00    +0.000 N 
ATOM      2  C   UNL     1       2.777   7.993  17.580  0.00  0.00    +0.000 C 
ATOM      3  C   UNL     1       2.355   9.378  18.013  0.00  0.00    +0.000 C 
ATOM      4  C   UNL     1       1.418   9.141  19.209  0.00  0.00    +0.000 C 
ATOM      5  C   UNL     1       1.612  10.239  20.266  0.00  0.00    +0.000 C 
ATOM      6  C   UNL     1       0.943  11.538  19.821  0.00  0.00    +0.000 C 
ATOM      7  N   UNL     1      -0.503  11.380  19.599  0.00  0.00    +0.000 NA
ATOM      8  C   UNL     1      -0.717  10.383  18.530  0.00  0.00    +0.000 C 
ATOM      9  C   UNL     1      -0.060   9.017  18.791  0.00  0.00    +0.000 C 
ATOM     10  C   UNL     1       1.902   7.806  19.759  0.00  0.00    +0.000 C 
ATOM     11  O   UNL     1       1.653   7.401  20.878  0.00  0.00    +0.000 OA
ENDROOT
BRANCH   1  13
ATOM     12  C   UNL     1       2.853   4.772  19.102  0.00  0.00    +0.000 C 
ATOM     13  C   UNL     1       3.365   5.994  18.924  0.00  0.00    +0.000 C 
ATOM     14  C   UNL     1       4.848   5.952  18.939  0.00  0.00    +0.000 C 
ATOM     15  O   UNL     1       5.166   4.594  19.200  0.00  0.00    +0.000 OA
ATOM     16  C   UNL     1       4.009   3.884  19.316  0.00  0.00    +0.000 C 
ATOM     17  O   UNL     1       3.964   2.692  19.553  0.00  0.00    +0.000 OA
BRANCH  12  19
ATOM     18  C   UNL     1       0.791   3.876  20.320  0.00  0.00    +0.000 C 
ATOM     19  C   UNL     1       1.439   4.297  19.008  0.00  0.00    +0.000 C 
ENDBRANCH  12  19
ENDBRANCH   1  13
BRANCH   7  20
ATOM     20  C   UNL     1      -1.248  10.998  20.832  0.00  0.00    +0.000 C 
BRANCH  20  21
ATOM     21  C   UNL     1      -1.333  12.040  22.005  0.00  0.00    +0.000 C 
BRANCH  21  22
ATOM     22  C   UNL     1      -2.786  12.317  22.414  0.00  0.00    +0.000 A 
ATOM     23  C   UNL     1      -3.156  12.175  23.781  0.00  0.00    +0.000 A 
ATOM     24  C   UNL     1      -4.432  12.492  24.237  0.00  0.00    +0.000 A 
ATOM     25  C   UNL     1      -5.316  13.003  23.313  0.00  0.00    +0.000 A 
ATOM     26  C   UNL     1      -4.989  13.184  21.983  0.00  0.00    +0.000 A 
ATOM     27  C   UNL     1      -3.735  12.828  21.488  0.00  0.00    +0.000 A 
ATOM     28  C   UNL     1      -3.415  13.038  20.033  0.00  0.00    +0.000 C 
ATOM     29  C   UNL     1      -6.141  13.818  21.304  0.00  0.00    +0.000 C 
ATOM     30  O   UNL     1      -7.139  13.922  22.338  0.00  0.00    +0.000 OA
ATOM     31  C   UNL     1      -6.680  13.455  23.536  0.00  0.00    +0.000 C 
ATOM     32  O   UNL     1      -7.294  13.426  24.586  0.00  0.00    +0.000 OA
ENDBRANCH  21  22
BRANCH  21  33
ATOM     33  O   UNL     1      -0.661  11.538  23.173  0.00  0.00    +0.000 OA
ATOM     34  C   UNL     1      -0.479  10.128  23.170  0.00  0.00    +0.000 C 
ENDBRANCH  21  33
ENDBRANCH  20  21
ENDBRANCH   7  20
TORSDOF 6
ENDMDL
