MODEL 1
REMARK VINA RESULT:      -8.1      0.000      0.000
REMARK  Name = 
REMARK  4 active torsions:
REMARK  status: ('A' for Active; 'I' for Inactive)
REMARK    1  A    between atoms: C_1  and  C_2
REMARK    2  A    between atoms: N_11  and  C_12
REMARK    3  A    between atoms: N_14  and  C_15
REMARK    4  A    between atoms: C_22  and  C_23
REMARK                            x       y       z     vdW  Elec       q    Type
REMARK                         _______ _______ _______ _____ _____    ______ ____
ROOT
ATOM      1  C   UNL     1       6.068   4.004  14.977  0.00  0.00    +0.000 C 
ATOM      2  C   UNL     1       5.233   4.672  16.029  0.00  0.00    +0.000 A 
ATOM      3  C   UNL     1       5.151   6.057  16.124  0.00  0.00    +0.000 A 
ATOM      4  C   UNL     1       4.362   6.650  17.121  0.00  0.00    +0.000 A 
ATOM      5  C   UNL     1       3.642   5.899  18.045  0.00  0.00    +0.000 A 
ATOM      6  N   UNL     1       2.920   6.532  18.985  0.00  0.00    +0.000 NA
ATOM      7  C   UNL     1       2.221   5.798  19.873  0.00  0.00    +0.000 A 
ATOM      8  N   UNL     1       1.437   6.423  20.852  0.00  0.00    +0.000 N 
ATOM      9  C   UNL     1       1.259   7.754  21.113  0.00  0.00    +0.000 C 
ATOM     10  N   UNL     1       2.278   8.559  20.687  0.00  0.00    +0.000 N 
ATOM     11  N   UNL     1       0.216   8.165  21.778  0.00  0.00    +0.000 NA
ATOM     12  N   UNL     1       2.211   4.455  19.857  0.00  0.00    +0.000 NA
ATOM     13  C   UNL     1       2.963   3.826  18.919  0.00  0.00    +0.000 A 
ATOM     14  C   UNL     1       2.980   2.322  18.980  0.00  0.00    +0.000 C 
ATOM     15  C   UNL     1       3.710   4.509  17.953  0.00  0.00    +0.000 A 
ATOM     16  C   UNL     1       4.500   3.902  16.938  0.00  0.00    +0.000 A 
ATOM     17  H   UNL     1       0.786   5.776  21.260  0.00  0.00    +0.000 HD
ATOM     18  H   UNL     1       2.743   8.214  19.840  0.00  0.00    +0.000 HD
ATOM     19  H   UNL     1       2.021   9.541  20.616  0.00  0.00    +0.000 HD
ENDROOT
BRANCH  11  20
ATOM     20  C   UNL     1       0.027   9.510  21.995  0.00  0.00    +0.000 C 
ATOM     21  O   UNL     1       0.232  10.098  23.052  0.00  0.00    +0.000 OA
ATOM     22  N   UNL     1      -0.391  10.137  20.869  0.00  0.00    +0.000 N 
ATOM     23  H   UNL     1      -0.581   9.478  20.126  0.00  0.00    +0.000 HD
BRANCH  22  24
ATOM     24  C   UNL     1      -0.768  11.538  20.663  0.00  0.00    +0.000 C 
ATOM     25  C   UNL     1       0.443  12.476  20.592  0.00  0.00    +0.000 C 
ATOM     26  C   UNL     1       0.874  12.872  19.184  0.00  0.00    +0.000 C 
ATOM     27  C   UNL     1      -0.303  13.412  18.388  0.00  0.00    +0.000 C 
ATOM     28  C   UNL     1      -1.372  12.339  18.246  0.00  0.00    +0.000 C 
ATOM     29  C   UNL     1      -1.850  11.795  19.595  0.00  0.00    +0.000 C 
ENDBRANCH  22  24
ENDBRANCH  11  20
TORSDOF 2
ENDMDL
MODEL 2
REMARK VINA RESULT:      -8.1      1.077      1.682
REMARK  Name = 
REMARK  4 active torsions:
REMARK  status: ('A' for Active; 'I' for Inactive)
REMARK    1  A    between atoms: C_1  and  C_2
REMARK    2  A    between atoms: N_11  and  C_12
REMARK    3  A    between atoms: N_14  and  C_15
REMARK    4  A    between atoms: C_22  and  C_23
REMARK                            x       y       z     vdW  Elec       q    Type
REMARK                         _______ _______ _______ _____ _____    ______ ____
ROOT
ATOM      1  C   UNL     1       5.979   4.069  15.076  0.00  0.00    +0.000 C 
ATOM      2  C   UNL     1       5.133   4.712  16.134  0.00  0.00    +0.000 A 
ATOM      3  C   UNL     1       5.267   6.058  16.457  0.00  0.00    +0.000 A 
ATOM      4  C   UNL     1       4.462   6.628  17.454  0.00  0.00    +0.000 A 
ATOM      5  C   UNL     1       3.513   5.891  18.156  0.00  0.00    +0.000 A 
ATOM      6  N   UNL     1       2.787   6.496  19.111  0.00  0.00    +0.000 NA
ATOM      7  C   UNL     1       1.866   5.777  19.782  0.00  0.00    +0.000 A 
ATOM      8  N   UNL     1       1.072   6.380  20.768  0.00  0.00    +0.000 N 
ATOM      9  C   UNL     1       1.082   7.666  21.233  0.00  0.00    +0.000 C 
ATOM     10  N   UNL     1       2.267   8.325  21.060  0.00  0.00    +0.000 N 
ATOM     11  N   UNL     1       0.042   8.156  21.848  0.00  0.00    +0.000 NA
ATOM     12  N   UNL     1       1.638   4.477  19.534  0.00  0.00    +0.000 NA
ATOM     13  C   UNL     1       2.394   3.869  18.585  0.00  0.00    +0.000 A 
ATOM     14  C   UNL     1       2.155   2.397  18.387  0.00  0.00    +0.000 C 
ATOM     15  C   UNL     1       3.363   4.543  17.834  0.00  0.00    +0.000 A 
ATOM     16  C   UNL     1       4.170   3.961  16.817  0.00  0.00    +0.000 A 
ATOM     17  H   UNL     1       0.276   5.809  20.989  0.00  0.00    +0.000 HD
ATOM     18  H   UNL     1       2.776   8.033  20.220  0.00  0.00    +0.000 HD
ATOM     19  H   UNL     1       2.187   9.337  21.133  0.00  0.00    +0.000 HD
ENDROOT
BRANCH  11  20
ATOM     20  C   UNL     1       0.050   9.465  22.272  0.00  0.00    +0.000 C 
ATOM     21  O   UNL     1       0.567   9.876  23.306  0.00  0.00    +0.000 OA
ATOM     22  N   UNL     1      -0.566  10.276  21.379  0.00  0.00    +0.000 N 
ATOM     23  H   UNL     1      -0.998   9.747  20.634  0.00  0.00    +0.000 HD
BRANCH  22  24
ATOM     24  C   UNL     1      -0.838  11.714  21.454  0.00  0.00    +0.000 C 
ATOM     25  C   UNL     1      -1.333  12.296  20.124  0.00  0.00    +0.000 C 
ATOM     26  C   UNL     1      -2.841  12.491  20.024  0.00  0.00    +0.000 C 
ATOM     27  C   UNL     1      -3.367  13.279  21.213  0.00  0.00    +0.000 C 
ATOM     28  C   UNL     1      -3.096  12.518  22.502  0.00  0.00    +0.000 C 
ATOM     29  C   UNL     1      -1.614  12.190  22.698  0.00  0.00    +0.000 C 
ENDBRANCH  22  24
ENDBRANCH  11  20
TORSDOF 2
ENDMDL
MODEL 3
REMARK VINA RESULT:      -8.0      2.531      9.055
REMARK  Name = 
REMARK  4 active torsions:
REMARK  status: ('A' for Active; 'I' for Inactive)
REMARK    1  A    between atoms: C_1  and  C_2
REMARK    2  A    between atoms: N_11  and  C_12
REMARK    3  A    between atoms: N_14  and  C_15
REMARK    4  A    between atoms: C_22  and  C_23
REMARK                            x       y       z     vdW  Elec       q    Type
REMARK                         _______ _______ _______ _____ _____    ______ ____
ROOT
ATOM      1  C   UNL     1      -2.809  13.303  23.833  0.00  0.00    +0.000 C 
ATOM      2  C   UNL     1      -1.985  12.398  22.965  0.00  0.00    +0.000 A 
ATOM      3  C   UNL     1      -1.579  11.141  23.400  0.00  0.00    +0.000 A 
ATOM      4  C   UNL     1      -0.807  10.321  22.565  0.00  0.00    +0.000 A 
ATOM      5  C   UNL     1      -0.415  10.716  21.289  0.00  0.00    +0.000 A 
ATOM      6  N   UNL     1       0.339   9.888  20.548  0.00  0.00    +0.000 NA
ATOM      7  C   UNL     1       0.710  10.276  19.312  0.00  0.00    +0.000 A 
ATOM      8  N   UNL     1       1.476   9.427  18.500  0.00  0.00    +0.000 N 
ATOM      9  C   UNL     1       1.984   8.186  18.765  0.00  0.00    +0.000 C 
ATOM     10  N   UNL     1       2.159   7.914  20.093  0.00  0.00    +0.000 N 
ATOM     11  N   UNL     1       2.322   7.387  17.792  0.00  0.00    +0.000 NA
ATOM     12  N   UNL     1       0.354  11.458  18.785  0.00  0.00    +0.000 NA
ATOM     13  C   UNL     1      -0.387  12.298  19.551  0.00  0.00    +0.000 A 
ATOM     14  C   UNL     1      -0.705  13.640  18.950  0.00  0.00    +0.000 C 
ATOM     15  C   UNL     1      -0.824  11.971  20.839  0.00  0.00    +0.000 A 
ATOM     16  C   UNL     1      -1.616  12.803  21.678  0.00  0.00    +0.000 A 
ATOM     17  H   UNL     1       1.453   9.728  17.542  0.00  0.00    +0.000 HD
ATOM     18  H   UNL     1       1.472   8.376  20.698  0.00  0.00    +0.000 HD
ATOM     19  H   UNL     1       2.253   6.922  20.299  0.00  0.00    +0.000 HD
ENDROOT
BRANCH  11  20
ATOM     20  C   UNL     1       2.790   6.124  18.073  0.00  0.00    +0.000 C 
ATOM     21  O   UNL     1       2.093   5.141  18.306  0.00  0.00    +0.000 OA
ATOM     22  N   UNL     1       4.143   6.078  18.029  0.00  0.00    +0.000 N 
ATOM     23  H   UNL     1       4.542   6.998  17.903  0.00  0.00    +0.000 HD
BRANCH  22  24
ATOM     24  C   UNL     1       5.052   4.965  18.319  0.00  0.00    +0.000 C 
ATOM     25  C   UNL     1       5.453   4.182  17.063  0.00  0.00    +0.000 C 
ATOM     26  C   UNL     1       6.820   4.535  16.489  0.00  0.00    +0.000 C 
ATOM     27  C   UNL     1       7.894   4.465  17.562  0.00  0.00    +0.000 C 
ATOM     28  C   UNL     1       7.596   5.472  18.663  0.00  0.00    +0.000 C 
ATOM     29  C   UNL     1       6.212   5.276  19.286  0.00  0.00    +0.000 C 
ENDBRANCH  22  24
ENDBRANCH  11  20
TORSDOF 2
ENDMDL
MODEL 4
REMARK VINA RESULT:      -8.0      6.598      9.659
REMARK  Name = 
REMARK  4 active torsions:
REMARK  status: ('A' for Active; 'I' for Inactive)
REMARK    1  A    between atoms: C_1  and  C_2
REMARK    2  A    between atoms: N_11  and  C_12
REMARK    3  A    between atoms: N_14  and  C_15
REMARK    4  A    between atoms: C_22  and  C_23
REMARK                            x       y       z     vdW  Elec       q    Type
REMARK                         _______ _______ _______ _____ _____    ______ ____
ROOT
ATOM      1  C   UNL     1      10.046  15.053  22.555  0.00  0.00    +0.000 C 
ATOM      2  C   UNL     1       9.705  13.830  21.756  0.00  0.00    +0.000 A 
ATOM      3  C   UNL     1       9.317  12.643  22.370  0.00  0.00    +0.000 A 
ATOM      4  C   UNL     1       9.007  11.516  21.595  0.00  0.00    +0.000 A 
ATOM      5  C   UNL     1       9.074  11.528  20.204  0.00  0.00    +0.000 A 
ATOM      6  N   UNL     1       8.780  10.408  19.523  0.00  0.00    +0.000 NA
ATOM      7  C   UNL     1       8.842  10.430  18.177  0.00  0.00    +0.000 A 
ATOM      8  N   UNL     1       8.519   9.287  17.432  0.00  0.00    +0.000 N 
ATOM      9  C   UNL     1       8.149   8.041  17.857  0.00  0.00    +0.000 C 
ATOM     10  N   UNL     1       8.564   7.724  19.120  0.00  0.00    +0.000 N 
ATOM     11  N   UNL     1       7.512   7.231  17.058  0.00  0.00    +0.000 NA
ATOM     12  N   UNL     1       9.182  11.528  17.484  0.00  0.00    +0.000 NA
ATOM     13  C   UNL     1       9.501  12.647  18.182  0.00  0.00    +0.000 A 
ATOM     14  C   UNL     1       9.944  13.834  17.370  0.00  0.00    +0.000 C 
ATOM     15  C   UNL     1       9.453  12.716  19.578  0.00  0.00    +0.000 A 
ATOM     16  C   UNL     1       9.758  13.864  20.359  0.00  0.00    +0.000 A 
ATOM     17  H   UNL     1       8.358   9.520  16.468  0.00  0.00    +0.000 HD
ATOM     18  H   UNL     1       8.615   8.533  19.747  0.00  0.00    +0.000 HD
ATOM     19  H   UNL     1       8.056   6.945  19.534  0.00  0.00    +0.000 HD
ENDROOT
BRANCH  11  20
ATOM     20  C   UNL     1       7.108   5.997  17.513  0.00  0.00    +0.000 C 
ATOM     21  O   UNL     1       7.790   4.977  17.507  0.00  0.00    +0.000 OA
ATOM     22  N   UNL     1       5.850   6.044  18.012  0.00  0.00    +0.000 N 
ATOM     23  H   UNL     1       5.422   6.946  17.857  0.00  0.00    +0.000 HD
BRANCH  22  24
ATOM     24  C   UNL     1       5.011   4.963  18.540  0.00  0.00    +0.000 C 
ATOM     25  C   UNL     1       3.854   5.476  19.406  0.00  0.00    +0.000 C 
ATOM     26  C   UNL     1       2.503   5.549  18.703  0.00  0.00    +0.000 C 
ATOM     27  C   UNL     1       2.164   4.225  18.039  0.00  0.00    +0.000 C 
ATOM     28  C   UNL     1       3.204   3.893  16.979  0.00  0.00    +0.000 C 
ATOM     29  C   UNL     1       4.629   3.856  17.537  0.00  0.00    +0.000 C 
ENDBRANCH  22  24
ENDBRANCH  11  20
TORSDOF 2
ENDMDL
MODEL 5
REMARK VINA RESULT:      -8.0      2.280      3.559
REMARK  Name = 
REMARK  4 active torsions:
REMARK  status: ('A' for Active; 'I' for Inactive)
REMARK    1  A    between atoms: C_1  and  C_2
REMARK    2  A    between atoms: N_11  and  C_12
REMARK    3  A    between atoms: N_14  and  C_15
REMARK    4  A    between atoms: C_22  and  C_23
REMARK                            x       y       z     vdW  Elec       q    Type
REMARK                         _______ _______ _______ _____ _____    ______ ____
ROOT
ATOM      1  C   UNL     1       3.505   1.392  18.753  0.00  0.00    +0.000 C 
ATOM      2  C   UNL     1       3.009   2.740  19.184  0.00  0.00    +0.000 A 
ATOM      3  C   UNL     1       2.131   2.885  20.254  0.00  0.00    +0.000 A 
ATOM      4  C   UNL     1       1.683   4.159  20.631  0.00  0.00    +0.000 A 
ATOM      5  C   UNL     1       2.082   5.315  19.967  0.00  0.00    +0.000 A 
ATOM      6  N   UNL     1       1.602   6.503  20.370  0.00  0.00    +0.000 NA
ATOM      7  C   UNL     1       1.997   7.618  19.725  0.00  0.00    +0.000 A 
ATOM      8  N   UNL     1       1.535   8.878  20.133  0.00  0.00    +0.000 N 
ATOM      9  C   UNL     1       0.661   9.208  21.130  0.00  0.00    +0.000 C 
ATOM     10  N   UNL     1      -0.205   8.210  21.482  0.00  0.00    +0.000 N 
ATOM     11  N   UNL     1       0.647  10.413  21.627  0.00  0.00    +0.000 NA
ATOM     12  N   UNL     1       2.858   7.594  18.695  0.00  0.00    +0.000 NA
ATOM     13  C   UNL     1       3.319   6.387  18.280  0.00  0.00    +0.000 A 
ATOM     14  C   UNL     1       4.226   6.398  17.080  0.00  0.00    +0.000 C 
ATOM     15  C   UNL     1       2.969   5.182  18.899  0.00  0.00    +0.000 A 
ATOM     16  C   UNL     1       3.435   3.893  18.518  0.00  0.00    +0.000 A 
ATOM     17  H   UNL     1       2.101   9.611  19.745  0.00  0.00    +0.000 HD
ATOM     18  H   UNL     1       0.192   7.271  21.377  0.00  0.00    +0.000 HD
ATOM     19  H   UNL     1      -0.641   8.348  22.391  0.00  0.00    +0.000 HD
ENDROOT
BRANCH  11  20
ATOM     20  C   UNL     1      -0.208  10.719  22.660  0.00  0.00    +0.000 C 
ATOM     21  O   UNL     1      -0.431  10.008  23.636  0.00  0.00    +0.000 OA
ATOM     22  N   UNL     1      -0.766  11.942  22.493  0.00  0.00    +0.000 N 
ATOM     23  H   UNL     1      -0.526  12.340  21.595  0.00  0.00    +0.000 HD
BRANCH  22  24
ATOM     24  C   UNL     1      -1.768  12.633  23.310  0.00  0.00    +0.000 C 
ATOM     25  C   UNL     1      -1.432  14.112  23.538  0.00  0.00    +0.000 C 
ATOM     26  C   UNL     1      -2.174  15.091  22.635  0.00  0.00    +0.000 C 
ATOM     27  C   UNL     1      -3.673  14.841  22.680  0.00  0.00    +0.000 C 
ATOM     28  C   UNL     1      -3.982  13.441  22.173  0.00  0.00    +0.000 C 
ATOM     29  C   UNL     1      -3.241  12.351  22.952  0.00  0.00    +0.000 C 
ENDBRANCH  22  24
ENDBRANCH  11  20
TORSDOF 2
ENDMDL
MODEL 6
REMARK VINA RESULT:      -8.0      2.321      9.029
REMARK  Name = 
REMARK  4 active torsions:
REMARK  status: ('A' for Active; 'I' for Inactive)
REMARK    1  A    between atoms: C_1  and  C_2
REMARK    2  A    between atoms: N_11  and  C_12
REMARK    3  A    between atoms: N_14  and  C_15
REMARK    4  A    between atoms: C_22  and  C_23
REMARK                            x       y       z     vdW  Elec       q    Type
REMARK                         _______ _______ _______ _____ _____    ______ ____
ROOT
ATOM      1  C   UNL     1      -2.873  13.761  23.709  0.00  0.00    +0.000 C 
ATOM      2  C   UNL     1      -2.047  12.788  22.920  0.00  0.00    +0.000 A 
ATOM      3  C   UNL     1      -1.824  11.490  23.368  0.00  0.00    +0.000 A 
ATOM      4  C   UNL     1      -1.045  10.606  22.608  0.00  0.00    +0.000 A 
ATOM      5  C   UNL     1      -0.467  10.976  21.397  0.00  0.00    +0.000 A 
ATOM      6  N   UNL     1       0.282  10.084  20.727  0.00  0.00    +0.000 NA
ATOM      7  C   UNL     1       0.833  10.448  19.553  0.00  0.00    +0.000 A 
ATOM      8  N   UNL     1       1.601   9.537  18.814  0.00  0.00    +0.000 N 
ATOM      9  C   UNL     1       1.947   8.246  19.105  0.00  0.00    +0.000 C 
ATOM     10  N   UNL     1       1.936   7.941  20.438  0.00  0.00    +0.000 N 
ATOM     11  N   UNL     1       2.315   7.429  18.158  0.00  0.00    +0.000 NA
ATOM     12  N   UNL     1       0.663  11.668  19.018  0.00  0.00    +0.000 NA
ATOM     13  C   UNL     1      -0.075  12.569  19.714  0.00  0.00    +0.000 A 
ATOM     14  C   UNL     1      -0.184  13.945  19.114  0.00  0.00    +0.000 C 
ATOM     15  C   UNL     1      -0.692  12.272  20.934  0.00  0.00    +0.000 A 
ATOM     16  C   UNL     1      -1.490  13.170  21.696  0.00  0.00    +0.000 A 
ATOM     17  H   UNL     1       1.722   9.851  17.868  0.00  0.00    +0.000 HD
ATOM     18  H   UNL     1       1.232   8.462  20.970  0.00  0.00    +0.000 HD
ATOM     19  H   UNL     1       1.905   6.941  20.628  0.00  0.00    +0.000 HD
ENDROOT
BRANCH  11  20
ATOM     20  C   UNL     1       2.617   6.122  18.460  0.00  0.00    +0.000 C 
ATOM     21  O   UNL     1       3.588   5.746  19.109  0.00  0.00    +0.000 OA
ATOM     22  N   UNL     1       1.679   5.274  17.974  0.00  0.00    +0.000 N 
ATOM     23  H   UNL     1       1.002   5.758  17.401  0.00  0.00    +0.000 HD
BRANCH  22  24
ATOM     24  C   UNL     1       1.633   3.809  18.010  0.00  0.00    +0.000 C 
ATOM     25  C   UNL     1       2.661   3.158  17.076  0.00  0.00    +0.000 C 
ATOM     26  C   UNL     1       3.933   2.668  17.757  0.00  0.00    +0.000 C 
ATOM     27  C   UNL     1       3.606   1.776  18.943  0.00  0.00    +0.000 C 
ATOM     28  C   UNL     1       2.815   2.558  19.980  0.00  0.00    +0.000 C 
ATOM     29  C   UNL     1       1.534   3.172  19.410  0.00  0.00    +0.000 C 
ENDBRANCH  22  24
ENDBRANCH  11  20
TORSDOF 2
ENDMDL
MODEL 7
REMARK VINA RESULT:      -7.9      2.271      8.337
REMARK  Name = 
REMARK  4 active torsions:
REMARK  status: ('A' for Active; 'I' for Inactive)
REMARK    1  A    between atoms: C_1  and  C_2
REMARK    2  A    between atoms: N_11  and  C_12
REMARK    3  A    between atoms: N_14  and  C_15
REMARK    4  A    between atoms: C_22  and  C_23
REMARK                            x       y       z     vdW  Elec       q    Type
REMARK                         _______ _______ _______ _____ _____    ______ ____
ROOT
ATOM      1  C   UNL     1      -1.872  14.280  20.434  0.00  0.00    +0.000 C 
ATOM      2  C   UNL     1      -1.093  13.014  20.234  0.00  0.00    +0.000 A 
ATOM      3  C   UNL     1      -0.454  12.734  19.030  0.00  0.00    +0.000 A 
ATOM      4  C   UNL     1       0.264  11.540  18.874  0.00  0.00    +0.000 A 
ATOM      5  C   UNL     1       0.369  10.596  19.890  0.00  0.00    +0.000 A 
ATOM      6  N   UNL     1       1.059   9.465  19.668  0.00  0.00    +0.000 NA
ATOM      7  C   UNL     1       1.160   8.558  20.660  0.00  0.00    +0.000 A 
ATOM      8  N   UNL     1       1.892   7.377  20.472  0.00  0.00    +0.000 N 
ATOM      9  C   UNL     1       2.554   6.925  19.365  0.00  0.00    +0.000 C 
ATOM     10  N   UNL     1       2.099   7.434  18.181  0.00  0.00    +0.000 N 
ATOM     11  N   UNL     1       3.494   6.028  19.475  0.00  0.00    +0.000 NA
ATOM     12  N   UNL     1       0.602   8.738  21.867  0.00  0.00    +0.000 NA
ATOM     13  C   UNL     1      -0.113   9.872  22.074  0.00  0.00    +0.000 A 
ATOM     14  C   UNL     1      -0.780  10.003  23.417  0.00  0.00    +0.000 C 
ATOM     15  C   UNL     1      -0.260  10.870  21.105  0.00  0.00    +0.000 A 
ATOM     16  C   UNL     1      -0.982  12.084  21.272  0.00  0.00    +0.000 A 
ATOM     17  H   UNL     1       2.096   6.936  21.351  0.00  0.00    +0.000 HD
ATOM     18  H   UNL     1       1.736   8.390  18.261  0.00  0.00    +0.000 HD
ATOM     19  H   UNL     1       2.757   7.333  17.411  0.00  0.00    +0.000 HD
ENDROOT
BRANCH  11  20
ATOM     20  C   UNL     1       4.182   5.614  18.358  0.00  0.00    +0.000 C 
ATOM     21  O   UNL     1       4.103   4.504  17.842  0.00  0.00    +0.000 OA
ATOM     22  N   UNL     1       4.953   6.609  17.857  0.00  0.00    +0.000 N 
ATOM     23  H   UNL     1       4.950   7.420  18.460  0.00  0.00    +0.000 HD
BRANCH  22  24
ATOM     24  C   UNL     1       5.886   6.592  16.727  0.00  0.00    +0.000 C 
ATOM     25  C   UNL     1       7.195   5.859  17.047  0.00  0.00    +0.000 C 
ATOM     26  C   UNL     1       7.277   4.427  16.533  0.00  0.00    +0.000 C 
ATOM     27  C   UNL     1       6.944   4.361  15.051  0.00  0.00    +0.000 C 
ATOM     28  C   UNL     1       5.520   4.841  14.817  0.00  0.00    +0.000 C 
ATOM     29  C   UNL     1       5.274   6.254  15.353  0.00  0.00    +0.000 C 
ENDBRANCH  22  24
ENDBRANCH  11  20
TORSDOF 2
ENDMDL
MODEL 8
REMARK VINA RESULT:      -7.9      1.820      2.504
REMARK  Name = 
REMARK  4 active torsions:
REMARK  status: ('A' for Active; 'I' for Inactive)
REMARK    1  A    between atoms: C_1  and  C_2
REMARK    2  A    between atoms: N_11  and  C_12
REMARK    3  A    between atoms: N_14  and  C_15
REMARK    4  A    between atoms: C_22  and  C_23
REMARK                            x       y       z     vdW  Elec       q    Type
REMARK                         _______ _______ _______ _____ _____    ______ ____
ROOT
ATOM      1  C   UNL     1       6.692   4.071  15.241  0.00  0.00    +0.000 C 
ATOM      2  C   UNL     1       5.727   4.933  16.000  0.00  0.00    +0.000 A 
ATOM      3  C   UNL     1       5.329   6.177  15.520  0.00  0.00    +0.000 A 
ATOM      4  C   UNL     1       4.427   6.960  16.255  0.00  0.00    +0.000 A 
ATOM      5  C   UNL     1       3.899   6.543  17.473  0.00  0.00    +0.000 A 
ATOM      6  N   UNL     1       3.053   7.350  18.134  0.00  0.00    +0.000 NA
ATOM      7  C   UNL     1       2.543   6.936  19.310  0.00  0.00    +0.000 A 
ATOM      8  N   UNL     1       1.637   7.742  20.015  0.00  0.00    +0.000 N 
ATOM      9  C   UNL     1       1.159   8.988  19.718  0.00  0.00    +0.000 C 
ATOM     10  N   UNL     1       1.965   9.727  18.898  0.00  0.00    +0.000 N 
ATOM     11  N   UNL     1       0.050   9.417  20.253  0.00  0.00    +0.000 NA
ATOM     12  N   UNL     1       2.842   5.745  19.852  0.00  0.00    +0.000 NA
ATOM     13  C   UNL     1       3.717   4.947  19.190  0.00  0.00    +0.000 A 
ATOM     14  C   UNL     1       4.079   3.652  19.865  0.00  0.00    +0.000 C 
ATOM     15  C   UNL     1       4.285   5.293  17.959  0.00  0.00    +0.000 A 
ATOM     16  C   UNL     1       5.191   4.490  17.213  0.00  0.00    +0.000 A 
ATOM     17  H   UNL     1       1.154   7.210  20.717  0.00  0.00    +0.000 HD
ATOM     18  H   UNL     1       2.495   9.159  18.229  0.00  0.00    +0.000 HD
ATOM     19  H   UNL     1       1.490  10.509  18.453  0.00  0.00    +0.000 HD
ENDROOT
BRANCH  11  20
ATOM     20  C   UNL     1      -0.442  10.655  19.911  0.00  0.00    +0.000 C 
ATOM     21  O   UNL     1      -0.092  11.723  20.404  0.00  0.00    +0.000 OA
ATOM     22  N   UNL     1      -1.359  10.563  18.919  0.00  0.00    +0.000 N 
ATOM     23  H   UNL     1      -1.575   9.601  18.699  0.00  0.00    +0.000 HD
BRANCH  22  24
ATOM     24  C   UNL     1      -2.172  11.612  18.296  0.00  0.00    +0.000 C 
ATOM     25  C   UNL     1      -2.412  11.370  16.800  0.00  0.00    +0.000 C 
ATOM     26  C   UNL     1      -3.768  10.765  16.453  0.00  0.00    +0.000 C 
ATOM     27  C   UNL     1      -4.897  11.564  17.081  0.00  0.00    +0.000 C 
ATOM     28  C   UNL     1      -4.770  11.540  18.597  0.00  0.00    +0.000 C 
ATOM     29  C   UNL     1      -3.417  12.060  19.087  0.00  0.00    +0.000 C 
ENDBRANCH  22  24
ENDBRANCH  11  20
TORSDOF 2
ENDMDL
MODEL 9
REMARK VINA RESULT:      -7.8      0.948      1.643
REMARK  Name = 
REMARK  4 active torsions:
REMARK  status: ('A' for Active; 'I' for Inactive)
REMARK    1  A    between atoms: C_1  and  C_2
REMARK    2  A    between atoms: N_11  and  C_12
REMARK    3  A    between atoms: N_14  and  C_15
REMARK    4  A    between atoms: C_22  and  C_23
REMARK                            x       y       z     vdW  Elec       q    Type
REMARK                         _______ _______ _______ _____ _____    ______ ____
ROOT
ATOM      1  C   UNL     1       6.084   4.080  15.116  0.00  0.00    +0.000 C 
ATOM      2  C   UNL     1       5.235   4.758  16.151  0.00  0.00    +0.000 A 
ATOM      3  C   UNL     1       5.183   6.145  16.256  0.00  0.00    +0.000 A 
ATOM      4  C   UNL     1       4.381   6.747  17.236  0.00  0.00    +0.000 A 
ATOM      5  C   UNL     1       3.619   6.006  18.134  0.00  0.00    +0.000 A 
ATOM      6  N   UNL     1       2.887   6.647  19.060  0.00  0.00    +0.000 NA
ATOM      7  C   UNL     1       2.148   5.921  19.922  0.00  0.00    +0.000 A 
ATOM      8  N   UNL     1       1.352   6.557  20.886  0.00  0.00    +0.000 N 
ATOM      9  C   UNL     1       1.197   7.888  21.153  0.00  0.00    +0.000 C 
ATOM     10  N   UNL     1       2.246   8.673  20.762  0.00  0.00    +0.000 N 
ATOM     11  N   UNL     1       0.146   8.318  21.794  0.00  0.00    +0.000 NA
ATOM     12  N   UNL     1       2.108   4.580  19.894  0.00  0.00    +0.000 NA
ATOM     13  C   UNL     1       2.870   3.941  18.971  0.00  0.00    +0.000 A 
ATOM     14  C   UNL     1       2.851   2.437  19.018  0.00  0.00    +0.000 C 
ATOM     15  C   UNL     1       3.658   4.615  18.032  0.00  0.00    +0.000 A 
ATOM     16  C   UNL     1       4.461   3.998  17.033  0.00  0.00    +0.000 A 
ATOM     17  H   UNL     1       0.676   5.921  21.270  0.00  0.00    +0.000 HD
ATOM     18  H   UNL     1       2.725   8.325  19.925  0.00  0.00    +0.000 HD
ATOM     19  H   UNL     1       2.014   9.662  20.693  0.00  0.00    +0.000 HD
ENDROOT
BRANCH  11  20
ATOM     20  C   UNL     1      -0.018   9.665  22.018  0.00  0.00    +0.000 C 
ATOM     21  O   UNL     1       0.413  10.285  22.985  0.00  0.00    +0.000 OA
ATOM     22  N   UNL     1      -0.698  10.254  21.005  0.00  0.00    +0.000 N 
ATOM     23  H   UNL     1      -1.039   9.572  20.341  0.00  0.00    +0.000 HD
BRANCH  22  24
ATOM     24  C   UNL     1      -1.144  11.643  20.860  0.00  0.00    +0.000 C 
ATOM     25  C   UNL     1      -2.058  12.098  22.004  0.00  0.00    +0.000 C 
ATOM     26  C   UNL     1      -1.375  12.922  23.089  0.00  0.00    +0.000 C 
ATOM     27  C   UNL     1      -0.609  14.087  22.485  0.00  0.00    +0.000 C 
ATOM     28  C   UNL     1       0.483  13.568  21.562  0.00  0.00    +0.000 C 
ATOM     29  C   UNL     1      -0.058  12.660  20.455  0.00  0.00    +0.000 C 
ENDBRANCH  22  24
ENDBRANCH  11  20
TORSDOF 2
ENDMDL
