MODEL 1
REMARK VINA RESULT:      -7.7      0.000      0.000
REMARK  Name = 
REMARK  8 active torsions:
REMARK  status: ('A' for Active; 'I' for Inactive)
REMARK    1  A    between atoms: C_1  and  C_2
REMARK    2  A    between atoms: C_2  and  C_12
REMARK    3  A    between atoms: C_3  and  C_4
REMARK    4  A    between atoms: C_5  and  C_6
REMARK    5  A    between atoms: C_6  and  C_7
REMARK    6  A    between atoms: C_8  and  C_9
REMARK    7  A    between atoms: C_9  and  O_11
REMARK    8  A    between atoms: C_16  and  C_17
REMARK                            x       y       z     vdW  Elec       q    Type
REMARK                         _______ _______ _______ _____ _____    ______ ____
ROOT
ATOM      1  C   UNL     1       1.653   9.193  22.547  0.00  0.00    +0.000 C 
ATOM      2  C   UNL     1       0.972   8.790  21.259  0.00  0.00    +0.000 C 
ATOM      3  C   UNL     1       0.378   9.744  20.521  0.00  0.00    +0.000 C 
ENDROOT
BRANCH   2   4
ATOM      4  C   UNL     1       1.067   7.362  20.955  0.00  0.00    +0.000 C 
ATOM      5  C   UNL     1       1.820   6.769  19.998  0.00  0.00    +0.000 C 
ATOM      6  C   UNL     1       2.715   7.604  19.101  0.00  0.00    +0.000 C 
ATOM      7  C   UNL     1       3.022   6.964  17.755  0.00  0.00    +0.000 C 
ATOM      8  C   UNL     1       3.601   5.563  17.925  0.00  0.00    +0.000 C 
ATOM      9  C   UNL     1       5.013   5.563  18.516  0.00  0.00    +0.000 C 
ATOM     10  C   UNL     1       2.688   4.713  18.783  0.00  0.00    +0.000 A 
ATOM     11  C   UNL     1       2.754   3.316  18.603  0.00  0.00    +0.000 A 
ATOM     12  C   UNL     1       1.978   2.458  19.368  0.00  0.00    +0.000 A 
ATOM     13  C   UNL     1       1.109   2.994  20.310  0.00  0.00    +0.000 A 
ATOM     14  C   UNL     1       1.033   4.384  20.496  0.00  0.00    +0.000 A 
ATOM     15  C   UNL     1       1.834   5.280  19.760  0.00  0.00    +0.000 A 
ENDBRANCH   2   4
BRANCH   3  16
ATOM     16  C   UNL     1      -0.304   9.715  19.249  0.00  0.00    +0.000 C 
ATOM     17  C   UNL     1      -1.346  10.489  18.900  0.00  0.00    +0.000 C 
BRANCH  17  18
ATOM     18  C   UNL     1      -2.225  10.226  17.754  0.00  0.00    +0.000 C 
ATOM     19  C   UNL     1      -3.499   9.443  17.972  0.00  0.00    +0.000 C 
ATOM     20  C   UNL     1      -1.915  10.741  16.546  0.00  0.00    +0.000 C 
BRANCH  20  21
ATOM     21  C   UNL     1      -2.843  10.721  15.387  0.00  0.00    +0.000 C 
ATOM     22  O   UNL     1      -2.891   9.847  14.538  0.00  0.00    +0.000 OA
BRANCH  21  23
ATOM     23  O   UNL     1      -3.688  11.769  15.405  0.00  0.00    +0.000 OA
ATOM     24  H   UNL     1      -4.590  11.566  15.086  0.00  0.00    +0.000 HD
ENDBRANCH  21  23
ENDBRANCH  20  21
ENDBRANCH  17  18
ENDBRANCH   3  16
TORSDOF 5
ENDMDL
MODEL 2
REMARK VINA RESULT:      -7.3      1.055      1.367
REMARK  Name = 
REMARK  8 active torsions:
REMARK  status: ('A' for Active; 'I' for Inactive)
REMARK    1  A    between atoms: C_1  and  C_2
REMARK    2  A    between atoms: C_2  and  C_12
REMARK    3  A    between atoms: C_3  and  C_4
REMARK    4  A    between atoms: C_5  and  C_6
REMARK    5  A    between atoms: C_6  and  C_7
REMARK    6  A    between atoms: C_8  and  C_9
REMARK    7  A    between atoms: C_9  and  O_11
REMARK    8  A    between atoms: C_16  and  C_17
REMARK                            x       y       z     vdW  Elec       q    Type
REMARK                         _______ _______ _______ _____ _____    ______ ____
ROOT
ATOM      1  C   UNL     1       1.979   9.186  22.658  0.00  0.00    +0.000 C 
ATOM      2  C   UNL     1       1.111   8.834  21.470  0.00  0.00    +0.000 C 
ATOM      3  C   UNL     1       0.415   9.815  20.871  0.00  0.00    +0.000 C 
ENDROOT
BRANCH   2   4
ATOM      4  C   UNL     1       1.158   7.421  21.096  0.00  0.00    +0.000 C 
ATOM      5  C   UNL     1       1.835   6.862  20.064  0.00  0.00    +0.000 C 
ATOM      6  C   UNL     1       2.684   7.723  19.148  0.00  0.00    +0.000 C 
ATOM      7  C   UNL     1       2.888   7.143  17.757  0.00  0.00    +0.000 C 
ATOM      8  C   UNL     1       3.450   5.726  17.822  0.00  0.00    +0.000 C 
ATOM      9  C   UNL     1       4.898   5.675  18.316  0.00  0.00    +0.000 C 
ATOM     10  C   UNL     1       2.580   4.852  18.700  0.00  0.00    +0.000 A 
ATOM     11  C   UNL     1       2.607   3.464  18.452  0.00  0.00    +0.000 A 
ATOM     12  C   UNL     1       1.867   2.584  19.227  0.00  0.00    +0.000 A 
ATOM     13  C   UNL     1       1.074   3.089  20.249  0.00  0.00    +0.000 A 
ATOM     14  C   UNL     1       1.037   4.469  20.504  0.00  0.00    +0.000 A 
ATOM     15  C   UNL     1       1.804   5.386  19.758  0.00  0.00    +0.000 A 
ENDBRANCH   2   4
BRANCH   3  16
ATOM     16  C   UNL     1      -0.450   9.837  19.715  0.00  0.00    +0.000 C 
ATOM     17  C   UNL     1      -1.127  10.905  19.263  0.00  0.00    +0.000 C 
BRANCH  17  18
ATOM     18  C   UNL     1      -2.240  10.836  18.306  0.00  0.00    +0.000 C 
ATOM     19  C   UNL     1      -2.155   9.862  17.154  0.00  0.00    +0.000 C 
ATOM     20  C   UNL     1      -3.339  11.593  18.508  0.00  0.00    +0.000 C 
BRANCH  20  21
ATOM     21  C   UNL     1      -4.594  11.432  17.732  0.00  0.00    +0.000 C 
ATOM     22  O   UNL     1      -5.533  10.722  18.049  0.00  0.00    +0.000 OA
BRANCH  21  23
ATOM     23  O   UNL     1      -4.611  12.220  16.640  0.00  0.00    +0.000 OA
ATOM     24  H   UNL     1      -5.479  12.631  16.452  0.00  0.00    +0.000 HD
ENDBRANCH  21  23
ENDBRANCH  20  21
ENDBRANCH  17  18
ENDBRANCH   3  16
TORSDOF 5
ENDMDL
MODEL 3
REMARK VINA RESULT:      -7.3      1.409      2.863
REMARK  Name = 
REMARK  8 active torsions:
REMARK  status: ('A' for Active; 'I' for Inactive)
REMARK    1  A    between atoms: C_1  and  C_2
REMARK    2  A    between atoms: C_2  and  C_12
REMARK    3  A    between atoms: C_3  and  C_4
REMARK    4  A    between atoms: C_5  and  C_6
REMARK    5  A    between atoms: C_6  and  C_7
REMARK    6  A    between atoms: C_8  and  C_9
REMARK    7  A    between atoms: C_9  and  O_11
REMARK    8  A    between atoms: C_16  and  C_17
REMARK                            x       y       z     vdW  Elec       q    Type
REMARK                         _______ _______ _______ _____ _____    ______ ____
ROOT
ATOM      1  C   UNL     1       1.716   9.000  22.249  0.00  0.00    +0.000 C 
ATOM      2  C   UNL     1       1.103   8.940  20.867  0.00  0.00    +0.000 C 
ATOM      3  C   UNL     1      -0.112   9.482  20.681  0.00  0.00    +0.000 C 
ENDROOT
BRANCH   2   4
ATOM      4  C   UNL     1       1.952   8.294  19.866  0.00  0.00    +0.000 C 
ATOM      5  C   UNL     1       2.183   6.968  19.711  0.00  0.00    +0.000 C 
ATOM      6  C   UNL     1       1.511   5.960  20.625  0.00  0.00    +0.000 C 
ATOM      7  C   UNL     1       2.259   4.643  20.760  0.00  0.00    +0.000 C 
ATOM      8  C   UNL     1       2.536   4.018  19.397  0.00  0.00    +0.000 C 
ATOM      9  C   UNL     1       1.272   3.503  18.702  0.00  0.00    +0.000 C 
ATOM     10  C   UNL     1       3.247   5.006  18.496  0.00  0.00    +0.000 A 
ATOM     11  C   UNL     1       4.043   4.473  17.461  0.00  0.00    +0.000 A 
ATOM     12  C   UNL     1       4.705   5.304  16.568  0.00  0.00    +0.000 A 
ATOM     13  C   UNL     1       4.593   6.680  16.718  0.00  0.00    +0.000 A 
ATOM     14  C   UNL     1       3.805   7.221  17.746  0.00  0.00    +0.000 A 
ATOM     15  C   UNL     1       3.092   6.406  18.647  0.00  0.00    +0.000 A 
ENDBRANCH   2   4
BRANCH   3  16
ATOM     16  C   UNL     1      -0.946   9.637  19.512  0.00  0.00    +0.000 C 
ATOM     17  C   UNL     1      -1.412  10.801  19.030  0.00  0.00    +0.000 C 
BRANCH  17  18
ATOM     18  C   UNL     1      -2.508  10.916  18.059  0.00  0.00    +0.000 C 
ATOM     19  C   UNL     1      -2.376  10.226  16.721  0.00  0.00    +0.000 C 
ATOM     20  C   UNL     1      -3.633  11.578  18.402  0.00  0.00    +0.000 C 
BRANCH  20  21
ATOM     21  C   UNL     1      -4.871  11.560  17.583  0.00  0.00    +0.000 C 
ATOM     22  O   UNL     1      -5.875  10.914  17.836  0.00  0.00    +0.000 OA
BRANCH  21  23
ATOM     23  O   UNL     1      -4.790  12.400  16.534  0.00  0.00    +0.000 OA
ATOM     24  H   UNL     1      -5.161  13.290  16.699  0.00  0.00    +0.000 HD
ENDBRANCH  21  23
ENDBRANCH  20  21
ENDBRANCH  17  18
ENDBRANCH   3  16
TORSDOF 5
ENDMDL
MODEL 4
REMARK VINA RESULT:      -7.2      4.812      7.719
REMARK  Name = 
REMARK  8 active torsions:
REMARK  status: ('A' for Active; 'I' for Inactive)
REMARK    1  A    between atoms: C_1  and  C_2
REMARK    2  A    between atoms: C_2  and  C_12
REMARK    3  A    between atoms: C_3  and  C_4
REMARK    4  A    between atoms: C_5  and  C_6
REMARK    5  A    between atoms: C_6  and  C_7
REMARK    6  A    between atoms: C_8  and  C_9
REMARK    7  A    between atoms: C_9  and  O_11
REMARK    8  A    between atoms: C_16  and  C_17
REMARK                            x       y       z     vdW  Elec       q    Type
REMARK                         _______ _______ _______ _____ _____    ______ ____
ROOT
ATOM      1  C   UNL     1       8.009   6.186  19.003  0.00  0.00    +0.000 C 
ATOM      2  C   UNL     1       7.059   5.583  17.992  0.00  0.00    +0.000 C 
ATOM      3  C   UNL     1       7.269   5.830  16.688  0.00  0.00    +0.000 C 
ENDROOT
BRANCH   2   4
ATOM      4  C   UNL     1       6.005   4.760  18.583  0.00  0.00    +0.000 C 
ATOM      5  C   UNL     1       4.687   5.055  18.689  0.00  0.00    +0.000 C 
ATOM      6  C   UNL     1       4.149   6.364  18.141  0.00  0.00    +0.000 C 
ATOM      7  C   UNL     1       2.870   6.843  18.810  0.00  0.00    +0.000 C 
ATOM      8  C   UNL     1       1.787   5.768  18.772  0.00  0.00    +0.000 C 
ATOM      9  C   UNL     1       1.239   5.515  17.365  0.00  0.00    +0.000 C 
ATOM     10  C   UNL     1       2.307   4.473  19.359  0.00  0.00    +0.000 A 
ATOM     11  C   UNL     1       1.353   3.585  19.899  0.00  0.00    +0.000 A 
ATOM     12  C   UNL     1       1.734   2.361  20.428  0.00  0.00    +0.000 A 
ATOM     13  C   UNL     1       3.081   2.022  20.441  0.00  0.00    +0.000 A 
ATOM     14  C   UNL     1       4.039   2.900  19.909  0.00  0.00    +0.000 A 
ATOM     15  C   UNL     1       3.681   4.134  19.332  0.00  0.00    +0.000 A 
ENDBRANCH   2   4
BRANCH   3  16
ATOM     16  C   UNL     1       6.601   5.386  15.487  0.00  0.00    +0.000 C 
ATOM     17  C   UNL     1       6.962   4.335  14.732  0.00  0.00    +0.000 C 
BRANCH  17  18
ATOM     18  C   UNL     1       6.489   4.098  13.362  0.00  0.00    +0.000 C 
ATOM     19  C   UNL     1       7.284   4.658  12.206  0.00  0.00    +0.000 C 
ATOM     20  C   UNL     1       5.394   3.335  13.159  0.00  0.00    +0.000 C 
BRANCH  20  21
ATOM     21  C   UNL     1       4.970   2.858  11.819  0.00  0.00    +0.000 C 
ATOM     22  O   UNL     1       4.156   3.411  11.099  0.00  0.00    +0.000 OA
BRANCH  21  23
ATOM     23  O   UNL     1       5.638   1.750  11.448  0.00  0.00    +0.000 OA
ATOM     24  H   UNL     1       5.816   1.687  10.488  0.00  0.00    +0.000 HD
ENDBRANCH  21  23
ENDBRANCH  20  21
ENDBRANCH  17  18
ENDBRANCH   3  16
TORSDOF 5
ENDMDL
MODEL 5
REMARK VINA RESULT:      -7.2      5.535      8.184
REMARK  Name = 
REMARK  8 active torsions:
REMARK  status: ('A' for Active; 'I' for Inactive)
REMARK    1  A    between atoms: C_1  and  C_2
REMARK    2  A    between atoms: C_2  and  C_12
REMARK    3  A    between atoms: C_3  and  C_4
REMARK    4  A    between atoms: C_5  and  C_6
REMARK    5  A    between atoms: C_6  and  C_7
REMARK    6  A    between atoms: C_8  and  C_9
REMARK    7  A    between atoms: C_9  and  O_11
REMARK    8  A    between atoms: C_16  and  C_17
REMARK                            x       y       z     vdW  Elec       q    Type
REMARK                         _______ _______ _______ _____ _____    ______ ____
ROOT
ATOM      1  C   UNL     1       6.901   4.913  16.162  0.00  0.00    +0.000 C 
ATOM      2  C   UNL     1       6.726   6.055  17.138  0.00  0.00    +0.000 C 
ATOM      3  C   UNL     1       7.649   7.031  17.155  0.00  0.00    +0.000 C 
ENDROOT
BRANCH   2   4
ATOM      4  C   UNL     1       5.516   5.961  17.955  0.00  0.00    +0.000 C 
ATOM      5  C   UNL     1       4.558   5.004  17.905  0.00  0.00    +0.000 C 
ATOM      6  C   UNL     1       4.681   3.847  16.932  0.00  0.00    +0.000 C 
ATOM      7  C   UNL     1       3.353   3.212  16.547  0.00  0.00    +0.000 C 
ATOM      8  C   UNL     1       2.562   2.785  17.779  0.00  0.00    +0.000 C 
ATOM      9  C   UNL     1       3.190   1.598  18.515  0.00  0.00    +0.000 C 
ATOM     10  C   UNL     1       2.400   3.949  18.733  0.00  0.00    +0.000 A 
ATOM     11  C   UNL     1       1.292   3.915  19.605  0.00  0.00    +0.000 A 
ATOM     12  C   UNL     1       1.082   4.923  20.534  0.00  0.00    +0.000 A 
ATOM     13  C   UNL     1       1.970   5.989  20.585  0.00  0.00    +0.000 A 
ATOM     14  C   UNL     1       3.075   6.034  19.721  0.00  0.00    +0.000 A 
ATOM     15  C   UNL     1       3.337   5.010  18.790  0.00  0.00    +0.000 A 
ENDBRANCH   2   4
BRANCH   3  16
ATOM     16  C   UNL     1       7.763   8.259  17.907  0.00  0.00    +0.000 C 
ATOM     17  C   UNL     1       8.444   9.352  17.526  0.00  0.00    +0.000 C 
BRANCH  17  18
ATOM     18  C   UNL     1       8.822  10.449  18.427  0.00  0.00    +0.000 C 
ATOM     19  C   UNL     1       8.623  11.875  17.968  0.00  0.00    +0.000 C 
ATOM     20  C   UNL     1       9.277  10.166  19.665  0.00  0.00    +0.000 C 
BRANCH  20  21
ATOM     21  C   UNL     1       9.472  11.194  20.718  0.00  0.00    +0.000 C 
ATOM     22  O   UNL     1       8.607  11.598  21.478  0.00  0.00    +0.000 OA
BRANCH  21  23
ATOM     23  O   UNL     1      10.752  11.604  20.786  0.00  0.00    +0.000 OA
ATOM     24  H   UNL     1      11.083  12.036  19.974  0.00  0.00    +0.000 HD
ENDBRANCH  21  23
ENDBRANCH  20  21
ENDBRANCH  17  18
ENDBRANCH   3  16
TORSDOF 5
ENDMDL
MODEL 6
REMARK VINA RESULT:      -7.1      3.287      6.008
REMARK  Name = 
REMARK  8 active torsions:
REMARK  status: ('A' for Active; 'I' for Inactive)
REMARK    1  A    between atoms: C_1  and  C_2
REMARK    2  A    between atoms: C_2  and  C_12
REMARK    3  A    between atoms: C_3  and  C_4
REMARK    4  A    between atoms: C_5  and  C_6
REMARK    5  A    between atoms: C_6  and  C_7
REMARK    6  A    between atoms: C_8  and  C_9
REMARK    7  A    between atoms: C_9  and  O_11
REMARK    8  A    between atoms: C_16  and  C_17
REMARK                            x       y       z     vdW  Elec       q    Type
REMARK                         _______ _______ _______ _____ _____    ______ ____
ROOT
ATOM      1  C   UNL     1       2.180   1.805  18.614  0.00  0.00    +0.000 C 
ATOM      2  C   UNL     1       2.396   3.265  18.285  0.00  0.00    +0.000 C 
ATOM      3  C   UNL     1       1.778   4.191  19.037  0.00  0.00    +0.000 C 
ENDROOT
BRANCH   2   4
ATOM      4  C   UNL     1       3.302   3.495  17.159  0.00  0.00    +0.000 C 
ATOM      5  C   UNL     1       4.482   4.160  17.171  0.00  0.00    +0.000 C 
ATOM      6  C   UNL     1       5.014   4.755  18.462  0.00  0.00    +0.000 C 
ATOM      7  C   UNL     1       5.964   5.926  18.265  0.00  0.00    +0.000 C 
ATOM      8  C   UNL     1       7.118   5.557  17.337  0.00  0.00    +0.000 C 
ATOM      9  C   UNL     1       8.097   4.559  17.962  0.00  0.00    +0.000 C 
ATOM     10  C   UNL     1       6.590   5.004  16.030  0.00  0.00    +0.000 A 
ATOM     11  C   UNL     1       7.423   5.126  14.899  0.00  0.00    +0.000 A 
ATOM     12  C   UNL     1       7.035   4.620  13.667  0.00  0.00    +0.000 A 
ATOM     13  C   UNL     1       5.796   4.004  13.552  0.00  0.00    +0.000 A 
ATOM     14  C   UNL     1       4.957   3.879  14.671  0.00  0.00    +0.000 A 
ATOM     15  C   UNL     1       5.337   4.351  15.943  0.00  0.00    +0.000 A 
ENDBRANCH   2   4
BRANCH   3  16
ATOM     16  C   UNL     1       1.801   5.635  19.029  0.00  0.00    +0.000 C 
ATOM     17  C   UNL     1       2.021   6.422  20.095  0.00  0.00    +0.000 C 
BRANCH  17  18
ATOM     18  C   UNL     1       1.718   7.858  20.141  0.00  0.00    +0.000 C 
ATOM     19  C   UNL     1       1.860   8.677  18.879  0.00  0.00    +0.000 C 
ATOM     20  C   UNL     1       1.260   8.406  21.286  0.00  0.00    +0.000 C 
BRANCH  20  21
ATOM     21  C   UNL     1       0.720   9.786  21.372  0.00  0.00    +0.000 C 
ATOM     22  O   UNL     1       1.353  10.771  21.710  0.00  0.00    +0.000 OA
BRANCH  21  23
ATOM     23  O   UNL     1      -0.564   9.846  20.971  0.00  0.00    +0.000 OA
ATOM     24  H   UNL     1      -1.214   9.584  21.654  0.00  0.00    +0.000 HD
ENDBRANCH  21  23
ENDBRANCH  20  21
ENDBRANCH  17  18
ENDBRANCH   3  16
TORSDOF 5
ENDMDL
MODEL 7
REMARK VINA RESULT:      -7.1      1.106      2.653
REMARK  Name = 
REMARK  8 active torsions:
REMARK  status: ('A' for Active; 'I' for Inactive)
REMARK    1  A    between atoms: C_1  and  C_2
REMARK    2  A    between atoms: C_2  and  C_12
REMARK    3  A    between atoms: C_3  and  C_4
REMARK    4  A    between atoms: C_5  and  C_6
REMARK    5  A    between atoms: C_6  and  C_7
REMARK    6  A    between atoms: C_8  and  C_9
REMARK    7  A    between atoms: C_9  and  O_11
REMARK    8  A    between atoms: C_16  and  C_17
REMARK                            x       y       z     vdW  Elec       q    Type
REMARK                         _______ _______ _______ _____ _____    ______ ____
ROOT
ATOM      1  C   UNL     1       1.478   8.976  21.950  0.00  0.00    +0.000 C 
ATOM      2  C   UNL     1       1.000   8.982  20.515  0.00  0.00    +0.000 C 
ATOM      3  C   UNL     1      -0.158   9.600  20.228  0.00  0.00    +0.000 C 
ENDROOT
BRANCH   2   4
ATOM      4  C   UNL     1       1.903   8.308  19.583  0.00  0.00    +0.000 C 
ATOM      5  C   UNL     1       2.182   6.984  19.514  0.00  0.00    +0.000 C 
ATOM      6  C   UNL     1       1.510   6.009  20.464  0.00  0.00    +0.000 C 
ATOM      7  C   UNL     1       2.295   4.728  20.702  0.00  0.00    +0.000 C 
ATOM      8  C   UNL     1       2.639   4.034  19.388  0.00  0.00    +0.000 C 
ATOM      9  C   UNL     1       1.418   3.437  18.684  0.00  0.00    +0.000 C 
ATOM     10  C   UNL     1       3.349   4.992  18.454  0.00  0.00    +0.000 A 
ATOM     11  C   UNL     1       4.198   4.427  17.479  0.00  0.00    +0.000 A 
ATOM     12  C   UNL     1       4.863   5.225  16.561  0.00  0.00    +0.000 A 
ATOM     13  C   UNL     1       4.703   6.603  16.625  0.00  0.00    +0.000 A 
ATOM     14  C   UNL     1       3.863   7.176  17.593  0.00  0.00    +0.000 A 
ATOM     15  C   UNL     1       3.145   6.391  18.516  0.00  0.00    +0.000 A 
ENDBRANCH   2   4
BRANCH   3  16
ATOM     16  C   UNL     1      -0.865   9.830  18.989  0.00  0.00    +0.000 C 
ATOM     17  C   UNL     1      -1.806  10.766  18.786  0.00  0.00    +0.000 C 
BRANCH  17  18
ATOM     18  C   UNL     1      -2.735  10.773  17.648  0.00  0.00    +0.000 C 
ATOM     19  C   UNL     1      -4.053  11.500  17.783  0.00  0.00    +0.000 C 
ATOM     20  C   UNL     1      -2.370  10.189  16.488  0.00  0.00    +0.000 C 
BRANCH  20  21
ATOM     21  C   UNL     1      -3.136  10.334  15.225  0.00  0.00    +0.000 C 
ATOM     22  O   UNL     1      -4.260  10.800  15.131  0.00  0.00    +0.000 OA
BRANCH  21  23
ATOM     23  O   UNL     1      -2.419   9.940  14.156  0.00  0.00    +0.000 OA
ATOM     24  H   UNL     1      -1.505  10.290  14.131  0.00  0.00    +0.000 HD
ENDBRANCH  21  23
ENDBRANCH  20  21
ENDBRANCH  17  18
ENDBRANCH   3  16
TORSDOF 5
ENDMDL
MODEL 8
REMARK VINA RESULT:      -7.1      3.840      7.338
REMARK  Name = 
REMARK  8 active torsions:
REMARK  status: ('A' for Active; 'I' for Inactive)
REMARK    1  A    between atoms: C_1  and  C_2
REMARK    2  A    between atoms: C_2  and  C_12
REMARK    3  A    between atoms: C_3  and  C_4
REMARK    4  A    between atoms: C_5  and  C_6
REMARK    5  A    between atoms: C_6  and  C_7
REMARK    6  A    between atoms: C_8  and  C_9
REMARK    7  A    between atoms: C_9  and  O_11
REMARK    8  A    between atoms: C_16  and  C_17
REMARK                            x       y       z     vdW  Elec       q    Type
REMARK                         _______ _______ _______ _____ _____    ______ ____
ROOT
ATOM      1  C   UNL     1       1.063   3.046  20.318  0.00  0.00    +0.000 C 
ATOM      2  C   UNL     1       2.121   4.069  19.970  0.00  0.00    +0.000 C 
ATOM      3  C   UNL     1       3.179   3.674  19.242  0.00  0.00    +0.000 C 
ENDROOT
BRANCH   2   4
ATOM      4  C   UNL     1       1.837   5.414  20.469  0.00  0.00    +0.000 C 
ATOM      5  C   UNL     1       1.847   6.574  19.770  0.00  0.00    +0.000 C 
ATOM      6  C   UNL     1       2.161   6.572  18.285  0.00  0.00    +0.000 C 
ATOM      7  C   UNL     1       2.716   7.887  17.762  0.00  0.00    +0.000 C 
ATOM      8  C   UNL     1       1.797   9.055  18.107  0.00  0.00    +0.000 C 
ATOM      9  C   UNL     1       0.476   9.030  17.333  0.00  0.00    +0.000 C 
ATOM     10  C   UNL     1       1.517   9.087  19.595  0.00  0.00    +0.000 A 
ATOM     11  C   UNL     1       1.174  10.335  20.156  0.00  0.00    +0.000 A 
ATOM     12  C   UNL     1       0.870  10.453  21.504  0.00  0.00    +0.000 A 
ATOM     13  C   UNL     1       0.928   9.323  22.310  0.00  0.00    +0.000 A 
ATOM     14  C   UNL     1       1.270   8.077  21.762  0.00  0.00    +0.000 A 
ATOM     15  C   UNL     1       1.550   7.916  20.390  0.00  0.00    +0.000 A 
ENDBRANCH   2   4
BRANCH   3  16
ATOM     16  C   UNL     1       4.318   4.383  18.706  0.00  0.00    +0.000 C 
ATOM     17  C   UNL     1       5.468   4.626  19.357  0.00  0.00    +0.000 C 
BRANCH  17  18
ATOM     18  C   UNL     1       6.468   5.614  18.931  0.00  0.00    +0.000 C 
ATOM     19  C   UNL     1       7.822   5.620  19.601  0.00  0.00    +0.000 C 
ATOM     20  C   UNL     1       6.184   6.451  17.911  0.00  0.00    +0.000 C 
BRANCH  20  21
ATOM     21  C   UNL     1       7.197   7.324  17.266  0.00  0.00    +0.000 C 
ATOM     22  O   UNL     1       7.462   8.465  17.605  0.00  0.00    +0.000 OA
BRANCH  21  23
ATOM     23  O   UNL     1       7.851   6.685  16.277  0.00  0.00    +0.000 OA
ATOM     24  H   UNL     1       7.813   7.137  15.410  0.00  0.00    +0.000 HD
ENDBRANCH  21  23
ENDBRANCH  20  21
ENDBRANCH  17  18
ENDBRANCH   3  16
TORSDOF 5
ENDMDL
MODEL 9
REMARK VINA RESULT:      -7.1      0.810      1.041
REMARK  Name = 
REMARK  8 active torsions:
REMARK  status: ('A' for Active; 'I' for Inactive)
REMARK    1  A    between atoms: C_1  and  C_2
REMARK    2  A    between atoms: C_2  and  C_12
REMARK    3  A    between atoms: C_3  and  C_4
REMARK    4  A    between atoms: C_5  and  C_6
REMARK    5  A    between atoms: C_6  and  C_7
REMARK    6  A    between atoms: C_8  and  C_9
REMARK    7  A    between atoms: C_9  and  O_11
REMARK    8  A    between atoms: C_16  and  C_17
REMARK                            x       y       z     vdW  Elec       q    Type
REMARK                         _______ _______ _______ _____ _____    ______ ____
ROOT
ATOM      1  C   UNL     1       2.054   9.038  22.925  0.00  0.00    +0.000 C 
ATOM      2  C   UNL     1       1.114   8.769  21.772  0.00  0.00    +0.000 C 
ATOM      3  C   UNL     1       0.376   9.786  21.295  0.00  0.00    +0.000 C 
ENDROOT
BRANCH   2   4
ATOM      4  C   UNL     1       1.144   7.389  21.288  0.00  0.00    +0.000 C 
ATOM      5  C   UNL     1       1.733   6.921  20.161  0.00  0.00    +0.000 C 
ATOM      6  C   UNL     1       2.489   7.864  19.244  0.00  0.00    +0.000 C 
ATOM      7  C   UNL     1       2.577   7.393  17.800  0.00  0.00    +0.000 C 
ATOM      8  C   UNL     1       3.159   5.986  17.708  0.00  0.00    +0.000 C 
ATOM      9  C   UNL     1       4.645   5.924  18.069  0.00  0.00    +0.000 C 
ATOM     10  C   UNL     1       2.378   5.033  18.589  0.00  0.00    +0.000 A 
ATOM     11  C   UNL     1       2.400   3.668  18.233  0.00  0.00    +0.000 A 
ATOM     12  C   UNL     1       1.740   2.719  19.000  0.00  0.00    +0.000 A 
ATOM     13  C   UNL     1       1.033   3.132  20.123  0.00  0.00    +0.000 A 
ATOM     14  C   UNL     1       1.004   4.488  20.484  0.00  0.00    +0.000 A 
ATOM     15  C   UNL     1       1.692   5.471  19.747  0.00  0.00    +0.000 A 
ENDBRANCH   2   4
BRANCH   3  16
ATOM     16  C   UNL     1      -0.562   9.887  20.201  0.00  0.00    +0.000 C 
ATOM     17  C   UNL     1      -0.300  10.401  18.988  0.00  0.00    +0.000 C 
BRANCH  17  18
ATOM     18  C   UNL     1      -1.327  10.796  18.016  0.00  0.00    +0.000 C 
ATOM     19  C   UNL     1      -1.559  12.266  17.754  0.00  0.00    +0.000 C 
ATOM     20  C   UNL     1      -1.997   9.845  17.332  0.00  0.00    +0.000 C 
BRANCH  20  21
ATOM     21  C   UNL     1      -2.885  10.142  16.180  0.00  0.00    +0.000 C 
ATOM     22  O   UNL     1      -2.571  10.050  15.006  0.00  0.00    +0.000 OA
BRANCH  21  23
ATOM     23  O   UNL     1      -4.127  10.476  16.580  0.00  0.00    +0.000 OA
ATOM     24  H   UNL     1      -4.466   9.948  17.330  0.00  0.00    +0.000 HD
ENDBRANCH  21  23
ENDBRANCH  20  21
ENDBRANCH  17  18
ENDBRANCH   3  16
TORSDOF 5
ENDMDL
