MODEL 1
REMARK VINA RESULT:      -7.7      0.000      0.000
REMARK  Name = 
REMARK  10 active torsions:
REMARK  status: ('A' for Active; 'I' for Inactive)
REMARK    1  A    between atoms: C_1  and  N_2
REMARK    2  A    between atoms: N_2  and  C_16
REMARK    3  A    between atoms: C_3  and  C_5
REMARK    4  A    between atoms: C_5  and  O_6
REMARK    5  A    between atoms: O_6  and  C_7
REMARK    6  A    between atoms: C_7  and  C_9
REMARK    7  A    between atoms: C_10  and  C_11
REMARK    8  A    between atoms: C_17  and  N_18
REMARK    9  A    between atoms: N_19  and  C_20
REMARK   10  A    between atoms: C_20  and  C_21
REMARK                            x       y       z     vdW  Elec       q    Type
REMARK                         _______ _______ _______ _____ _____    ______ ____
ROOT
ATOM      1  C   UNL     1       6.432   5.417  17.868  0.00  0.00    +0.000 A 
ATOM      2  C   UNL     1       5.146   5.461  18.292  0.00  0.00    +0.000 A 
ATOM      3  N   UNL     1       4.189   4.671  17.670  0.00  0.00    +0.000 N 
ATOM      4  C   UNL     1       4.483   3.849  16.583  0.00  0.00    +0.000 A 
ATOM      5  O   UNL     1       3.651   3.199  15.953  0.00  0.00    +0.000 OA
ATOM      6  N   UNL     1       5.793   3.781  16.217  0.00  0.00    +0.000 N 
ATOM      7  C   UNL     1       6.812   4.502  16.758  0.00  0.00    +0.000 A 
ATOM      8  O   UNL     1       7.957   4.431  16.320  0.00  0.00    +0.000 OA
ATOM      9  H   UNL     1       6.013   3.172  15.442  0.00  0.00    +0.000 HD
ENDROOT
BRANCH   1  11
ATOM     10  C   UNL     1       7.999   5.769  19.678  0.00  0.00    +0.000 C 
ATOM     11  N   UNL     1       7.425   6.233  18.418  0.00  0.00    +0.000 N 
ATOM     12  C   UNL     1       7.603   7.504  17.872  0.00  0.00    +0.000 C 
ATOM     13  O   UNL     1       7.059   7.845  16.818  0.00  0.00    +0.000 OA
BRANCH  12  14
ATOM     14  C   UNL     1       8.614   8.432  18.553  0.00  0.00    +0.000 C 
BRANCH  14  15
ATOM     15  O   UNL     1       8.590   9.774  18.076  0.00  0.00    +0.000 OA
BRANCH  15  16
ATOM     16  C   UNL     1       9.188  10.668  18.899  0.00  0.00    +0.000 C 
ATOM     17  O   UNL     1       9.410  10.528  20.087  0.00  0.00    +0.000 OA
BRANCH  16  18
ATOM     18  C   UNL     1       9.500  11.874  18.109  0.00  0.00    +0.000 C 
ATOM     19  C   UNL     1       9.840  13.003  18.744  0.00  0.00    +0.000 C 
BRANCH  19  20
ATOM     20  C   UNL     1      10.152  14.208  18.047  0.00  0.00    +0.000 A 
ATOM     21  C   UNL     1      11.189  14.518  17.180  0.00  0.00    +0.000 A 
ATOM     22  C   UNL     1      11.139  15.859  16.698  0.00  0.00    +0.000 A 
ATOM     23  C   UNL     1      10.060  16.544  17.203  0.00  0.00    +0.000 A 
ATOM     24  S   UNL     1       9.121  15.579  18.249  0.00  0.00    +0.000 S 
ENDBRANCH  19  20
ENDBRANCH  16  18
ENDBRANCH  15  16
ENDBRANCH  14  15
ENDBRANCH  12  14
ENDBRANCH   1  11
BRANCH   2  25
ATOM     25  N   UNL     1       4.794   6.327  19.329  0.00  0.00    +0.000 N 
ATOM     26  H   UNL     1       5.117   5.963  20.225  0.00  0.00    +0.000 HD
ATOM     27  H   UNL     1       3.785   6.462  19.368  0.00  0.00    +0.000 HD
ENDBRANCH   2  25
BRANCH   3  28
ATOM     28  C   UNL     1       2.786   4.706  18.099  0.00  0.00    +0.000 C 
BRANCH  28  29
ATOM     29  C   UNL     1       2.460   3.842  19.307  0.00  0.00    +0.000 A 
ATOM     30  C   UNL     1       3.451   3.002  19.843  0.00  0.00    +0.000 A 
ATOM     31  C   UNL     1       3.242   2.323  21.048  0.00  0.00    +0.000 A 
ATOM     32  C   UNL     1       2.039   2.475  21.736  0.00  0.00    +0.000 A 
ATOM     33  C   UNL     1       1.038   3.282  21.207  0.00  0.00    +0.000 A 
ATOM     34  C   UNL     1       1.247   3.961  20.002  0.00  0.00    +0.000 A 
ENDBRANCH  28  29
ENDBRANCH   3  28
TORSDOF 9
ENDMDL
MODEL 2
REMARK VINA RESULT:      -7.5      8.525     11.372
REMARK  Name = 
REMARK  10 active torsions:
REMARK  status: ('A' for Active; 'I' for Inactive)
REMARK    1  A    between atoms: C_1  and  N_2
REMARK    2  A    between atoms: N_2  and  C_16
REMARK    3  A    between atoms: C_3  and  C_5
REMARK    4  A    between atoms: C_5  and  O_6
REMARK    5  A    between atoms: O_6  and  C_7
REMARK    6  A    between atoms: C_7  and  C_9
REMARK    7  A    between atoms: C_10  and  C_11
REMARK    8  A    between atoms: C_17  and  N_18
REMARK    9  A    between atoms: N_19  and  C_20
REMARK   10  A    between atoms: C_20  and  C_21
REMARK                            x       y       z     vdW  Elec       q    Type
REMARK                         _______ _______ _______ _____ _____    ______ ____
ROOT
ATOM      1  C   UNL     1      -1.060  11.823  21.228  0.00  0.00    +0.000 A 
ATOM      2  C   UNL     1      -2.087  12.454  20.607  0.00  0.00    +0.000 A 
ATOM      3  N   UNL     1      -3.242  12.749  21.317  0.00  0.00    +0.000 N 
ATOM      4  C   UNL     1      -3.419  12.385  22.651  0.00  0.00    +0.000 A 
ATOM      5  O   UNL     1      -4.456  12.555  23.290  0.00  0.00    +0.000 OA
ATOM      6  N   UNL     1      -2.350  11.806  23.265  0.00  0.00    +0.000 N 
ATOM      7  C   UNL     1      -1.171  11.478  22.671  0.00  0.00    +0.000 A 
ATOM      8  O   UNL     1      -0.281  10.892  23.282  0.00  0.00    +0.000 OA
ATOM      9  H   UNL     1      -2.467  11.558  24.236  0.00  0.00    +0.000 HD
ENDROOT
BRANCH   1  11
ATOM     10  C   UNL     1       1.122  12.487  20.419  0.00  0.00    +0.000 C 
ATOM     11  N   UNL     1       0.103  11.449  20.548  0.00  0.00    +0.000 N 
ATOM     12  C   UNL     1       0.094  10.239  19.855  0.00  0.00    +0.000 C 
ATOM     13  O   UNL     1      -0.819   9.418  19.984  0.00  0.00    +0.000 OA
BRANCH  12  14
ATOM     14  C   UNL     1       1.331   9.891  19.020  0.00  0.00    +0.000 C 
BRANCH  14  15
ATOM     15  O   UNL     1       1.849   8.585  19.256  0.00  0.00    +0.000 OA
BRANCH  15  16
ATOM     16  C   UNL     1       2.381   7.991  18.161  0.00  0.00    +0.000 C 
ATOM     17  O   UNL     1       2.773   8.545  17.152  0.00  0.00    +0.000 OA
BRANCH  16  18
ATOM     18  C   UNL     1       2.374   6.534  18.389  0.00  0.00    +0.000 C 
ATOM     19  C   UNL     1       3.513   5.844  18.245  0.00  0.00    +0.000 C 
BRANCH  19  20
ATOM     20  C   UNL     1       3.584   4.434  18.446  0.00  0.00    +0.000 A 
ATOM     21  C   UNL     1       4.301   3.677  19.360  0.00  0.00    +0.000 A 
ATOM     22  C   UNL     1       4.090   2.273  19.219  0.00  0.00    +0.000 A 
ATOM     23  C   UNL     1       3.212   1.988  18.202  0.00  0.00    +0.000 A 
ATOM     24  S   UNL     1       2.650   3.399  17.427  0.00  0.00    +0.000 S 
ENDBRANCH  19  20
ENDBRANCH  16  18
ENDBRANCH  15  16
ENDBRANCH  14  15
ENDBRANCH  12  14
ENDBRANCH   1  11
BRANCH   2  25
ATOM     25  N   UNL     1      -1.980  12.768  19.251  0.00  0.00    +0.000 N 
ATOM     26  H   UNL     1      -1.286  12.174  18.799  0.00  0.00    +0.000 HD
ATOM     27  H   UNL     1      -1.719  13.744  19.121  0.00  0.00    +0.000 HD
ENDBRANCH   2  25
BRANCH   3  28
ATOM     28  C   UNL     1      -4.375  13.420  20.669  0.00  0.00    +0.000 C 
BRANCH  28  29
ATOM     29  C   UNL     1      -5.354  12.493  19.965  0.00  0.00    +0.000 A 
ATOM     30  C   UNL     1      -5.116  12.121  18.631  0.00  0.00    +0.000 A 
ATOM     31  C   UNL     1      -5.898  11.141  18.009  0.00  0.00    +0.000 A 
ATOM     32  C   UNL     1      -6.929  10.520  18.711  0.00  0.00    +0.000 A 
ATOM     33  C   UNL     1      -7.195  10.896  20.024  0.00  0.00    +0.000 A 
ATOM     34  C   UNL     1      -6.414  11.874  20.646  0.00  0.00    +0.000 A 
ENDBRANCH  28  29
ENDBRANCH   3  28
TORSDOF 9
ENDMDL
MODEL 3
REMARK VINA RESULT:      -7.4      1.089      1.300
REMARK  Name = 
REMARK  10 active torsions:
REMARK  status: ('A' for Active; 'I' for Inactive)
REMARK    1  A    between atoms: C_1  and  N_2
REMARK    2  A    between atoms: N_2  and  C_16
REMARK    3  A    between atoms: C_3  and  C_5
REMARK    4  A    between atoms: C_5  and  O_6
REMARK    5  A    between atoms: O_6  and  C_7
REMARK    6  A    between atoms: C_7  and  C_9
REMARK    7  A    between atoms: C_10  and  C_11
REMARK    8  A    between atoms: C_17  and  N_18
REMARK    9  A    between atoms: N_19  and  C_20
REMARK   10  A    between atoms: C_20  and  C_21
REMARK                            x       y       z     vdW  Elec       q    Type
REMARK                         _______ _______ _______ _____ _____    ______ ____
ROOT
ATOM      1  C   UNL     1       6.380   5.534  17.881  0.00  0.00    +0.000 A 
ATOM      2  C   UNL     1       5.067   5.753  18.136  0.00  0.00    +0.000 A 
ATOM      3  N   UNL     1       4.109   4.923  17.573  0.00  0.00    +0.000 N 
ATOM      4  C   UNL     1       4.434   3.879  16.707  0.00  0.00    +0.000 A 
ATOM      5  O   UNL     1       3.612   3.174  16.124  0.00  0.00    +0.000 OA
ATOM      6  N   UNL     1       5.762   3.645  16.517  0.00  0.00    +0.000 N 
ATOM      7  C   UNL     1       6.783   4.388  17.022  0.00  0.00    +0.000 A 
ATOM      8  O   UNL     1       7.955   4.150  16.743  0.00  0.00    +0.000 OA
ATOM      9  H   UNL     1       6.002   2.879  15.906  0.00  0.00    +0.000 HD
ENDROOT
BRANCH   1  11
ATOM     10  C   UNL     1       8.019   5.938  19.616  0.00  0.00    +0.000 C 
ATOM     11  N   UNL     1       7.384   6.373  18.375  0.00  0.00    +0.000 N 
ATOM     12  C   UNL     1       7.520   7.637  17.801  0.00  0.00    +0.000 C 
ATOM     13  O   UNL     1       6.925   7.952  16.766  0.00  0.00    +0.000 OA
BRANCH  12  14
ATOM     14  C   UNL     1       8.545   8.591  18.422  0.00  0.00    +0.000 C 
BRANCH  14  15
ATOM     15  O   UNL     1       8.328   9.965  18.114  0.00  0.00    +0.000 OA
BRANCH  15  16
ATOM     16  C   UNL     1       9.304  10.795  18.555  0.00  0.00    +0.000 C 
ATOM     17  O   UNL     1      10.288  10.483  19.197  0.00  0.00    +0.000 OA
BRANCH  16  18
ATOM     18  C   UNL     1       8.949  12.167  18.148  0.00  0.00    +0.000 C 
ATOM     19  C   UNL     1       8.994  13.152  19.055  0.00  0.00    +0.000 C 
BRANCH  19  20
ATOM     20  C   UNL     1       8.663  14.502  18.736  0.00  0.00    +0.000 A 
ATOM     21  C   UNL     1       9.429  15.528  18.204  0.00  0.00    +0.000 A 
ATOM     22  C   UNL     1       8.706  16.746  18.043  0.00  0.00    +0.000 A 
ATOM     23  C   UNL     1       7.400  16.623  18.451  0.00  0.00    +0.000 A 
ATOM     24  S   UNL     1       7.053  15.054  19.023  0.00  0.00    +0.000 S 
ENDBRANCH  19  20
ENDBRANCH  16  18
ENDBRANCH  15  16
ENDBRANCH  14  15
ENDBRANCH  12  14
ENDBRANCH   1  11
BRANCH   2  25
ATOM     25  N   UNL     1       4.695   6.835  18.938  0.00  0.00    +0.000 N 
ATOM     26  H   UNL     1       5.416   7.555  18.926  0.00  0.00    +0.000 HD
ATOM     27  H   UNL     1       4.533   6.540  19.899  0.00  0.00    +0.000 HD
ENDBRANCH   2  25
BRANCH   3  28
ATOM     28  C   UNL     1       2.679   5.143  17.820  0.00  0.00    +0.000 C 
BRANCH  28  29
ATOM     29  C   UNL     1       2.109   4.388  19.011  0.00  0.00    +0.000 A 
ATOM     30  C   UNL     1       1.324   3.243  18.793  0.00  0.00    +0.000 A 
ATOM     31  C   UNL     1       0.927   2.431  19.860  0.00  0.00    +0.000 A 
ATOM     32  C   UNL     1       1.307   2.752  21.162  0.00  0.00    +0.000 A 
ATOM     33  C   UNL     1       2.062   3.896  21.399  0.00  0.00    +0.000 A 
ATOM     34  C   UNL     1       2.461   4.707  20.332  0.00  0.00    +0.000 A 
ENDBRANCH  28  29
ENDBRANCH   3  28
TORSDOF 9
ENDMDL
MODEL 4
REMARK VINA RESULT:      -7.3      8.527     11.442
REMARK  Name = 
REMARK  10 active torsions:
REMARK  status: ('A' for Active; 'I' for Inactive)
REMARK    1  A    between atoms: C_1  and  N_2
REMARK    2  A    between atoms: N_2  and  C_16
REMARK    3  A    between atoms: C_3  and  C_5
REMARK    4  A    between atoms: C_5  and  O_6
REMARK    5  A    between atoms: O_6  and  C_7
REMARK    6  A    between atoms: C_7  and  C_9
REMARK    7  A    between atoms: C_10  and  C_11
REMARK    8  A    between atoms: C_17  and  N_18
REMARK    9  A    between atoms: N_19  and  C_20
REMARK   10  A    between atoms: C_20  and  C_21
REMARK                            x       y       z     vdW  Elec       q    Type
REMARK                         _______ _______ _______ _____ _____    ______ ____
ROOT
ATOM      1  C   UNL     1      -1.148  11.805  21.250  0.00  0.00    +0.000 A 
ATOM      2  C   UNL     1      -2.167  12.440  20.621  0.00  0.00    +0.000 A 
ATOM      3  N   UNL     1      -3.315  12.768  21.329  0.00  0.00    +0.000 N 
ATOM      4  C   UNL     1      -3.491  12.434  22.672  0.00  0.00    +0.000 A 
ATOM      5  O   UNL     1      -4.522  12.633  23.311  0.00  0.00    +0.000 OA
ATOM      6  N   UNL     1      -2.429  11.851  23.292  0.00  0.00    +0.000 N 
ATOM      7  C   UNL     1      -1.258  11.491  22.700  0.00  0.00    +0.000 A 
ATOM      8  O   UNL     1      -0.374  10.904  23.319  0.00  0.00    +0.000 OA
ATOM      9  H   UNL     1      -2.545  11.624  24.269  0.00  0.00    +0.000 HD
ENDROOT
BRANCH   1  11
ATOM     10  C   UNL     1       1.142  12.313  20.655  0.00  0.00    +0.000 C 
ATOM     11  N   UNL     1       0.006  11.399  20.573  0.00  0.00    +0.000 N 
ATOM     12  C   UNL     1      -0.096  10.317  19.699  0.00  0.00    +0.000 C 
ATOM     13  O   UNL     1      -1.103   9.604  19.656  0.00  0.00    +0.000 OA
BRANCH  12  14
ATOM     14  C   UNL     1       1.143   9.951  18.877  0.00  0.00    +0.000 C 
BRANCH  14  15
ATOM     15  O   UNL     1       1.214   8.578  18.503  0.00  0.00    +0.000 OA
BRANCH  15  16
ATOM     16  C   UNL     1       2.415   8.197  18.007  0.00  0.00    +0.000 C 
ATOM     17  O   UNL     1       3.181   8.878  17.352  0.00  0.00    +0.000 OA
BRANCH  16  18
ATOM     18  C   UNL     1       2.628   6.784  18.374  0.00  0.00    +0.000 C 
ATOM     19  C   UNL     1       2.447   6.403  19.645  0.00  0.00    +0.000 C 
BRANCH  19  20
ATOM     20  C   UNL     1       2.635   5.057  20.075  0.00  0.00    +0.000 A 
ATOM     21  C   UNL     1       1.998   4.314  21.057  0.00  0.00    +0.000 A 
ATOM     22  C   UNL     1       2.499   2.984  21.172  0.00  0.00    +0.000 A 
ATOM     23  C   UNL     1       3.507   2.737  20.271  0.00  0.00    +0.000 A 
ATOM     24  S   UNL     1       3.843   4.097  19.299  0.00  0.00    +0.000 S 
ENDBRANCH  19  20
ENDBRANCH  16  18
ENDBRANCH  15  16
ENDBRANCH  14  15
ENDBRANCH  12  14
ENDBRANCH   1  11
BRANCH   2  25
ATOM     25  N   UNL     1      -2.062  12.725  19.258  0.00  0.00    +0.000 N 
ATOM     26  H   UNL     1      -2.917  12.463  18.770  0.00  0.00    +0.000 HD
ATOM     27  H   UNL     1      -1.274  12.232  18.841  0.00  0.00    +0.000 HD
ENDBRANCH   2  25
BRANCH   3  28
ATOM     28  C   UNL     1      -4.440  13.444  20.673  0.00  0.00    +0.000 C 
BRANCH  28  29
ATOM     29  C   UNL     1      -5.428  12.520  19.979  0.00  0.00    +0.000 A 
ATOM     30  C   UNL     1      -5.262  12.228  18.614  0.00  0.00    +0.000 A 
ATOM     31  C   UNL     1      -6.047  11.255  17.987  0.00  0.00    +0.000 A 
ATOM     32  C   UNL     1      -7.010  10.559  18.714  0.00  0.00    +0.000 A 
ATOM     33  C   UNL     1      -7.206  10.853  20.060  0.00  0.00    +0.000 A 
ATOM     34  C   UNL     1      -6.421  11.825  20.687  0.00  0.00    +0.000 A 
ENDBRANCH  28  29
ENDBRANCH   3  28
TORSDOF 9
ENDMDL
MODEL 5
REMARK VINA RESULT:      -7.3      8.583     11.529
REMARK  Name = 
REMARK  10 active torsions:
REMARK  status: ('A' for Active; 'I' for Inactive)
REMARK    1  A    between atoms: C_1  and  N_2
REMARK    2  A    between atoms: N_2  and  C_16
REMARK    3  A    between atoms: C_3  and  C_5
REMARK    4  A    between atoms: C_5  and  O_6
REMARK    5  A    between atoms: O_6  and  C_7
REMARK    6  A    between atoms: C_7  and  C_9
REMARK    7  A    between atoms: C_10  and  C_11
REMARK    8  A    between atoms: C_17  and  N_18
REMARK    9  A    between atoms: N_19  and  C_20
REMARK   10  A    between atoms: C_20  and  C_21
REMARK                            x       y       z     vdW  Elec       q    Type
REMARK                         _______ _______ _______ _____ _____    ______ ____
ROOT
ATOM      1  C   UNL     1      -0.907  11.746  21.214  0.00  0.00    +0.000 A 
ATOM      2  C   UNL     1      -1.886  12.466  20.614  0.00  0.00    +0.000 A 
ATOM      3  N   UNL     1      -3.038  12.783  21.321  0.00  0.00    +0.000 N 
ATOM      4  C   UNL     1      -3.258  12.355  22.630  0.00  0.00    +0.000 A 
ATOM      5  O   UNL     1      -4.297  12.544  23.261  0.00  0.00    +0.000 OA
ATOM      6  N   UNL     1      -2.233  11.685  23.226  0.00  0.00    +0.000 N 
ATOM      7  C   UNL     1      -1.063  11.327  22.632  0.00  0.00    +0.000 A 
ATOM      8  O   UNL     1      -0.216  10.661  23.223  0.00  0.00    +0.000 OA
ATOM      9  H   UNL     1      -2.382  11.390  24.179  0.00  0.00    +0.000 HD
ENDROOT
BRANCH   1  11
ATOM     10  C   UNL     1       1.395  12.243  20.655  0.00  0.00    +0.000 C 
ATOM     11  N   UNL     1       0.247  11.349  20.532  0.00  0.00    +0.000 N 
ATOM     12  C   UNL     1       0.138  10.301  19.618  0.00  0.00    +0.000 C 
ATOM     13  O   UNL     1      -0.878   9.604  19.541  0.00  0.00    +0.000 OA
BRANCH  12  14
ATOM     14  C   UNL     1       1.379   9.947  18.793  0.00  0.00    +0.000 C 
BRANCH  14  15
ATOM     15  O   UNL     1       1.996   8.717  19.161  0.00  0.00    +0.000 OA
BRANCH  15  16
ATOM     16  C   UNL     1       2.474   7.999  18.116  0.00  0.00    +0.000 C 
ATOM     17  O   UNL     1       2.958   8.440  17.092  0.00  0.00    +0.000 OA
BRANCH  16  18
ATOM     18  C   UNL     1       2.275   6.570  18.421  0.00  0.00    +0.000 C 
ATOM     19  C   UNL     1       3.040   5.657  17.807  0.00  0.00    +0.000 C 
BRANCH  19  20
ATOM     20  C   UNL     1       2.904   4.258  18.048  0.00  0.00    +0.000 A 
ATOM     21  C   UNL     1       3.641   3.177  17.591  0.00  0.00    +0.000 A 
ATOM     22  C   UNL     1       3.163   1.923  18.074  0.00  0.00    +0.000 A 
ATOM     23  C   UNL     1       2.072   2.074  18.895  0.00  0.00    +0.000 A 
ATOM     24  S   UNL     1       1.630   3.711  19.079  0.00  0.00    +0.000 S 
ENDBRANCH  19  20
ENDBRANCH  16  18
ENDBRANCH  15  16
ENDBRANCH  14  15
ENDBRANCH  12  14
ENDBRANCH   1  11
BRANCH   2  25
ATOM     25  N   UNL     1      -1.738  12.850  19.280  0.00  0.00    +0.000 N 
ATOM     26  H   UNL     1      -1.799  13.864  19.190  0.00  0.00    +0.000 HD
ATOM     27  H   UNL     1      -2.450  12.419  18.693  0.00  0.00    +0.000 HD
ENDBRANCH   2  25
BRANCH   3  28
ATOM     28  C   UNL     1      -4.121  13.550  20.695  0.00  0.00    +0.000 C 
BRANCH  28  29
ATOM     29  C   UNL     1      -5.150  12.716  19.948  0.00  0.00    +0.000 A 
ATOM     30  C   UNL     1      -6.508  12.822  20.292  0.00  0.00    +0.000 A 
ATOM     31  C   UNL     1      -7.495  12.201  19.519  0.00  0.00    +0.000 A 
ATOM     32  C   UNL     1      -7.140  11.466  18.390  0.00  0.00    +0.000 A 
ATOM     33  C   UNL     1      -5.798  11.330  18.049  0.00  0.00    +0.000 A 
ATOM     34  C   UNL     1      -4.811  11.949  18.821  0.00  0.00    +0.000 A 
ENDBRANCH  28  29
ENDBRANCH   3  28
TORSDOF 9
ENDMDL
MODEL 6
REMARK VINA RESULT:      -7.3      5.980      8.747
REMARK  Name = 
REMARK  10 active torsions:
REMARK  status: ('A' for Active; 'I' for Inactive)
REMARK    1  A    between atoms: C_1  and  N_2
REMARK    2  A    between atoms: N_2  and  C_16
REMARK    3  A    between atoms: C_3  and  C_5
REMARK    4  A    between atoms: C_5  and  O_6
REMARK    5  A    between atoms: O_6  and  C_7
REMARK    6  A    between atoms: C_7  and  C_9
REMARK    7  A    between atoms: C_10  and  C_11
REMARK    8  A    between atoms: C_17  and  N_18
REMARK    9  A    between atoms: N_19  and  C_20
REMARK   10  A    between atoms: C_20  and  C_21
REMARK                            x       y       z     vdW  Elec       q    Type
REMARK                         _______ _______ _______ _____ _____    ______ ____
ROOT
ATOM      1  C   UNL     1       2.549   6.378  19.277  0.00  0.00    +0.000 A 
ATOM      2  C   UNL     1       2.332   7.662  18.902  0.00  0.00    +0.000 A 
ATOM      3  N   UNL     1       1.641   8.518  19.748  0.00  0.00    +0.000 N 
ATOM      4  C   UNL     1       1.112   8.102  20.970  0.00  0.00    +0.000 A 
ATOM      5  O   UNL     1       0.424   8.804  21.709  0.00  0.00    +0.000 OA
ATOM      6  N   UNL     1       1.396   6.825  21.346  0.00  0.00    +0.000 N 
ATOM      7  C   UNL     1       2.068   5.905  20.602  0.00  0.00    +0.000 A 
ATOM      8  O   UNL     1       2.222   4.749  20.989  0.00  0.00    +0.000 OA
ATOM      9  H   UNL     1       1.031   6.525  22.238  0.00  0.00    +0.000 HD
ENDROOT
BRANCH   1  11
ATOM     10  C   UNL     1       2.308   4.643  17.606  0.00  0.00    +0.000 C 
ATOM     11  N   UNL     1       3.188   5.458  18.440  0.00  0.00    +0.000 N 
ATOM     12  C   UNL     1       4.548   5.224  18.644  0.00  0.00    +0.000 C 
ATOM     13  O   UNL     1       5.228   5.931  19.393  0.00  0.00    +0.000 OA
BRANCH  12  14
ATOM     14  C   UNL     1       5.214   4.133  17.799  0.00  0.00    +0.000 C 
BRANCH  14  15
ATOM     15  O   UNL     1       6.324   4.584  17.029  0.00  0.00    +0.000 OA
BRANCH  15  16
ATOM     16  C   UNL     1       5.984   5.242  15.895  0.00  0.00    +0.000 C 
ATOM     17  O   UNL     1       5.875   6.445  15.757  0.00  0.00    +0.000 OA
BRANCH  16  18
ATOM     18  C   UNL     1       5.732   4.235  14.846  0.00  0.00    +0.000 C 
ATOM     19  C   UNL     1       6.418   4.302  13.697  0.00  0.00    +0.000 C 
BRANCH  19  20
ATOM     20  C   UNL     1       6.227   3.366  12.638  0.00  0.00    +0.000 A 
ATOM     21  C   UNL     1       7.126   2.550  11.968  0.00  0.00    +0.000 A 
ATOM     22  C   UNL     1       6.518   1.754  10.953  0.00  0.00    +0.000 A 
ATOM     23  C   UNL     1       5.164   1.976  10.872  0.00  0.00    +0.000 A 
ATOM     24  S   UNL     1       4.636   3.133  12.008  0.00  0.00    +0.000 S 
ENDBRANCH  19  20
ENDBRANCH  16  18
ENDBRANCH  15  16
ENDBRANCH  14  15
ENDBRANCH  12  14
ENDBRANCH   1  11
BRANCH   2  25
ATOM     25  N   UNL     1       2.779   8.099  17.653  0.00  0.00    +0.000 N 
ATOM     26  H   UNL     1       2.420   7.496  16.914  0.00  0.00    +0.000 HD
ATOM     27  H   UNL     1       3.797   8.109  17.612  0.00  0.00    +0.000 HD
ENDBRANCH   2  25
BRANCH   3  28
ATOM     28  C   UNL     1       1.379   9.910  19.366  0.00  0.00    +0.000 C 
BRANCH  28  29
ATOM     29  C   UNL     1      -0.037  10.189  18.884  0.00  0.00    +0.000 A 
ATOM     30  C   UNL     1      -0.812  11.159  19.540  0.00  0.00    +0.000 A 
ATOM     31  C   UNL     1      -2.049  11.561  19.023  0.00  0.00    +0.000 A 
ATOM     32  C   UNL     1      -2.528  10.998  17.842  0.00  0.00    +0.000 A 
ATOM     33  C   UNL     1      -1.785  10.017  17.193  0.00  0.00    +0.000 A 
ATOM     34  C   UNL     1      -0.549   9.616  17.709  0.00  0.00    +0.000 A 
ENDBRANCH  28  29
ENDBRANCH   3  28
TORSDOF 9
ENDMDL
MODEL 7
REMARK VINA RESULT:      -7.2      1.826      2.271
REMARK  Name = 
REMARK  10 active torsions:
REMARK  status: ('A' for Active; 'I' for Inactive)
REMARK    1  A    between atoms: C_1  and  N_2
REMARK    2  A    between atoms: N_2  and  C_16
REMARK    3  A    between atoms: C_3  and  C_5
REMARK    4  A    between atoms: C_5  and  O_6
REMARK    5  A    between atoms: O_6  and  C_7
REMARK    6  A    between atoms: C_7  and  C_9
REMARK    7  A    between atoms: C_10  and  C_11
REMARK    8  A    between atoms: C_17  and  N_18
REMARK    9  A    between atoms: N_19  and  C_20
REMARK   10  A    between atoms: C_20  and  C_21
REMARK                            x       y       z     vdW  Elec       q    Type
REMARK                         _______ _______ _______ _____ _____    ______ ____
ROOT
ATOM      1  C   UNL     1       6.466   5.538  17.887  0.00  0.00    +0.000 A 
ATOM      2  C   UNL     1       5.152   5.776  18.119  0.00  0.00    +0.000 A 
ATOM      3  N   UNL     1       4.191   4.968  17.527  0.00  0.00    +0.000 N 
ATOM      4  C   UNL     1       4.516   3.929  16.655  0.00  0.00    +0.000 A 
ATOM      5  O   UNL     1       3.695   3.245  16.048  0.00  0.00    +0.000 OA
ATOM      6  N   UNL     1       5.844   3.676  16.488  0.00  0.00    +0.000 N 
ATOM      7  C   UNL     1       6.867   4.396  17.022  0.00  0.00    +0.000 A 
ATOM      8  O   UNL     1       8.040   4.141  16.764  0.00  0.00    +0.000 OA
ATOM      9  H   UNL     1       6.083   2.912  15.873  0.00  0.00    +0.000 HD
ENDROOT
BRANCH   1  11
ATOM     10  C   UNL     1       8.052   5.913  19.676  0.00  0.00    +0.000 C 
ATOM     11  N   UNL     1       7.473   6.354  18.410  0.00  0.00    +0.000 N 
ATOM     12  C   UNL     1       7.662   7.610  17.833  0.00  0.00    +0.000 C 
ATOM     13  O   UNL     1       7.113   7.932  16.775  0.00  0.00    +0.000 OA
BRANCH  12  14
ATOM     14  C   UNL     1       8.689   8.542  18.483  0.00  0.00    +0.000 C 
BRANCH  14  15
ATOM     15  O   UNL     1       8.321   9.917  18.474  0.00  0.00    +0.000 OA
BRANCH  15  16
ATOM     16  C   UNL     1       9.369  10.775  18.507  0.00  0.00    +0.000 C 
ATOM     17  O   UNL     1      10.228  10.907  17.656  0.00  0.00    +0.000 OA
BRANCH  16  18
ATOM     18  C   UNL     1       9.311  11.511  19.784  0.00  0.00    +0.000 C 
ATOM     19  C   UNL     1       9.485  12.840  19.782  0.00  0.00    +0.000 C 
BRANCH  19  20
ATOM     20  C   UNL     1       9.444  13.618  20.976  0.00  0.00    +0.000 A 
ATOM     21  C   UNL     1      10.198  14.709  21.381  0.00  0.00    +0.000 A 
ATOM     22  C   UNL     1       9.836  15.198  22.670  0.00  0.00    +0.000 A 
ATOM     23  C   UNL     1       8.809  14.472  23.222  0.00  0.00    +0.000 A 
ATOM     24  S   UNL     1       8.289  13.214  22.195  0.00  0.00    +0.000 S 
ENDBRANCH  19  20
ENDBRANCH  16  18
ENDBRANCH  15  16
ENDBRANCH  14  15
ENDBRANCH  12  14
ENDBRANCH   1  11
BRANCH   2  25
ATOM     25  N   UNL     1       4.781   6.854  18.926  0.00  0.00    +0.000 N 
ATOM     26  H   UNL     1       4.137   7.469  18.429  0.00  0.00    +0.000 HD
ATOM     27  H   UNL     1       5.596   7.390  19.218  0.00  0.00    +0.000 HD
ENDBRANCH   2  25
BRANCH   3  28
ATOM     28  C   UNL     1       2.761   5.209  17.749  0.00  0.00    +0.000 C 
BRANCH  28  29
ATOM     29  C   UNL     1       2.148   4.427  18.901  0.00  0.00    +0.000 A 
ATOM     30  C   UNL     1       1.483   3.218  18.640  0.00  0.00    +0.000 A 
ATOM     31  C   UNL     1       1.058   2.392  19.686  0.00  0.00    +0.000 A 
ATOM     32  C   UNL     1       1.291   2.763  21.009  0.00  0.00    +0.000 A 
ATOM     33  C   UNL     1       1.926   3.969  21.286  0.00  0.00    +0.000 A 
ATOM     34  C   UNL     1       2.352   4.795  20.241  0.00  0.00    +0.000 A 
ENDBRANCH  28  29
ENDBRANCH   3  28
TORSDOF 9
ENDMDL
MODEL 8
REMARK VINA RESULT:      -7.2      8.633     11.504
REMARK  Name = 
REMARK  10 active torsions:
REMARK  status: ('A' for Active; 'I' for Inactive)
REMARK    1  A    between atoms: C_1  and  N_2
REMARK    2  A    between atoms: N_2  and  C_16
REMARK    3  A    between atoms: C_3  and  C_5
REMARK    4  A    between atoms: C_5  and  O_6
REMARK    5  A    between atoms: O_6  and  C_7
REMARK    6  A    between atoms: C_7  and  C_9
REMARK    7  A    between atoms: C_10  and  C_11
REMARK    8  A    between atoms: C_17  and  N_18
REMARK    9  A    between atoms: N_19  and  C_20
REMARK   10  A    between atoms: C_20  and  C_21
REMARK                            x       y       z     vdW  Elec       q    Type
REMARK                         _______ _______ _______ _____ _____    ______ ____
ROOT
ATOM      1  C   UNL     1      -0.912  11.884  21.314  0.00  0.00    +0.000 A 
ATOM      2  C   UNL     1      -1.939  12.673  20.914  0.00  0.00    +0.000 A 
ATOM      3  N   UNL     1      -3.018  12.879  21.761  0.00  0.00    +0.000 N 
ATOM      4  C   UNL     1      -3.120  12.270  23.011  0.00  0.00    +0.000 A 
ATOM      5  O   UNL     1      -4.094  12.361  23.755  0.00  0.00    +0.000 OA
ATOM      6  N   UNL     1      -2.047  11.532  23.410  0.00  0.00    +0.000 N 
ATOM      7  C   UNL     1      -0.938  11.269  22.668  0.00  0.00    +0.000 A 
ATOM      8  O   UNL     1      -0.045  10.533  23.078  0.00  0.00    +0.000 OA
ATOM      9  H   UNL     1      -2.109  11.104  24.323  0.00  0.00    +0.000 HD
ENDROOT
BRANCH   1  11
ATOM     10  C   UNL     1       1.256  12.574  20.488  0.00  0.00    +0.000 C 
ATOM     11  N   UNL     1       0.172  11.595  20.479  0.00  0.00    +0.000 N 
ATOM     12  C   UNL     1       0.026  10.565  19.551  0.00  0.00    +0.000 C 
ATOM     13  O   UNL     1      -0.936   9.792  19.579  0.00  0.00    +0.000 OA
BRANCH  12  14
ATOM     14  C   UNL     1       1.175  10.330  18.566  0.00  0.00    +0.000 C 
BRANCH  14  15
ATOM     15  O   UNL     1       1.121   9.077  17.890  0.00  0.00    +0.000 OA
BRANCH  15  16
ATOM     16  C   UNL     1       2.303   8.418  17.842  0.00  0.00    +0.000 C 
ATOM     17  O   UNL     1       3.405   8.911  17.694  0.00  0.00    +0.000 OA
BRANCH  16  18
ATOM     18  C   UNL     1       2.023   6.976  17.971  0.00  0.00    +0.000 C 
ATOM     19  C   UNL     1       3.046   6.117  18.078  0.00  0.00    +0.000 C 
BRANCH  19  20
ATOM     20  C   UNL     1       2.853   4.710  18.203  0.00  0.00    +0.000 A 
ATOM     21  C   UNL     1       1.783   3.900  17.853  0.00  0.00    +0.000 A 
ATOM     22  C   UNL     1       1.995   2.523  18.157  0.00  0.00    +0.000 A 
ATOM     23  C   UNL     1       3.225   2.309  18.730  0.00  0.00    +0.000 A 
ATOM     24  S   UNL     1       4.113   3.755  18.899  0.00  0.00    +0.000 S 
ENDBRANCH  19  20
ENDBRANCH  16  18
ENDBRANCH  15  16
ENDBRANCH  14  15
ENDBRANCH  12  14
ENDBRANCH   1  11
BRANCH   2  25
ATOM     25  N   UNL     1      -1.912  13.242  19.638  0.00  0.00    +0.000 N 
ATOM     26  H   UNL     1      -1.116  12.892  19.107  0.00  0.00    +0.000 HD
ATOM     27  H   UNL     1      -1.858  14.257  19.691  0.00  0.00    +0.000 HD
ENDBRANCH   2  25
BRANCH   3  28
ATOM     28  C   UNL     1      -4.151  13.718  21.351  0.00  0.00    +0.000 C 
BRANCH  28  29
ATOM     29  C   UNL     1      -5.357  12.956  20.823  0.00  0.00    +0.000 A 
ATOM     30  C   UNL     1      -5.226  12.171  19.665  0.00  0.00    +0.000 A 
ATOM     31  C   UNL     1      -6.261  11.327  19.249  0.00  0.00    +0.000 A 
ATOM     32  C   UNL     1      -7.443  11.255  19.984  0.00  0.00    +0.000 A 
ATOM     33  C   UNL     1      -7.599  12.045  21.118  0.00  0.00    +0.000 A 
ATOM     34  C   UNL     1      -6.565  12.888  21.535  0.00  0.00    +0.000 A 
ENDBRANCH  28  29
ENDBRANCH   3  28
TORSDOF 9
ENDMDL
MODEL 9
REMARK VINA RESULT:      -7.1      5.641      8.565
REMARK  Name = 
REMARK  10 active torsions:
REMARK  status: ('A' for Active; 'I' for Inactive)
REMARK    1  A    between atoms: C_1  and  N_2
REMARK    2  A    between atoms: N_2  and  C_16
REMARK    3  A    between atoms: C_3  and  C_5
REMARK    4  A    between atoms: C_5  and  O_6
REMARK    5  A    between atoms: O_6  and  C_7
REMARK    6  A    between atoms: C_7  and  C_9
REMARK    7  A    between atoms: C_10  and  C_11
REMARK    8  A    between atoms: C_17  and  N_18
REMARK    9  A    between atoms: N_19  and  C_20
REMARK   10  A    between atoms: C_20  and  C_21
REMARK                            x       y       z     vdW  Elec       q    Type
REMARK                         _______ _______ _______ _____ _____    ______ ____
ROOT
ATOM      1  C   UNL     1       4.584   5.551  17.749  0.00  0.00    +0.000 A 
ATOM      2  C   UNL     1       5.365   5.810  16.671  0.00  0.00    +0.000 A 
ATOM      3  N   UNL     1       6.639   5.264  16.598  0.00  0.00    +0.000 N 
ATOM      4  C   UNL     1       7.181   4.481  17.616  0.00  0.00    +0.000 A 
ATOM      5  O   UNL     1       8.332   4.048  17.627  0.00  0.00    +0.000 OA
ATOM      6  N   UNL     1       6.353   4.189  18.658  0.00  0.00    +0.000 N 
ATOM      7  C   UNL     1       5.089   4.662  18.829  0.00  0.00    +0.000 A 
ATOM      8  O   UNL     1       4.434   4.404  19.835  0.00  0.00    +0.000 OA
ATOM      9  H   UNL     1       6.736   3.606  19.388  0.00  0.00    +0.000 HD
ENDROOT
BRANCH   1  11
ATOM     10  C   UNL     1       2.190   5.199  17.785  0.00  0.00    +0.000 C 
ATOM     11  N   UNL     1       3.317   6.121  17.902  0.00  0.00    +0.000 N 
ATOM     12  C   UNL     1       3.222   7.512  17.904  0.00  0.00    +0.000 C 
ATOM     13  O   UNL     1       4.220   8.235  17.970  0.00  0.00    +0.000 OA
BRANCH  12  14
ATOM     14  C   UNL     1       1.820   8.127  17.959  0.00  0.00    +0.000 C 
BRANCH  14  15
ATOM     15  O   UNL     1       1.806   9.543  18.105  0.00  0.00    +0.000 OA
BRANCH  15  16
ATOM     16  C   UNL     1       0.851  10.008  18.945  0.00  0.00    +0.000 C 
ATOM     17  O   UNL     1       0.921  10.077  20.158  0.00  0.00    +0.000 OA
BRANCH  16  18
ATOM     18  C   UNL     1      -0.319  10.391  18.134  0.00  0.00    +0.000 C 
ATOM     19  C   UNL     1      -1.511  10.533  18.730  0.00  0.00    +0.000 C 
BRANCH  19  20
ATOM     20  C   UNL     1      -2.686  10.899  18.010  0.00  0.00    +0.000 A 
ATOM     21  C   UNL     1      -3.850  11.531  18.423  0.00  0.00    +0.000 A 
ATOM     22  C   UNL     1      -4.799  11.708  17.374  0.00  0.00    +0.000 A 
ATOM     23  C   UNL     1      -4.338  11.211  16.178  0.00  0.00    +0.000 A 
ATOM     24  S   UNL     1      -2.777  10.538  16.324  0.00  0.00    +0.000 S 
ENDBRANCH  19  20
ENDBRANCH  16  18
ENDBRANCH  15  16
ENDBRANCH  14  15
ENDBRANCH  12  14
ENDBRANCH   1  11
BRANCH   2  25
ATOM     25  N   UNL     1       4.888   6.651  15.664  0.00  0.00    +0.000 N 
ATOM     26  H   UNL     1       4.260   7.354  16.052  0.00  0.00    +0.000 HD
ATOM     27  H   UNL     1       4.395   6.121  14.947  0.00  0.00    +0.000 HD
ENDBRANCH   2  25
BRANCH   3  28
ATOM     28  C   UNL     1       7.512   5.536  15.450  0.00  0.00    +0.000 C 
BRANCH  28  29
ATOM     29  C   UNL     1       7.079   4.887  14.144  0.00  0.00    +0.000 A 
ATOM     30  C   UNL     1       7.742   5.223  12.952  0.00  0.00    +0.000 A 
ATOM     31  C   UNL     1       7.486   4.525  11.767  0.00  0.00    +0.000 A 
ATOM     32  C   UNL     1       6.563   3.481  11.756  0.00  0.00    +0.000 A 
ATOM     33  C   UNL     1       5.879   3.153  12.922  0.00  0.00    +0.000 A 
ATOM     34  C   UNL     1       6.135   3.849  14.107  0.00  0.00    +0.000 A 
ENDBRANCH  28  29
ENDBRANCH   3  28
TORSDOF 9
ENDMDL
