MODEL 1
REMARK VINA RESULT:      -7.9      0.000      0.000
REMARK  Name = 
REMARK  14 active torsions:
REMARK  status: ('A' for Active; 'I' for Inactive)
REMARK    1  A    between atoms: C_1  and  C_2
REMARK    2  A    between atoms: C_2  and  C_3
REMARK    3  A    between atoms: C_3  and  C_4
REMARK    4  A    between atoms: C_6  and  C_7
REMARK    5  A    between atoms: C_10  and  O_11
REMARK    6  A    between atoms: O_11  and  C_12
REMARK    7  A    between atoms: C_13  and  O_14
REMARK    8  A    between atoms: O_14  and  C_15
REMARK    9  A    between atoms: C_15  and  C_16
REMARK   10  A    between atoms: C_16  and  O_17
REMARK   11  A    between atoms: C_20  and  C_21
REMARK   12  A    between atoms: C_21  and  S_22
REMARK   13  A    between atoms: S_22  and  C_23
REMARK   14  A    between atoms: C_28  and  N_29
REMARK                            x       y       z     vdW  Elec       q    Type
REMARK                         _______ _______ _______ _____ _____    ______ ____
ROOT
ATOM      1  C   UNL     1       3.037   3.688  17.675  0.00  0.00    +0.000 A 
ATOM      2  S   UNL     1       1.914   4.670  18.526  0.00  0.00    +0.000 S 
ATOM      3  C   UNL     1       2.819   6.071  18.130  0.00  0.00    +0.000 A 
ATOM      4  N   UNL     1       3.908   5.834  17.431  0.00  0.00    +0.000 NA
ATOM      5  C   UNL     1       4.090   4.469  17.219  0.00  0.00    +0.000 A 
ENDROOT
BRANCH   3   6
ATOM      6  C   UNL     1       2.355   7.415  18.505  0.00  0.00    +0.000 A 
ATOM      7  C   UNL     1       2.281   8.481  17.599  0.00  0.00    +0.000 A 
ATOM      8  C   UNL     1       1.810   9.724  18.006  0.00  0.00    +0.000 A 
ATOM      9  C   UNL     1       1.399   9.946  19.328  0.00  0.00    +0.000 A 
ATOM     10  C   UNL     1       1.482   8.900  20.261  0.00  0.00    +0.000 A 
ATOM     11  C   UNL     1       1.938   7.643  19.831  0.00  0.00    +0.000 A 
BRANCH   9  12
ATOM     12  O   UNL     1       0.955  11.228  19.519  0.00  0.00    +0.000 OA
ATOM     13  C   UNL     1       1.727  12.305  19.011  0.00  0.00    +0.000 C 
ENDBRANCH   9  12
BRANCH  10  14
ATOM     14  O   UNL     1       1.045   9.113  21.540  0.00  0.00    +0.000 OA
BRANCH  14  15
ATOM     15  C   UNL     1      -0.360   8.970  21.788  0.00  0.00    +0.000 C 
BRANCH  15  16
ATOM     16  C   UNL     1      -0.660   9.654  23.121  0.00  0.00    +0.000 C 
BRANCH  16  17
ATOM     17  O   UNL     1       0.501   9.681  23.949  0.00  0.00    +0.000 OA
ATOM     18  H   UNL     1       1.052   8.925  23.670  0.00  0.00    +0.000 HD
ENDBRANCH  16  17
ENDBRANCH  15  16
ENDBRANCH  14  15
ENDBRANCH  10  14
ENDBRANCH   3   6
BRANCH   1  19
ATOM     19  C   UNL     1       2.793   2.212  17.552  0.00  0.00    +0.000 C 
BRANCH  19  21
ATOM     20  C   UNL     1       4.159   2.333  19.674  0.00  0.00    +0.000 C 
ATOM     21  C   UNL     1       3.405   1.425  18.717  0.00  0.00    +0.000 C 
ENDBRANCH  19  21
ENDBRANCH   1  19
BRANCH   5  22
ATOM     22  C   UNL     1       5.314   3.990  16.486  0.00  0.00    +0.000 C 
BRANCH  22  23
ATOM     23  S   UNL     1       6.164   5.305  15.554  0.00  0.00    +0.000 S 
BRANCH  23  24
ATOM     24  C   UNL     1       7.057   6.082  16.879  0.00  0.00    +0.000 A 
ATOM     25  N   UNL     1       7.425   5.337  17.933  0.00  0.00    +0.000 NA
ATOM     26  C   UNL     1       8.021   5.979  18.939  0.00  0.00    +0.000 A 
ATOM     27  N   UNL     1       8.329   5.225  20.070  0.00  0.00    +0.000 N 
ATOM     28  C   UNL     1       8.243   7.335  18.925  0.00  0.00    +0.000 A 
ATOM     29  C   UNL     1       7.844   8.013  17.799  0.00  0.00    +0.000 A 
ATOM     30  N   UNL     1       7.259   7.405  16.764  0.00  0.00    +0.000 NA
ATOM     31  H   UNL     1       8.176   4.244  19.857  0.00  0.00    +0.000 HD
ATOM     32  H   UNL     1       9.261   5.405  20.424  0.00  0.00    +0.000 HD
BRANCH  29  33
ATOM     33  N   UNL     1       8.084   9.381  17.680  0.00  0.00    +0.000 N 
ATOM     34  H   UNL     1       8.819   9.589  17.014  0.00  0.00    +0.000 HD
ATOM     35  H   UNL     1       8.295   9.742  18.607  0.00  0.00    +0.000 HD
ENDBRANCH  29  33
ENDBRANCH  23  24
ENDBRANCH  22  23
ENDBRANCH   5  22
TORSDOF 12
ENDMDL
MODEL 2
REMARK VINA RESULT:      -7.7      0.906      1.086
REMARK  Name = 
REMARK  14 active torsions:
REMARK  status: ('A' for Active; 'I' for Inactive)
REMARK    1  A    between atoms: C_1  and  C_2
REMARK    2  A    between atoms: C_2  and  C_3
REMARK    3  A    between atoms: C_3  and  C_4
REMARK    4  A    between atoms: C_6  and  C_7
REMARK    5  A    between atoms: C_10  and  O_11
REMARK    6  A    between atoms: O_11  and  C_12
REMARK    7  A    between atoms: C_13  and  O_14
REMARK    8  A    between atoms: O_14  and  C_15
REMARK    9  A    between atoms: C_15  and  C_16
REMARK   10  A    between atoms: C_16  and  O_17
REMARK   11  A    between atoms: C_20  and  C_21
REMARK   12  A    between atoms: C_21  and  S_22
REMARK   13  A    between atoms: S_22  and  C_23
REMARK   14  A    between atoms: C_28  and  N_29
REMARK                            x       y       z     vdW  Elec       q    Type
REMARK                         _______ _______ _______ _____ _____    ______ ____
ROOT
ATOM      1  C   UNL     1       4.259   4.155  18.133  0.00  0.00    +0.000 A 
ATOM      2  S   UNL     1       3.491   5.068  19.369  0.00  0.00    +0.000 S 
ATOM      3  C   UNL     1       3.246   6.366  18.276  0.00  0.00    +0.000 A 
ATOM      4  N   UNL     1       3.726   6.157  17.069  0.00  0.00    +0.000 NA
ATOM      5  C   UNL     1       4.373   4.927  16.984  0.00  0.00    +0.000 A 
ENDROOT
BRANCH   3   6
ATOM      6  C   UNL     1       2.502   7.571  18.671  0.00  0.00    +0.000 A 
ATOM      7  C   UNL     1       2.165   8.594  17.775  0.00  0.00    +0.000 A 
ATOM      8  C   UNL     1       1.439   9.699  18.204  0.00  0.00    +0.000 A 
ATOM      9  C   UNL     1       1.024   9.822  19.537  0.00  0.00    +0.000 A 
ATOM     10  C   UNL     1       1.366   8.821  20.461  0.00  0.00    +0.000 A 
ATOM     11  C   UNL     1       2.081   7.699  20.010  0.00  0.00    +0.000 A 
BRANCH   9  12
ATOM     12  O   UNL     1       0.310  10.971  19.748  0.00  0.00    +0.000 OA
ATOM     13  C   UNL     1      -0.843  11.219  18.959  0.00  0.00    +0.000 C 
ENDBRANCH   9  12
BRANCH  10  14
ATOM     14  O   UNL     1       0.928   8.929  21.752  0.00  0.00    +0.000 OA
BRANCH  14  15
ATOM     15  C   UNL     1      -0.487   8.872  21.975  0.00  0.00    +0.000 C 
BRANCH  15  16
ATOM     16  C   UNL     1      -0.802   9.791  23.154  0.00  0.00    +0.000 C 
BRANCH  16  17
ATOM     17  O   UNL     1       0.171   9.642  24.185  0.00  0.00    +0.000 OA
ATOM     18  H   UNL     1       0.900   9.120  23.799  0.00  0.00    +0.000 HD
ENDBRANCH  16  17
ENDBRANCH  15  16
ENDBRANCH  14  15
ENDBRANCH  10  14
ENDBRANCH   3   6
BRANCH   1  19
ATOM     19  C   UNL     1       4.712   2.753  18.415  0.00  0.00    +0.000 C 
BRANCH  19  21
ATOM     20  C   UNL     1       2.432   1.892  17.747  0.00  0.00    +0.000 C 
ATOM     21  C   UNL     1       3.544   1.830  18.781  0.00  0.00    +0.000 C 
ENDBRANCH  19  21
ENDBRANCH   1  19
BRANCH   5  22
ATOM     22  C   UNL     1       5.042   4.529  15.696  0.00  0.00    +0.000 C 
BRANCH  22  23
ATOM     23  S   UNL     1       6.742   3.913  15.920  0.00  0.00    +0.000 S 
BRANCH  23  24
ATOM     24  C   UNL     1       7.347   5.117  17.078  0.00  0.00    +0.000 A 
ATOM     25  N   UNL     1       7.732   4.703  18.296  0.00  0.00    +0.000 NA
ATOM     26  C   UNL     1       8.102   5.651  19.159  0.00  0.00    +0.000 A 
ATOM     27  N   UNL     1       8.421   5.235  20.450  0.00  0.00    +0.000 N 
ATOM     28  C   UNL     1       8.084   6.988  18.843  0.00  0.00    +0.000 A 
ATOM     29  C   UNL     1       7.689   7.315  17.569  0.00  0.00    +0.000 A 
ATOM     30  N   UNL     1       7.326   6.396  16.671  0.00  0.00    +0.000 NA
ATOM     31  H   UNL     1       8.463   4.220  20.462  0.00  0.00    +0.000 HD
ATOM     32  H   UNL     1       9.266   5.664  20.807  0.00  0.00    +0.000 HD
BRANCH  29  33
ATOM     33  N   UNL     1       7.697   8.645  17.149  0.00  0.00    +0.000 N 
ATOM     34  H   UNL     1       8.613   8.947  16.839  0.00  0.00    +0.000 HD
ATOM     35  H   UNL     1       7.347   9.216  17.915  0.00  0.00    +0.000 HD
ENDBRANCH  29  33
ENDBRANCH  23  24
ENDBRANCH  22  23
ENDBRANCH   5  22
TORSDOF 12
ENDMDL
MODEL 3
REMARK VINA RESULT:      -7.6      2.127      2.995
REMARK  Name = 
REMARK  14 active torsions:
REMARK  status: ('A' for Active; 'I' for Inactive)
REMARK    1  A    between atoms: C_1  and  C_2
REMARK    2  A    between atoms: C_2  and  C_3
REMARK    3  A    between atoms: C_3  and  C_4
REMARK    4  A    between atoms: C_6  and  C_7
REMARK    5  A    between atoms: C_10  and  O_11
REMARK    6  A    between atoms: O_11  and  C_12
REMARK    7  A    between atoms: C_13  and  O_14
REMARK    8  A    between atoms: O_14  and  C_15
REMARK    9  A    between atoms: C_15  and  C_16
REMARK   10  A    between atoms: C_16  and  O_17
REMARK   11  A    between atoms: C_20  and  C_21
REMARK   12  A    between atoms: C_21  and  S_22
REMARK   13  A    between atoms: S_22  and  C_23
REMARK   14  A    between atoms: C_28  and  N_29
REMARK                            x       y       z     vdW  Elec       q    Type
REMARK                         _______ _______ _______ _____ _____    ______ ____
ROOT
ATOM      1  C   UNL     1       2.463   4.692  20.509  0.00  0.00    +0.000 A 
ATOM      2  S   UNL     1       1.430   6.020  20.858  0.00  0.00    +0.000 S 
ATOM      3  C   UNL     1       2.248   6.977  19.694  0.00  0.00    +0.000 A 
ATOM      4  N   UNL     1       3.247   6.367  19.094  0.00  0.00    +0.000 NA
ATOM      5  C   UNL     1       3.434   5.081  19.596  0.00  0.00    +0.000 A 
ENDROOT
BRANCH   3   6
ATOM      6  C   UNL     1       1.802   8.341  19.373  0.00  0.00    +0.000 A 
ATOM      7  C   UNL     1       2.293   9.073  18.284  0.00  0.00    +0.000 A 
ATOM      8  C   UNL     1       1.815  10.351  18.018  0.00  0.00    +0.000 A 
ATOM      9  C   UNL     1       0.833  10.941  18.826  0.00  0.00    +0.000 A 
ATOM     10  C   UNL     1       0.337  10.237  19.935  0.00  0.00    +0.000 A 
ATOM     11  C   UNL     1       0.813   8.938  20.180  0.00  0.00    +0.000 A 
BRANCH   9  12
ATOM     12  O   UNL     1       0.489  12.191  18.384  0.00  0.00    +0.000 OA
ATOM     13  C   UNL     1       1.468  13.218  18.393  0.00  0.00    +0.000 C 
ENDBRANCH   9  12
BRANCH  10  14
ATOM     14  O   UNL     1      -0.647  10.803  20.697  0.00  0.00    +0.000 OA
BRANCH  14  15
ATOM     15  C   UNL     1      -0.247  11.468  21.902  0.00  0.00    +0.000 C 
BRANCH  15  16
ATOM     16  C   UNL     1      -0.849  10.694  23.074  0.00  0.00    +0.000 C 
BRANCH  16  17
ATOM     17  O   UNL     1       0.129   9.848  23.677  0.00  0.00    +0.000 OA
ATOM     18  H   UNL     1       0.937   9.938  23.136  0.00  0.00    +0.000 HD
ENDBRANCH  16  17
ENDBRANCH  15  16
ENDBRANCH  14  15
ENDBRANCH  10  14
ENDBRANCH   3   6
BRANCH   1  19
ATOM     19  C   UNL     1       2.240   3.375  21.194  0.00  0.00    +0.000 C 
BRANCH  19  21
ATOM     20  C   UNL     1       0.606   2.744  19.373  0.00  0.00    +0.000 C 
ATOM     21  C   UNL     1       1.782   2.285  20.218  0.00  0.00    +0.000 C 
ENDBRANCH  19  21
ENDBRANCH   1  19
BRANCH   5  22
ATOM     22  C   UNL     1       4.569   4.241  19.078  0.00  0.00    +0.000 C 
BRANCH  22  23
ATOM     23  S   UNL     1       4.139   3.271  17.597  0.00  0.00    +0.000 S 
BRANCH  23  24
ATOM     24  C   UNL     1       5.251   4.007  16.423  0.00  0.00    +0.000 A 
ATOM     25  N   UNL     1       5.345   3.467  15.197  0.00  0.00    +0.000 NA
ATOM     26  C   UNL     1       6.251   4.002  14.377  0.00  0.00    +0.000 A 
ATOM     27  N   UNL     1       6.411   3.391  13.135  0.00  0.00    +0.000 N 
ATOM     28  C   UNL     1       7.066   5.043  14.751  0.00  0.00    +0.000 A 
ATOM     29  C   UNL     1       6.888   5.540  16.019  0.00  0.00    +0.000 A 
ATOM     30  N   UNL     1       5.982   5.044  16.865  0.00  0.00    +0.000 NA
ATOM     31  H   UNL     1       5.669   2.709  13.011  0.00  0.00    +0.000 HD
ATOM     32  H   UNL     1       6.462   4.054  12.370  0.00  0.00    +0.000 HD
BRANCH  29  33
ATOM     33  N   UNL     1       7.634   6.633  16.457  0.00  0.00    +0.000 N 
ATOM     34  H   UNL     1       8.428   6.357  17.024  0.00  0.00    +0.000 HD
ATOM     35  H   UNL     1       7.007   7.258  16.958  0.00  0.00    +0.000 HD
ENDBRANCH  29  33
ENDBRANCH  23  24
ENDBRANCH  22  23
ENDBRANCH   5  22
TORSDOF 12
ENDMDL
MODEL 4
REMARK VINA RESULT:      -7.5      1.076      1.223
REMARK  Name = 
REMARK  14 active torsions:
REMARK  status: ('A' for Active; 'I' for Inactive)
REMARK    1  A    between atoms: C_1  and  C_2
REMARK    2  A    between atoms: C_2  and  C_3
REMARK    3  A    between atoms: C_3  and  C_4
REMARK    4  A    between atoms: C_6  and  C_7
REMARK    5  A    between atoms: C_10  and  O_11
REMARK    6  A    between atoms: O_11  and  C_12
REMARK    7  A    between atoms: C_13  and  O_14
REMARK    8  A    between atoms: O_14  and  C_15
REMARK    9  A    between atoms: C_15  and  C_16
REMARK   10  A    between atoms: C_16  and  O_17
REMARK   11  A    between atoms: C_20  and  C_21
REMARK   12  A    between atoms: C_21  and  S_22
REMARK   13  A    between atoms: S_22  and  C_23
REMARK   14  A    between atoms: C_28  and  N_29
REMARK                            x       y       z     vdW  Elec       q    Type
REMARK                         _______ _______ _______ _____ _____    ______ ____
ROOT
ATOM      1  C   UNL     1       3.295   4.377  18.958  0.00  0.00    +0.000 A 
ATOM      2  S   UNL     1       2.402   5.551  19.838  0.00  0.00    +0.000 S 
ATOM      3  C   UNL     1       2.732   6.724  18.633  0.00  0.00    +0.000 A 
ATOM      4  N   UNL     1       3.483   6.291  17.644  0.00  0.00    +0.000 NA
ATOM      5  C   UNL     1       3.876   4.970  17.845  0.00  0.00    +0.000 A 
ENDROOT
BRANCH   3   6
ATOM      6  C   UNL     1       2.156   8.076  18.700  0.00  0.00    +0.000 A 
ATOM      7  C   UNL     1       2.463   9.088  17.781  0.00  0.00    +0.000 A 
ATOM      8  C   UNL     1       1.867  10.339  17.883  0.00  0.00    +0.000 A 
ATOM      9  C   UNL     1       0.947  10.625  18.902  0.00  0.00    +0.000 A 
ATOM     10  C   UNL     1       0.638   9.635  19.849  0.00  0.00    +0.000 A 
ATOM     11  C   UNL     1       1.230   8.368  19.722  0.00  0.00    +0.000 A 
BRANCH   9  12
ATOM     12  O   UNL     1       0.466  11.904  18.815  0.00  0.00    +0.000 OA
ATOM     13  C   UNL     1       1.350  12.989  19.044  0.00  0.00    +0.000 C 
ENDBRANCH   9  12
BRANCH  10  14
ATOM     14  O   UNL     1      -0.287   9.908  20.819  0.00  0.00    +0.000 OA
BRANCH  14  15
ATOM     15  C   UNL     1       0.179  10.555  22.009  0.00  0.00    +0.000 C 
BRANCH  15  16
ATOM     16  C   UNL     1       0.589   9.462  22.995  0.00  0.00    +0.000 C 
BRANCH  16  17
ATOM     17  O   UNL     1       2.004   9.286  22.994  0.00  0.00    +0.000 OA
ATOM     18  H   UNL     1       2.159   8.324  22.927  0.00  0.00    +0.000 HD
ENDBRANCH  16  17
ENDBRANCH  15  16
ENDBRANCH  14  15
ENDBRANCH  10  14
ENDBRANCH   3   6
BRANCH   1  19
ATOM     19  C   UNL     1       3.368   2.966  19.461  0.00  0.00    +0.000 C 
BRANCH  19  21
ATOM     20  C   UNL     1       0.990   2.258  18.985  0.00  0.00    +0.000 C 
ATOM     21  C   UNL     1       2.037   2.494  20.060  0.00  0.00    +0.000 C 
ENDBRANCH  19  21
ENDBRANCH   1  19
BRANCH   5  22
ATOM     22  C   UNL     1       4.791   4.309  16.848  0.00  0.00    +0.000 C 
BRANCH  22  23
ATOM     23  S   UNL     1       5.695   5.491  15.798  0.00  0.00    +0.000 S 
BRANCH  23  24
ATOM     24  C   UNL     1       6.795   6.186  17.008  0.00  0.00    +0.000 A 
ATOM     25  N   UNL     1       7.202   5.414  18.028  0.00  0.00    +0.000 NA
ATOM     26  C   UNL     1       7.961   6.002  18.955  0.00  0.00    +0.000 A 
ATOM     27  N   UNL     1       8.315   5.228  20.059  0.00  0.00    +0.000 N 
ATOM     28  C   UNL     1       8.308   7.330  18.896  0.00  0.00    +0.000 A 
ATOM     29  C   UNL     1       7.858   8.036  17.808  0.00  0.00    +0.000 A 
ATOM     30  N   UNL     1       7.110   7.483  16.851  0.00  0.00    +0.000 NA
ATOM     31  H   UNL     1       8.047   4.265  19.879  0.00  0.00    +0.000 HD
ATOM     32  H   UNL     1       9.293   5.319  20.309  0.00  0.00    +0.000 HD
BRANCH  29  33
ATOM     33  N   UNL     1       8.213   9.375  17.642  0.00  0.00    +0.000 N 
ATOM     34  H   UNL     1       9.183   9.549  17.875  0.00  0.00    +0.000 HD
ATOM     35  H   UNL     1       7.578   9.937  18.205  0.00  0.00    +0.000 HD
ENDBRANCH  29  33
ENDBRANCH  23  24
ENDBRANCH  22  23
ENDBRANCH   5  22
TORSDOF 12
ENDMDL
MODEL 5
REMARK VINA RESULT:      -7.5      1.446      2.150
REMARK  Name = 
REMARK  14 active torsions:
REMARK  status: ('A' for Active; 'I' for Inactive)
REMARK    1  A    between atoms: C_1  and  C_2
REMARK    2  A    between atoms: C_2  and  C_3
REMARK    3  A    between atoms: C_3  and  C_4
REMARK    4  A    between atoms: C_6  and  C_7
REMARK    5  A    between atoms: C_10  and  O_11
REMARK    6  A    between atoms: O_11  and  C_12
REMARK    7  A    between atoms: C_13  and  O_14
REMARK    8  A    between atoms: O_14  and  C_15
REMARK    9  A    between atoms: C_15  and  C_16
REMARK   10  A    between atoms: C_16  and  O_17
REMARK   11  A    between atoms: C_20  and  C_21
REMARK   12  A    between atoms: C_21  and  S_22
REMARK   13  A    between atoms: S_22  and  C_23
REMARK   14  A    between atoms: C_28  and  N_29
REMARK                            x       y       z     vdW  Elec       q    Type
REMARK                         _______ _______ _______ _____ _____    ______ ____
ROOT
ATOM      1  C   UNL     1       2.995   4.342  19.340  0.00  0.00    +0.000 A 
ATOM      2  S   UNL     1       2.156   5.550  20.227  0.00  0.00    +0.000 S 
ATOM      3  C   UNL     1       2.507   6.705  19.010  0.00  0.00    +0.000 A 
ATOM      4  N   UNL     1       3.228   6.241  18.013  0.00  0.00    +0.000 NA
ATOM      5  C   UNL     1       3.579   4.908  18.215  0.00  0.00    +0.000 A 
ENDROOT
BRANCH   3   6
ATOM      6  C   UNL     1       1.978   8.076  19.078  0.00  0.00    +0.000 A 
ATOM      7  C   UNL     1       1.736   8.862  17.944  0.00  0.00    +0.000 A 
ATOM      8  C   UNL     1       1.212  10.144  18.072  0.00  0.00    +0.000 A 
ATOM      9  C   UNL     1       0.913  10.684  19.330  0.00  0.00    +0.000 A 
ATOM     10  C   UNL     1       1.165   9.924  20.484  0.00  0.00    +0.000 A 
ATOM     11  C   UNL     1       1.674   8.623  20.341  0.00  0.00    +0.000 A 
BRANCH   9  12
ATOM     12  O   UNL     1       0.392  11.947  19.236  0.00  0.00    +0.000 OA
ATOM     13  C   UNL     1      -0.891  12.120  18.656  0.00  0.00    +0.000 C 
ENDBRANCH   9  12
BRANCH  10  14
ATOM     14  O   UNL     1       0.837  10.443  21.707  0.00  0.00    +0.000 OA
BRANCH  14  15
ATOM     15  C   UNL     1      -0.501  10.232  22.174  0.00  0.00    +0.000 C 
BRANCH  15  16
ATOM     16  C   UNL     1      -1.066  11.593  22.576  0.00  0.00    +0.000 C 
BRANCH  16  17
ATOM     17  O   UNL     1      -2.231  11.439  23.384  0.00  0.00    +0.000 OA
ATOM     18  H   UNL     1      -2.360  12.291  23.842  0.00  0.00    +0.000 HD
ENDBRANCH  16  17
ENDBRANCH  15  16
ENDBRANCH  14  15
ENDBRANCH  10  14
ENDBRANCH   3   6
BRANCH   1  19
ATOM     19  C   UNL     1       3.028   2.932  19.851  0.00  0.00    +0.000 C 
BRANCH  19  21
ATOM     20  C   UNL     1       1.516   2.454  21.818  0.00  0.00    +0.000 C 
ATOM     21  C   UNL     1       1.646   2.447  20.304  0.00  0.00    +0.000 C 
ENDBRANCH  19  21
ENDBRANCH   1  19
BRANCH   5  22
ATOM     22  C   UNL     1       4.455   4.212  17.209  0.00  0.00    +0.000 C 
BRANCH  22  23
ATOM     23  S   UNL     1       5.263   5.350  16.038  0.00  0.00    +0.000 S 
BRANCH  23  24
ATOM     24  C   UNL     1       6.403   6.153  17.139  0.00  0.00    +0.000 A 
ATOM     25  N   UNL     1       6.765   7.420  16.881  0.00  0.00    +0.000 NA
ATOM     26  C   UNL     1       7.684   7.954  17.687  0.00  0.00    +0.000 A 
ATOM     27  N   UNL     1       8.124   9.238  17.372  0.00  0.00    +0.000 N 
ATOM     28  C   UNL     1       8.255   7.258  18.725  0.00  0.00    +0.000 A 
ATOM     29  C   UNL     1       7.812   5.972  18.921  0.00  0.00    +0.000 A 
ATOM     30  N   UNL     1       6.883   5.406  18.147  0.00  0.00    +0.000 NA
ATOM     31  H   UNL     1       7.529   9.615  16.640  0.00  0.00    +0.000 HD
ATOM     32  H   UNL     1       8.180   9.848  18.180  0.00  0.00    +0.000 HD
BRANCH  29  33
ATOM     33  N   UNL     1       8.298   5.216  19.987  0.00  0.00    +0.000 N 
ATOM     34  H   UNL     1       8.239   5.709  20.870  0.00  0.00    +0.000 HD
ATOM     35  H   UNL     1       9.253   4.943  19.766  0.00  0.00    +0.000 HD
ENDBRANCH  29  33
ENDBRANCH  23  24
ENDBRANCH  22  23
ENDBRANCH   5  22
TORSDOF 12
ENDMDL
MODEL 6
REMARK VINA RESULT:      -7.4      1.499      1.659
REMARK  Name = 
REMARK  14 active torsions:
REMARK  status: ('A' for Active; 'I' for Inactive)
REMARK    1  A    between atoms: C_1  and  C_2
REMARK    2  A    between atoms: C_2  and  C_3
REMARK    3  A    between atoms: C_3  and  C_4
REMARK    4  A    between atoms: C_6  and  C_7
REMARK    5  A    between atoms: C_10  and  O_11
REMARK    6  A    between atoms: O_11  and  C_12
REMARK    7  A    between atoms: C_13  and  O_14
REMARK    8  A    between atoms: O_14  and  C_15
REMARK    9  A    between atoms: C_15  and  C_16
REMARK   10  A    between atoms: C_16  and  O_17
REMARK   11  A    between atoms: C_20  and  C_21
REMARK   12  A    between atoms: C_21  and  S_22
REMARK   13  A    between atoms: S_22  and  C_23
REMARK   14  A    between atoms: C_28  and  N_29
REMARK                            x       y       z     vdW  Elec       q    Type
REMARK                         _______ _______ _______ _____ _____    ______ ____
ROOT
ATOM      1  C   UNL     1       2.727   4.529  19.224  0.00  0.00    +0.000 A 
ATOM      2  S   UNL     1       1.840   5.661  20.164  0.00  0.00    +0.000 S 
ATOM      3  C   UNL     1       2.342   6.933  19.130  0.00  0.00    +0.000 A 
ATOM      4  N   UNL     1       3.143   6.557  18.156  0.00  0.00    +0.000 NA
ATOM      5  C   UNL     1       3.434   5.197  18.233  0.00  0.00    +0.000 A 
ENDROOT
BRANCH   3   6
ATOM      6  C   UNL     1       1.848   8.307  19.309  0.00  0.00    +0.000 A 
ATOM      7  C   UNL     1       1.671   9.202  18.246  0.00  0.00    +0.000 A 
ATOM      8  C   UNL     1       1.177  10.482  18.475  0.00  0.00    +0.000 A 
ATOM      9  C   UNL     1       0.845  10.911  19.768  0.00  0.00    +0.000 A 
ATOM     10  C   UNL     1       1.033  10.039  20.853  0.00  0.00    +0.000 A 
ATOM     11  C   UNL     1       1.511   8.742  20.605  0.00  0.00    +0.000 A 
BRANCH   9  12
ATOM     12  O   UNL     1       0.363  12.192  19.775  0.00  0.00    +0.000 OA
ATOM     13  C   UNL     1      -0.791  12.497  19.007  0.00  0.00    +0.000 C 
ENDBRANCH   9  12
BRANCH  10  14
ATOM     14  O   UNL     1       0.672  10.451  22.107  0.00  0.00    +0.000 OA
BRANCH  14  15
ATOM     15  C   UNL     1      -0.679  10.206  22.518  0.00  0.00    +0.000 C 
BRANCH  15  16
ATOM     16  C   UNL     1      -1.255  11.532  23.011  0.00  0.00    +0.000 C 
BRANCH  16  17
ATOM     17  O   UNL     1      -2.327  11.960  22.173  0.00  0.00    +0.000 OA
ATOM     18  H   UNL     1      -3.004  12.335  22.768  0.00  0.00    +0.000 HD
ENDBRANCH  16  17
ENDBRANCH  15  16
ENDBRANCH  14  15
ENDBRANCH  10  14
ENDBRANCH   3   6
BRANCH   1  19
ATOM     19  C   UNL     1       2.670   3.070  19.566  0.00  0.00    +0.000 C 
BRANCH  19  21
ATOM     20  C   UNL     1       1.545   2.483  21.751  0.00  0.00    +0.000 C 
ATOM     21  C   UNL     1       2.859   2.818  21.067  0.00  0.00    +0.000 C 
ENDBRANCH  19  21
ENDBRANCH   1  19
BRANCH   5  22
ATOM     22  C   UNL     1       4.384   4.586  17.239  0.00  0.00    +0.000 C 
BRANCH  22  23
ATOM     23  S   UNL     1       5.159   5.805  16.130  0.00  0.00    +0.000 S 
BRANCH  23  24
ATOM     24  C   UNL     1       6.477   6.370  17.179  0.00  0.00    +0.000 A 
ATOM     25  N   UNL     1       6.941   5.544  18.131  0.00  0.00    +0.000 NA
ATOM     26  C   UNL     1       7.874   6.039  18.947  0.00  0.00    +0.000 A 
ATOM     27  N   UNL     1       8.297   5.216  19.989  0.00  0.00    +0.000 N 
ATOM     28  C   UNL     1       8.339   7.328  18.846  0.00  0.00    +0.000 A 
ATOM     29  C   UNL     1       7.816   8.094  17.833  0.00  0.00    +0.000 A 
ATOM     30  N   UNL     1       6.893   7.632  16.985  0.00  0.00    +0.000 NA
ATOM     31  H   UNL     1       7.913   4.287  19.844  0.00  0.00    +0.000 HD
ATOM     32  H   UNL     1       9.304   5.207  20.103  0.00  0.00    +0.000 HD
BRANCH  29  33
ATOM     33  N   UNL     1       8.275   9.394  17.625  0.00  0.00    +0.000 N 
ATOM     34  H   UNL     1       9.274   9.479  17.770  0.00  0.00    +0.000 HD
ATOM     35  H   UNL     1       7.746  10.013  18.235  0.00  0.00    +0.000 HD
ENDBRANCH  29  33
ENDBRANCH  23  24
ENDBRANCH  22  23
ENDBRANCH   5  22
TORSDOF 12
ENDMDL
MODEL 7
REMARK VINA RESULT:      -7.4      2.152      3.110
REMARK  Name = 
REMARK  14 active torsions:
REMARK  status: ('A' for Active; 'I' for Inactive)
REMARK    1  A    between atoms: C_1  and  C_2
REMARK    2  A    between atoms: C_2  and  C_3
REMARK    3  A    between atoms: C_3  and  C_4
REMARK    4  A    between atoms: C_6  and  C_7
REMARK    5  A    between atoms: C_10  and  O_11
REMARK    6  A    between atoms: O_11  and  C_12
REMARK    7  A    between atoms: C_13  and  O_14
REMARK    8  A    between atoms: O_14  and  C_15
REMARK    9  A    between atoms: C_15  and  C_16
REMARK   10  A    between atoms: C_16  and  O_17
REMARK   11  A    between atoms: C_20  and  C_21
REMARK   12  A    between atoms: C_21  and  S_22
REMARK   13  A    between atoms: S_22  and  C_23
REMARK   14  A    between atoms: C_28  and  N_29
REMARK                            x       y       z     vdW  Elec       q    Type
REMARK                         _______ _______ _______ _____ _____    ______ ____
ROOT
ATOM      1  C   UNL     1       2.323   4.775  20.475  0.00  0.00    +0.000 A 
ATOM      2  S   UNL     1       1.291   6.100  20.834  0.00  0.00    +0.000 S 
ATOM      3  C   UNL     1       2.218   7.115  19.810  0.00  0.00    +0.000 A 
ATOM      4  N   UNL     1       3.251   6.525  19.250  0.00  0.00    +0.000 NA
ATOM      5  C   UNL     1       3.372   5.203  19.672  0.00  0.00    +0.000 A 
ENDROOT
BRANCH   3   6
ATOM      6  C   UNL     1       1.825   8.510  19.553  0.00  0.00    +0.000 A 
ATOM      7  C   UNL     1       1.900   9.107  18.289  0.00  0.00    +0.000 A 
ATOM      8  C   UNL     1       1.491  10.423  18.103  0.00  0.00    +0.000 A 
ATOM      9  C   UNL     1       0.995  11.186  19.170  0.00  0.00    +0.000 A 
ATOM     10  C   UNL     1       0.928  10.617  20.452  0.00  0.00    +0.000 A 
ATOM     11  C   UNL     1       1.324   9.280  20.621  0.00  0.00    +0.000 A 
BRANCH   9  12
ATOM     12  O   UNL     1       0.632  12.446  18.774  0.00  0.00    +0.000 OA
ATOM     13  C   UNL     1      -0.692  12.669  18.317  0.00  0.00    +0.000 C 
ENDBRANCH   9  12
BRANCH  10  14
ATOM     14  O   UNL     1       0.408  11.354  21.481  0.00  0.00    +0.000 OA
BRANCH  14  15
ATOM     15  C   UNL     1      -1.007  11.280  21.696  0.00  0.00    +0.000 C 
BRANCH  15  16
ATOM     16  C   UNL     1      -1.230  10.999  23.180  0.00  0.00    +0.000 C 
BRANCH  16  17
ATOM     17  O   UNL     1      -0.459   9.876  23.604  0.00  0.00    +0.000 OA
ATOM     18  H   UNL     1      -0.997   9.086  23.406  0.00  0.00    +0.000 HD
ENDBRANCH  16  17
ENDBRANCH  15  16
ENDBRANCH  14  15
ENDBRANCH  10  14
ENDBRANCH   3   6
BRANCH   1  19
ATOM     19  C   UNL     1       2.021   3.420  21.043  0.00  0.00    +0.000 C 
BRANCH  19  21
ATOM     20  C   UNL     1       1.027   2.210  19.060  0.00  0.00    +0.000 C 
ATOM     21  C   UNL     1       0.756   2.804  20.432  0.00  0.00    +0.000 C 
ENDBRANCH  19  21
ENDBRANCH   1  19
BRANCH   5  22
ATOM     22  C   UNL     1       4.530   4.373  19.187  0.00  0.00    +0.000 C 
BRANCH  22  23
ATOM     23  S   UNL     1       4.153   3.401  17.693  0.00  0.00    +0.000 S 
BRANCH  23  24
ATOM     24  C   UNL     1       5.380   4.058  16.590  0.00  0.00    +0.000 A 
ATOM     25  N   UNL     1       6.112   5.110  16.992  0.00  0.00    +0.000 NA
ATOM     26  C   UNL     1       6.964   5.620  16.100  0.00  0.00    +0.000 A 
ATOM     27  N   UNL     1       7.663   6.763  16.484  0.00  0.00    +0.000 N 
ATOM     28  C   UNL     1       7.091   5.120  14.827  0.00  0.00    +0.000 A 
ATOM     29  C   UNL     1       6.312   4.034  14.510  0.00  0.00    +0.000 A 
ATOM     30  N   UNL     1       5.459   3.484  15.378  0.00  0.00    +0.000 NA
ATOM     31  H   UNL     1       7.505   6.923  17.474  0.00  0.00    +0.000 HD
ATOM     32  H   UNL     1       8.648   6.722  16.249  0.00  0.00    +0.000 HD
BRANCH  29  33
ATOM     33  N   UNL     1       6.422   3.431  13.258  0.00  0.00    +0.000 N 
ATOM     34  H   UNL     1       5.695   3.729  12.620  0.00  0.00    +0.000 HD
ATOM     35  H   UNL     1       6.418   2.423  13.397  0.00  0.00    +0.000 HD
ENDBRANCH  29  33
ENDBRANCH  23  24
ENDBRANCH  22  23
ENDBRANCH   5  22
TORSDOF 12
ENDMDL
MODEL 8
REMARK VINA RESULT:      -7.3      2.687      4.068
REMARK  Name = 
REMARK  14 active torsions:
REMARK  status: ('A' for Active; 'I' for Inactive)
REMARK    1  A    between atoms: C_1  and  C_2
REMARK    2  A    between atoms: C_2  and  C_3
REMARK    3  A    between atoms: C_3  and  C_4
REMARK    4  A    between atoms: C_6  and  C_7
REMARK    5  A    between atoms: C_10  and  O_11
REMARK    6  A    between atoms: O_11  and  C_12
REMARK    7  A    between atoms: C_13  and  O_14
REMARK    8  A    between atoms: O_14  and  C_15
REMARK    9  A    between atoms: C_15  and  C_16
REMARK   10  A    between atoms: C_16  and  O_17
REMARK   11  A    between atoms: C_20  and  C_21
REMARK   12  A    between atoms: C_21  and  S_22
REMARK   13  A    between atoms: S_22  and  C_23
REMARK   14  A    between atoms: C_28  and  N_29
REMARK                            x       y       z     vdW  Elec       q    Type
REMARK                         _______ _______ _______ _____ _____    ______ ____
ROOT
ATOM      1  C   UNL     1       3.661   4.425  19.039  0.00  0.00    +0.000 A 
ATOM      2  S   UNL     1       2.900   5.197  20.371  0.00  0.00    +0.000 S 
ATOM      3  C   UNL     1       2.609   6.590  19.415  0.00  0.00    +0.000 A 
ATOM      4  N   UNL     1       3.068   6.509  18.185  0.00  0.00    +0.000 NA
ATOM      5  C   UNL     1       3.737   5.307  17.968  0.00  0.00    +0.000 A 
ENDROOT
BRANCH   3   6
ATOM      6  C   UNL     1       1.850   7.735  19.939  0.00  0.00    +0.000 A 
ATOM      7  C   UNL     1       1.680   7.982  21.308  0.00  0.00    +0.000 A 
ATOM      8  C   UNL     1       0.972   9.096  21.743  0.00  0.00    +0.000 A 
ATOM      9  C   UNL     1       0.410  10.000  20.831  0.00  0.00    +0.000 A 
ATOM     10  C   UNL     1       0.548   9.766  19.453  0.00  0.00    +0.000 A 
ATOM     11  C   UNL     1       1.285   8.648  19.027  0.00  0.00    +0.000 A 
BRANCH   9  12
ATOM     12  O   UNL     1      -0.229  11.034  21.462  0.00  0.00    +0.000 OA
ATOM     13  C   UNL     1      -0.773  10.820  22.755  0.00  0.00    +0.000 C 
ENDBRANCH   9  12
BRANCH  10  14
ATOM     14  O   UNL     1       0.029  10.671  18.569  0.00  0.00    +0.000 OA
BRANCH  14  15
ATOM     15  C   UNL     1      -1.399  10.769  18.489  0.00  0.00    +0.000 C 
BRANCH  15  16
ATOM     16  C   UNL     1      -1.804  10.399  17.063  0.00  0.00    +0.000 C 
BRANCH  16  17
ATOM     17  O   UNL     1      -2.114  11.567  16.306  0.00  0.00    +0.000 OA
ATOM     18  H   UNL     1      -1.332  12.148  16.368  0.00  0.00    +0.000 HD
ENDBRANCH  16  17
ENDBRANCH  15  16
ENDBRANCH  14  15
ENDBRANCH  10  14
ENDBRANCH   3   6
BRANCH   1  19
ATOM     19  C   UNL     1       4.146   3.012  19.174  0.00  0.00    +0.000 C 
BRANCH  19  21
ATOM     20  C   UNL     1       2.151   2.246  17.826  0.00  0.00    +0.000 C 
ATOM     21  C   UNL     1       3.005   1.994  19.057  0.00  0.00    +0.000 C 
ENDBRANCH  19  21
ENDBRANCH   1  19
BRANCH   5  22
ATOM     22  C   UNL     1       4.387   5.050  16.635  0.00  0.00    +0.000 C 
BRANCH  22  23
ATOM     23  S   UNL     1       6.173   4.708  16.752  0.00  0.00    +0.000 S 
BRANCH  23  24
ATOM     24  C   UNL     1       6.576   4.628  15.024  0.00  0.00    +0.000 A 
ATOM     25  N   UNL     1       5.910   3.759  14.246  0.00  0.00    +0.000 NA
ATOM     26  C   UNL     1       6.302   3.675  12.974  0.00  0.00    +0.000 A 
ATOM     27  N   UNL     1       5.672   2.715  12.185  0.00  0.00    +0.000 N 
ATOM     28  C   UNL     1       7.340   4.420  12.467  0.00  0.00    +0.000 A 
ATOM     29  C   UNL     1       7.952   5.293  13.333  0.00  0.00    +0.000 A 
ATOM     30  N   UNL     1       7.580   5.418  14.610  0.00  0.00    +0.000 NA
ATOM     31  H   UNL     1       4.885   2.336  12.703  0.00  0.00    +0.000 HD
ATOM     32  H   UNL     1       5.405   3.065  11.272  0.00  0.00    +0.000 HD
BRANCH  29  33
ATOM     33  N   UNL     1       8.976   6.127  12.885  0.00  0.00    +0.000 N 
ATOM     34  H   UNL     1       8.898   7.067  13.255  0.00  0.00    +0.000 HD
ATOM     35  H   UNL     1       8.965   6.115  11.868  0.00  0.00    +0.000 HD
ENDBRANCH  29  33
ENDBRANCH  23  24
ENDBRANCH  22  23
ENDBRANCH   5  22
TORSDOF 12
ENDMDL
MODEL 9
REMARK VINA RESULT:      -7.2      5.102      9.141
REMARK  Name = 
REMARK  14 active torsions:
REMARK  status: ('A' for Active; 'I' for Inactive)
REMARK    1  A    between atoms: C_1  and  C_2
REMARK    2  A    between atoms: C_2  and  C_3
REMARK    3  A    between atoms: C_3  and  C_4
REMARK    4  A    between atoms: C_6  and  C_7
REMARK    5  A    between atoms: C_10  and  O_11
REMARK    6  A    between atoms: O_11  and  C_12
REMARK    7  A    between atoms: C_13  and  O_14
REMARK    8  A    between atoms: O_14  and  C_15
REMARK    9  A    between atoms: C_15  and  C_16
REMARK   10  A    between atoms: C_16  and  O_17
REMARK   11  A    between atoms: C_20  and  C_21
REMARK   12  A    between atoms: C_21  and  S_22
REMARK   13  A    between atoms: S_22  and  C_23
REMARK   14  A    between atoms: C_28  and  N_29
REMARK                            x       y       z     vdW  Elec       q    Type
REMARK                         _______ _______ _______ _____ _____    ______ ____
ROOT
ATOM      1  C   UNL     1       1.183   9.705  19.209  0.00  0.00    +0.000 A 
ATOM      2  S   UNL     1       1.752   8.642  17.986  0.00  0.00    +0.000 S 
ATOM      3  C   UNL     1       2.159   7.474  19.172  0.00  0.00    +0.000 A 
ATOM      4  N   UNL     1       1.916   7.849  20.409  0.00  0.00    +0.000 NA
ATOM      5  C   UNL     1       1.423   9.150  20.459  0.00  0.00    +0.000 A 
ENDROOT
BRANCH   3   6
ATOM      6  C   UNL     1       2.676   6.148  18.798  0.00  0.00    +0.000 A 
ATOM      7  C   UNL     1       1.878   5.145  18.232  0.00  0.00    +0.000 A 
ATOM      8  C   UNL     1       2.429   3.920  17.877  0.00  0.00    +0.000 A 
ATOM      9  C   UNL     1       3.792   3.653  18.073  0.00  0.00    +0.000 A 
ATOM     10  C   UNL     1       4.609   4.634  18.656  0.00  0.00    +0.000 A 
ATOM     11  C   UNL     1       4.044   5.875  18.991  0.00  0.00    +0.000 A 
BRANCH   9  12
ATOM     12  O   UNL     1       4.136   2.400  17.642  0.00  0.00    +0.000 OA
ATOM     13  C   UNL     1       3.716   1.273  18.396  0.00  0.00    +0.000 C 
ENDBRANCH   9  12
BRANCH  10  14
ATOM     14  O   UNL     1       5.945   4.381  18.811  0.00  0.00    +0.000 OA
BRANCH  14  15
ATOM     15  C   UNL     1       6.860   5.201  18.074  0.00  0.00    +0.000 C 
BRANCH  15  16
ATOM     16  C   UNL     1       8.041   5.509  18.993  0.00  0.00    +0.000 C 
BRANCH  16  17
ATOM     17  O   UNL     1       7.637   5.486  20.361  0.00  0.00    +0.000 OA
ATOM     18  H   UNL     1       8.381   5.098  20.858  0.00  0.00    +0.000 HD
ENDBRANCH  16  17
ENDBRANCH  15  16
ENDBRANCH  14  15
ENDBRANCH  10  14
ENDBRANCH   3   6
BRANCH   1  19
ATOM     19  C   UNL     1       0.567  11.018  18.827  0.00  0.00    +0.000 C 
BRANCH  19  21
ATOM     20  C   UNL     1      -1.572  12.260  18.308  0.00  0.00    +0.000 C 
ATOM     21  C   UNL     1      -0.963  10.942  18.757  0.00  0.00    +0.000 C 
ENDBRANCH  19  21
ENDBRANCH   1  19
BRANCH   5  22
ATOM     22  C   UNL     1       1.138   9.784  21.795  0.00  0.00    +0.000 C 
BRANCH  22  23
ATOM     23  S   UNL     1      -0.483   9.323  22.487  0.00  0.00    +0.000 S 
BRANCH  23  24
ATOM     24  C   UNL     1      -1.125  10.939  22.848  0.00  0.00    +0.000 A 
ATOM     25  N   UNL     1      -2.361  11.041  23.364  0.00  0.00    +0.000 NA
ATOM     26  C   UNL     1      -2.832  12.276  23.543  0.00  0.00    +0.000 A 
ATOM     27  N   UNL     1      -4.145  12.387  23.998  0.00  0.00    +0.000 N 
ATOM     28  C   UNL     1      -2.113  13.400  23.211  0.00  0.00    +0.000 A 
ATOM     29  C   UNL     1      -0.854  13.197  22.704  0.00  0.00    +0.000 A 
ATOM     30  N   UNL     1      -0.339  11.978  22.523  0.00  0.00    +0.000 NA
ATOM     31  H   UNL     1      -4.473  11.465  24.269  0.00  0.00    +0.000 HD
ATOM     32  H   UNL     1      -4.251  13.071  24.738  0.00  0.00    +0.000 HD
BRANCH  29  33
ATOM     33  N   UNL     1      -0.036  14.284  22.395  0.00  0.00    +0.000 N 
ATOM     34  H   UNL     1      -0.112  15.030  23.075  0.00  0.00    +0.000 HD
ATOM     35  H   UNL     1      -0.276  14.597  21.457  0.00  0.00    +0.000 HD
ENDBRANCH  29  33
ENDBRANCH  23  24
ENDBRANCH  22  23
ENDBRANCH   5  22
TORSDOF 12
ENDMDL
