MODEL 1
REMARK VINA RESULT:      -8.5      0.000      0.000
REMARK  Name = 
REMARK  8 active torsions:
REMARK  status: ('A' for Active; 'I' for Inactive)
REMARK    1  A    between atoms: C_1  and  C_2
REMARK    2  A    between atoms: C_6  and  C_7
REMARK    3  A    between atoms: C_8  and  N_9
REMARK    4  A    between atoms: C_10  and  C_12
REMARK    5  A    between atoms: N_14  and  C_15
REMARK    6  A    between atoms: C_15  and  C_16
REMARK    7  A    between atoms: C_16  and  C_17
REMARK    8  A    between atoms: C_16  and  N_26
REMARK                            x       y       z     vdW  Elec       q    Type
REMARK                         _______ _______ _______ _____ _____    ______ ____
ROOT
ATOM      1  C   UNL     1       3.393   7.663  17.263  0.00  0.00    +0.000 C 
ENDROOT
BRANCH   1   4
ATOM      2  C   UNL     1       1.984   9.623  17.970  0.00  0.00    +0.000 C 
ATOM      3  O   UNL     1       2.617  10.490  17.386  0.00  0.00    +0.000 OA
ATOM      4  N   UNL     1       2.300   8.282  18.008  0.00  0.00    +0.000 N 
ATOM      5  H   UNL     1       1.682   7.699  18.569  0.00  0.00    +0.000 HD
BRANCH   2   7
ATOM      6  N   UNL     1       0.962  10.653  19.955  0.00  0.00    +0.000 N 
ATOM      7  C   UNL     1       0.700   9.977  18.775  0.00  0.00    +0.000 C 
ATOM      8  O   UNL     1      -0.377   9.585  18.348  0.00  0.00    +0.000 OA
ATOM      9  H   UNL     1       1.931  10.577  20.252  0.00  0.00    +0.000 HD
BRANCH   6  17
ATOM     10  C   UNL     1      -0.908  12.993  19.652  0.00  0.00    +0.000 C 
ATOM     11  C   UNL     1      -0.904  12.042  20.816  0.00  0.00    +0.000 A 
ATOM     12  C   UNL     1      -1.798  12.322  21.874  0.00  0.00    +0.000 A 
ATOM     13  C   UNL     1      -1.799  11.553  23.032  0.00  0.00    +0.000 A 
ATOM     14  C   UNL     1      -0.916  10.490  23.161  0.00  0.00    +0.000 A 
ATOM     15  C   UNL     1      -0.013  10.180  22.126  0.00  0.00    +0.000 A 
ATOM     16  C   UNL     1       0.871   8.970  22.295  0.00  0.00    +0.000 C 
ATOM     17  C   UNL     1      -0.010  10.959  20.939  0.00  0.00    +0.000 A 
ENDBRANCH   6  17
ENDBRANCH   2   7
ENDBRANCH   1   4
BRANCH   1  18
ATOM     18  C   UNL     1       4.235   6.593  18.048  0.00  0.00    +0.000 C 
BRANCH  18  19
ATOM     19  C   UNL     1       3.322   5.493  18.633  0.00  0.00    +0.000 A 
ATOM     20  C   UNL     1       2.427   4.814  17.763  0.00  0.00    +0.000 A 
ATOM     21  C   UNL     1       1.494   3.889  18.237  0.00  0.00    +0.000 A 
ATOM     22  C   UNL     1       1.513   3.600  19.580  0.00  0.00    +0.000 A 
ATOM     23  C   UNL     1       2.395   4.213  20.437  0.00  0.00    +0.000 A 
ATOM     24  C   UNL     1       3.289   5.175  20.005  0.00  0.00    +0.000 A 
ATOM     25  O   UNL     1       2.260   3.770  21.716  0.00  0.00    +0.000 OA
ATOM     26  C   UNL     1       1.197   2.805  21.560  0.00  0.00    +0.000 C 
ATOM     27  O   UNL     1       0.699   2.713  20.210  0.00  0.00    +0.000 OA
ENDBRANCH  18  19
BRANCH  18  28
ATOM     28  N   UNL     1       5.340   5.982  17.233  0.00  0.00    +0.000 NA
ATOM     29  C   UNL     1       6.153   4.991  17.996  0.00  0.00    +0.000 C 
ATOM     30  C   UNL     1       7.022   5.641  19.087  0.00  0.00    +0.000 C 
ATOM     31  O   UNL     1       7.973   6.530  18.487  0.00  0.00    +0.000 OA
ATOM     32  C   UNL     1       7.307   7.543  17.722  0.00  0.00    +0.000 C 
ATOM     33  C   UNL     1       6.326   6.951  16.687  0.00  0.00    +0.000 C 
ENDBRANCH  18  28
ENDBRANCH   1  18
TORSDOF 6
ENDMDL
MODEL 2
REMARK VINA RESULT:      -8.4      0.497      1.537
REMARK  Name = 
REMARK  8 active torsions:
REMARK  status: ('A' for Active; 'I' for Inactive)
REMARK    1  A    between atoms: C_1  and  C_2
REMARK    2  A    between atoms: C_6  and  C_7
REMARK    3  A    between atoms: C_8  and  N_9
REMARK    4  A    between atoms: C_10  and  C_12
REMARK    5  A    between atoms: N_14  and  C_15
REMARK    6  A    between atoms: C_15  and  C_16
REMARK    7  A    between atoms: C_16  and  C_17
REMARK    8  A    between atoms: C_16  and  N_26
REMARK                            x       y       z     vdW  Elec       q    Type
REMARK                         _______ _______ _______ _____ _____    ______ ____
ROOT
ATOM      1  C   UNL     1       3.192   7.574  17.275  0.00  0.00    +0.000 C 
ENDROOT
BRANCH   1   4
ATOM      2  C   UNL     1       1.972   9.641  18.024  0.00  0.00    +0.000 C 
ATOM      3  O   UNL     1       2.589  10.444  17.340  0.00  0.00    +0.000 OA
ATOM      4  N   UNL     1       2.216   8.287  18.094  0.00  0.00    +0.000 N 
ATOM      5  H   UNL     1       1.626   7.765  18.739  0.00  0.00    +0.000 HD
BRANCH   2   7
ATOM      6  N   UNL     1       1.217  10.637  20.141  0.00  0.00    +0.000 N 
ATOM      7  C   UNL     1       0.797  10.104  18.934  0.00  0.00    +0.000 C 
ATOM      8  O   UNL     1      -0.346   9.903  18.549  0.00  0.00    +0.000 OA
ATOM      9  H   UNL     1       2.179  10.401  20.369  0.00  0.00    +0.000 HD
BRANCH   6  17
ATOM     10  C   UNL     1       0.039   8.563  21.979  0.00  0.00    +0.000 C 
ATOM     11  C   UNL     1      -0.203  10.043  22.087  0.00  0.00    +0.000 A 
ATOM     12  C   UNL     1      -1.111  10.472  23.081  0.00  0.00    +0.000 A 
ATOM     13  C   UNL     1      -1.467  11.810  23.194  0.00  0.00    +0.000 A 
ATOM     14  C   UNL     1      -0.929  12.749  22.325  0.00  0.00    +0.000 A 
ATOM     15  C   UNL     1      -0.019  12.358  21.324  0.00  0.00    +0.000 A 
ATOM     16  C   UNL     1       0.587  13.433  20.458  0.00  0.00    +0.000 C 
ATOM     17  C   UNL     1       0.353  10.993  21.206  0.00  0.00    +0.000 A 
ENDBRANCH   6  17
ENDBRANCH   2   7
ENDBRANCH   1   4
BRANCH   1  18
ATOM     18  C   UNL     1       4.084   6.524  18.033  0.00  0.00    +0.000 C 
BRANCH  18  19
ATOM     19  C   UNL     1       3.214   5.413  18.662  0.00  0.00    +0.000 A 
ATOM     20  C   UNL     1       2.307   4.702  17.831  0.00  0.00    +0.000 A 
ATOM     21  C   UNL     1       1.411   3.764  18.348  0.00  0.00    +0.000 A 
ATOM     22  C   UNL     1       1.480   3.495  19.693  0.00  0.00    +0.000 A 
ATOM     23  C   UNL     1       2.374   4.139  20.512  0.00  0.00    +0.000 A 
ATOM     24  C   UNL     1       3.232   5.114  20.038  0.00  0.00    +0.000 A 
ATOM     25  O   UNL     1       2.290   3.711  21.801  0.00  0.00    +0.000 OA
ATOM     26  C   UNL     1       1.245   2.722  21.693  0.00  0.00    +0.000 C 
ATOM     27  O   UNL     1       0.706   2.599  20.361  0.00  0.00    +0.000 OA
ENDBRANCH  18  19
BRANCH  18  28
ATOM     28  N   UNL     1       5.166   5.926  17.179  0.00  0.00    +0.000 NA
ATOM     29  C   UNL     1       6.029   4.958  17.916  0.00  0.00    +0.000 C 
ATOM     30  C   UNL     1       6.929   5.636  18.964  0.00  0.00    +0.000 C 
ATOM     31  O   UNL     1       7.837   6.537  18.317  0.00  0.00    +0.000 OA
ATOM     32  C   UNL     1       7.120   7.530  17.571  0.00  0.00    +0.000 C 
ATOM     33  C   UNL     1       6.109   6.908  16.583  0.00  0.00    +0.000 C 
ENDBRANCH  18  28
ENDBRANCH   1  18
TORSDOF 6
ENDMDL
MODEL 3
REMARK VINA RESULT:      -8.4      1.472      2.068
REMARK  Name = 
REMARK  8 active torsions:
REMARK  status: ('A' for Active; 'I' for Inactive)
REMARK    1  A    between atoms: C_1  and  C_2
REMARK    2  A    between atoms: C_6  and  C_7
REMARK    3  A    between atoms: C_8  and  N_9
REMARK    4  A    between atoms: C_10  and  C_12
REMARK    5  A    between atoms: N_14  and  C_15
REMARK    6  A    between atoms: C_15  and  C_16
REMARK    7  A    between atoms: C_16  and  C_17
REMARK    8  A    between atoms: C_16  and  N_26
REMARK                            x       y       z     vdW  Elec       q    Type
REMARK                         _______ _______ _______ _____ _____    ______ ____
ROOT
ATOM      1  C   UNL     1       3.430   7.519  17.235  0.00  0.00    +0.000 C 
ENDROOT
BRANCH   1   4
ATOM      2  C   UNL     1       2.015   9.472  17.949  0.00  0.00    +0.000 C 
ATOM      3  O   UNL     1       2.700  10.353  17.451  0.00  0.00    +0.000 OA
ATOM      4  N   UNL     1       2.303   8.124  17.939  0.00  0.00    +0.000 N 
ATOM      5  H   UNL     1       1.639   7.527  18.429  0.00  0.00    +0.000 HD
BRANCH   2   7
ATOM      6  N   UNL     1      -0.080  10.757  18.024  0.00  0.00    +0.000 N 
ATOM      7  C   UNL     1       0.688   9.814  18.687  0.00  0.00    +0.000 C 
ATOM      8  O   UNL     1       0.481   9.295  19.775  0.00  0.00    +0.000 OA
ATOM      9  H   UNL     1       0.441  11.275  17.323  0.00  0.00    +0.000 HD
BRANCH   6  17
ATOM     10  C   UNL     1       0.037  12.782  20.249  0.00  0.00    +0.000 C 
ATOM     11  C   UNL     1      -1.225  12.310  19.584  0.00  0.00    +0.000 A 
ATOM     12  C   UNL     1      -2.443  12.804  20.101  0.00  0.00    +0.000 A 
ATOM     13  C   UNL     1      -3.663  12.351  19.611  0.00  0.00    +0.000 A 
ATOM     14  C   UNL     1      -3.697  11.403  18.598  0.00  0.00    +0.000 A 
ATOM     15  C   UNL     1      -2.502  10.890  18.058  0.00  0.00    +0.000 A 
ATOM     16  C   UNL     1      -2.604   9.917  16.911  0.00  0.00    +0.000 C 
ATOM     17  C   UNL     1      -1.254  11.351  18.550  0.00  0.00    +0.000 A 
ENDBRANCH   6  17
ENDBRANCH   2   7
ENDBRANCH   1   4
BRANCH   1  18
ATOM     18  C   UNL     1       4.267   6.473  18.057  0.00  0.00    +0.000 C 
BRANCH  18  19
ATOM     19  C   UNL     1       3.352   5.380  18.653  0.00  0.00    +0.000 A 
ATOM     20  C   UNL     1       2.474   4.676  17.785  0.00  0.00    +0.000 A 
ATOM     21  C   UNL     1       1.541   3.755  18.266  0.00  0.00    +0.000 A 
ATOM     22  C   UNL     1       1.543   3.495  19.615  0.00  0.00    +0.000 A 
ATOM     23  C   UNL     1       2.409   4.132  20.470  0.00  0.00    +0.000 A 
ATOM     24  C   UNL     1       3.302   5.091  20.030  0.00  0.00    +0.000 A 
ATOM     25  O   UNL     1       2.258   3.715  21.757  0.00  0.00    +0.000 OA
ATOM     26  C   UNL     1       1.204   2.741  21.607  0.00  0.00    +0.000 C 
ATOM     27  O   UNL     1       0.726   2.616  20.252  0.00  0.00    +0.000 OA
ENDBRANCH  18  19
BRANCH  18  28
ATOM     28  N   UNL     1       5.389   5.852  17.273  0.00  0.00    +0.000 NA
ATOM     29  C   UNL     1       6.240   4.938  18.089  0.00  0.00    +0.000 C 
ATOM     30  C   UNL     1       7.090   5.684  19.132  0.00  0.00    +0.000 C 
ATOM     31  O   UNL     1       8.007   6.567  18.473  0.00  0.00    +0.000 OA
ATOM     32  C   UNL     1       7.302   7.508  17.652  0.00  0.00    +0.000 C 
ATOM     33  C   UNL     1       6.337   6.819  16.662  0.00  0.00    +0.000 C 
ENDBRANCH  18  28
ENDBRANCH   1  18
TORSDOF 6
ENDMDL
MODEL 4
REMARK VINA RESULT:      -8.3      0.586      1.240
REMARK  Name = 
REMARK  8 active torsions:
REMARK  status: ('A' for Active; 'I' for Inactive)
REMARK    1  A    between atoms: C_1  and  C_2
REMARK    2  A    between atoms: C_6  and  C_7
REMARK    3  A    between atoms: C_8  and  N_9
REMARK    4  A    between atoms: C_10  and  C_12
REMARK    5  A    between atoms: N_14  and  C_15
REMARK    6  A    between atoms: C_15  and  C_16
REMARK    7  A    between atoms: C_16  and  C_17
REMARK    8  A    between atoms: C_16  and  N_26
REMARK                            x       y       z     vdW  Elec       q    Type
REMARK                         _______ _______ _______ _____ _____    ______ ____
ROOT
ATOM      1  C   UNL     1       3.432   7.847  17.324  0.00  0.00    +0.000 C 
ENDROOT
BRANCH   1   4
ATOM      2  C   UNL     1       2.003   9.802  18.005  0.00  0.00    +0.000 C 
ATOM      3  O   UNL     1       2.646  10.672  17.435  0.00  0.00    +0.000 OA
ATOM      4  N   UNL     1       2.322   8.462  18.047  0.00  0.00    +0.000 N 
ATOM      5  H   UNL     1       1.694   7.876  18.594  0.00  0.00    +0.000 HD
BRANCH   2   7
ATOM      6  N   UNL     1       0.939  10.795  19.986  0.00  0.00    +0.000 N 
ATOM      7  C   UNL     1       0.702  10.151  18.783  0.00  0.00    +0.000 C 
ATOM      8  O   UNL     1      -0.367   9.782  18.317  0.00  0.00    +0.000 OA
ATOM      9  H   UNL     1       1.899  10.700  20.308  0.00  0.00    +0.000 HD
BRANCH   6  17
ATOM     10  C   UNL     1      -0.910  13.151  19.680  0.00  0.00    +0.000 C 
ATOM     11  C   UNL     1      -0.941  12.178  20.825  0.00  0.00    +0.000 A 
ATOM     12  C   UNL     1      -1.860  12.444  21.865  0.00  0.00    +0.000 A 
ATOM     13  C   UNL     1      -1.894  11.653  23.008  0.00  0.00    +0.000 A 
ATOM     14  C   UNL     1      -1.021  10.583  23.140  0.00  0.00    +0.000 A 
ATOM     15  C   UNL     1      -0.093  10.287  22.122  0.00  0.00    +0.000 A 
ATOM     16  C   UNL     1       0.779   9.069  22.291  0.00  0.00    +0.000 C 
ATOM     17  C   UNL     1      -0.056  11.088  20.951  0.00  0.00    +0.000 A 
ENDBRANCH   6  17
ENDBRANCH   2   7
ENDBRANCH   1   4
BRANCH   1  18
ATOM     18  C   UNL     1       4.207   6.716  18.095  0.00  0.00    +0.000 C 
BRANCH  18  19
ATOM     19  C   UNL     1       3.226   5.677  18.682  0.00  0.00    +0.000 A 
ATOM     20  C   UNL     1       2.976   5.687  20.080  0.00  0.00    +0.000 A 
ATOM     21  C   UNL     1       2.191   4.710  20.697  0.00  0.00    +0.000 A 
ATOM     22  C   UNL     1       1.602   3.767  19.892  0.00  0.00    +0.000 A 
ATOM     23  C   UNL     1       1.796   3.758  18.532  0.00  0.00    +0.000 A 
ATOM     24  C   UNL     1       2.615   4.677  17.901  0.00  0.00    +0.000 A 
ATOM     25  O   UNL     1       1.109   2.754  17.922  0.00  0.00    +0.000 OA
ATOM     26  C   UNL     1       0.460   2.140  19.055  0.00  0.00    +0.000 C 
ATOM     27  O   UNL     1       0.791   2.761  20.313  0.00  0.00    +0.000 OA
ENDBRANCH  18  19
BRANCH  18  28
ATOM     28  N   UNL     1       5.260   6.037  17.265  0.00  0.00    +0.000 NA
ATOM     29  C   UNL     1       6.051   5.030  18.030  0.00  0.00    +0.000 C 
ATOM     30  C   UNL     1       6.978   5.668  19.079  0.00  0.00    +0.000 C 
ATOM     31  O   UNL     1       7.949   6.499  18.430  0.00  0.00    +0.000 OA
ATOM     32  C   UNL     1       7.306   7.522  17.658  0.00  0.00    +0.000 C 
ATOM     33  C   UNL     1       6.270   6.948  16.667  0.00  0.00    +0.000 C 
ENDBRANCH  18  28
ENDBRANCH   1  18
TORSDOF 6
ENDMDL
MODEL 5
REMARK VINA RESULT:      -8.3      1.484      1.965
REMARK  Name = 
REMARK  8 active torsions:
REMARK  status: ('A' for Active; 'I' for Inactive)
REMARK    1  A    between atoms: C_1  and  C_2
REMARK    2  A    between atoms: C_6  and  C_7
REMARK    3  A    between atoms: C_8  and  N_9
REMARK    4  A    between atoms: C_10  and  C_12
REMARK    5  A    between atoms: N_14  and  C_15
REMARK    6  A    between atoms: C_15  and  C_16
REMARK    7  A    between atoms: C_16  and  C_17
REMARK    8  A    between atoms: C_16  and  N_26
REMARK                            x       y       z     vdW  Elec       q    Type
REMARK                         _______ _______ _______ _____ _____    ______ ____
ROOT
ATOM      1  C   UNL     1       3.408   7.533  17.272  0.00  0.00    +0.000 C 
ENDROOT
BRANCH   1   4
ATOM      2  C   UNL     1       1.954   9.460  17.978  0.00  0.00    +0.000 C 
ATOM      3  O   UNL     1       2.588  10.346  17.424  0.00  0.00    +0.000 OA
ATOM      4  N   UNL     1       2.289   8.123  18.001  0.00  0.00    +0.000 N 
ATOM      5  H   UNL     1       1.666   7.521  18.536  0.00  0.00    +0.000 HD
BRANCH   2   7
ATOM      6  N   UNL     1      -0.125  10.760  18.151  0.00  0.00    +0.000 N 
ATOM      7  C   UNL     1       0.646   9.782  18.757  0.00  0.00    +0.000 C 
ATOM      8  O   UNL     1       0.456   9.218  19.826  0.00  0.00    +0.000 OA
ATOM      9  H   UNL     1       0.387  11.304  17.462  0.00  0.00    +0.000 HD
BRANCH   6  17
ATOM     10  C   UNL     1      -2.894   9.923  17.315  0.00  0.00    +0.000 C 
ATOM     11  C   UNL     1      -2.589  10.960  18.360  0.00  0.00    +0.000 A 
ATOM     12  C   UNL     1      -3.691  11.637  18.929  0.00  0.00    +0.000 A 
ATOM     13  C   UNL     1      -3.502  12.676  19.833  0.00  0.00    +0.000 A 
ATOM     14  C   UNL     1      -2.218  13.060  20.192  0.00  0.00    +0.000 A 
ATOM     15  C   UNL     1      -1.096  12.406  19.646  0.00  0.00    +0.000 A 
ATOM     16  C   UNL     1       0.271  12.820  20.130  0.00  0.00    +0.000 C 
ATOM     17  C   UNL     1      -1.282  11.342  18.726  0.00  0.00    +0.000 A 
ENDBRANCH   6  17
ENDBRANCH   2   7
ENDBRANCH   1   4
BRANCH   1  18
ATOM     18  C   UNL     1       4.257   6.474  18.065  0.00  0.00    +0.000 C 
BRANCH  18  19
ATOM     19  C   UNL     1       3.350   5.373  18.658  0.00  0.00    +0.000 A 
ATOM     20  C   UNL     1       2.481   4.660  17.788  0.00  0.00    +0.000 A 
ATOM     21  C   UNL     1       1.555   3.732  18.268  0.00  0.00    +0.000 A 
ATOM     22  C   UNL     1       1.555   3.473  19.617  0.00  0.00    +0.000 A 
ATOM     23  C   UNL     1       2.412   4.119  20.474  0.00  0.00    +0.000 A 
ATOM     24  C   UNL     1       3.298   5.086  20.036  0.00  0.00    +0.000 A 
ATOM     25  O   UNL     1       2.261   3.703  21.761  0.00  0.00    +0.000 OA
ATOM     26  C   UNL     1       1.216   2.718  21.609  0.00  0.00    +0.000 C 
ATOM     27  O   UNL     1       0.744   2.588  20.253  0.00  0.00    +0.000 OA
ENDBRANCH  18  19
BRANCH  18  28
ATOM     28  N   UNL     1       5.365   5.863  17.253  0.00  0.00    +0.000 NA
ATOM     29  C   UNL     1       6.223   4.930  18.040  0.00  0.00    +0.000 C 
ATOM     30  C   UNL     1       7.091   5.651  19.085  0.00  0.00    +0.000 C 
ATOM     31  O   UNL     1       8.003   6.542  18.430  0.00  0.00    +0.000 OA
ATOM     32  C   UNL     1       7.291   7.502  17.638  0.00  0.00    +0.000 C 
ATOM     33  C   UNL     1       6.309   6.838  16.648  0.00  0.00    +0.000 C 
ENDBRANCH  18  28
ENDBRANCH   1  18
TORSDOF 6
ENDMDL
MODEL 6
REMARK VINA RESULT:      -8.2      2.298      5.186
REMARK  Name = 
REMARK  8 active torsions:
REMARK  status: ('A' for Active; 'I' for Inactive)
REMARK    1  A    between atoms: C_1  and  C_2
REMARK    2  A    between atoms: C_6  and  C_7
REMARK    3  A    between atoms: C_8  and  N_9
REMARK    4  A    between atoms: C_10  and  C_12
REMARK    5  A    between atoms: N_14  and  C_15
REMARK    6  A    between atoms: C_15  and  C_16
REMARK    7  A    between atoms: C_16  and  C_17
REMARK    8  A    between atoms: C_16  and  N_26
REMARK                            x       y       z     vdW  Elec       q    Type
REMARK                         _______ _______ _______ _____ _____    ______ ____
ROOT
ATOM      1  C   UNL     1       3.444   5.665  19.540  0.00  0.00    +0.000 C 
ENDROOT
BRANCH   1   4
ATOM      2  C   UNL     1       1.989   7.704  19.776  0.00  0.00    +0.000 C 
ATOM      3  O   UNL     1       1.471   7.404  20.842  0.00  0.00    +0.000 OA
ATOM      4  N   UNL     1       2.886   6.931  19.071  0.00  0.00    +0.000 N 
ATOM      5  H   UNL     1       3.198   7.317  18.182  0.00  0.00    +0.000 HD
BRANCH   2   7
ATOM      6  N   UNL     1       0.756   9.830  19.791  0.00  0.00    +0.000 N 
ATOM      7  C   UNL     1       1.657   9.055  19.079  0.00  0.00    +0.000 C 
ATOM      8  O   UNL     1       2.145   9.274  17.980  0.00  0.00    +0.000 OA
ATOM      9  H   UNL     1       0.248   9.306  20.498  0.00  0.00    +0.000 HD
BRANCH   6  17
ATOM     10  C   UNL     1      -1.573   9.803  17.883  0.00  0.00    +0.000 C 
ATOM     11  C   UNL     1      -0.923  11.044  18.426  0.00  0.00    +0.000 A 
ATOM     12  C   UNL     1      -1.400  12.282  17.939  0.00  0.00    +0.000 A 
ATOM     13  C   UNL     1      -0.798  13.477  18.313  0.00  0.00    +0.000 A 
ATOM     14  C   UNL     1       0.287  13.469  19.179  0.00  0.00    +0.000 A 
ATOM     15  C   UNL     1       0.788  12.254  19.685  0.00  0.00    +0.000 A 
ATOM     16  C   UNL     1       1.922  12.314  20.678  0.00  0.00    +0.000 C 
ATOM     17  C   UNL     1       0.175  11.030  19.311  0.00  0.00    +0.000 A 
ENDBRANCH   6  17
ENDBRANCH   2   7
ENDBRANCH   1   4
BRANCH   1  18
ATOM     18  C   UNL     1       3.475   4.500  18.486  0.00  0.00    +0.000 C 
BRANCH  18  19
ATOM     19  C   UNL     1       4.668   4.662  17.518  0.00  0.00    +0.000 A 
ATOM     20  C   UNL     1       5.864   5.258  18.003  0.00  0.00    +0.000 A 
ATOM     21  C   UNL     1       6.942   5.540  17.161  0.00  0.00    +0.000 A 
ATOM     22  C   UNL     1       6.839   5.155  15.847  0.00  0.00    +0.000 A 
ATOM     23  C   UNL     1       5.710   4.541  15.362  0.00  0.00    +0.000 A 
ATOM     24  C   UNL     1       4.605   4.304  16.158  0.00  0.00    +0.000 A 
ATOM     25  O   UNL     1       5.823   4.227  14.043  0.00  0.00    +0.000 OA
ATOM     26  C   UNL     1       7.153   4.709  13.760  0.00  0.00    +0.000 C 
ATOM     27  O   UNL     1       7.794   5.325  14.895  0.00  0.00    +0.000 OA
ENDBRANCH  18  19
BRANCH  18  28
ATOM     28  N   UNL     1       3.481   3.130  19.104  0.00  0.00    +0.000 NA
ATOM     29  C   UNL     1       2.587   2.164  18.401  0.00  0.00    +0.000 C 
ATOM     30  C   UNL     1       1.094   2.482  18.591  0.00  0.00    +0.000 C 
ATOM     31  O   UNL     1       0.746   2.379  19.978  0.00  0.00    +0.000 OA
ATOM     32  C   UNL     1       1.542   3.274  20.767  0.00  0.00    +0.000 C 
ATOM     33  C   UNL     1       3.055   3.083  20.527  0.00  0.00    +0.000 C 
ENDBRANCH  18  28
ENDBRANCH   1  18
TORSDOF 6
ENDMDL
MODEL 7
REMARK VINA RESULT:      -8.2      1.605      2.518
REMARK  Name = 
REMARK  8 active torsions:
REMARK  status: ('A' for Active; 'I' for Inactive)
REMARK    1  A    between atoms: C_1  and  C_2
REMARK    2  A    between atoms: C_6  and  C_7
REMARK    3  A    between atoms: C_8  and  N_9
REMARK    4  A    between atoms: C_10  and  C_12
REMARK    5  A    between atoms: N_14  and  C_15
REMARK    6  A    between atoms: C_15  and  C_16
REMARK    7  A    between atoms: C_16  and  C_17
REMARK    8  A    between atoms: C_16  and  N_26
REMARK                            x       y       z     vdW  Elec       q    Type
REMARK                         _______ _______ _______ _____ _____    ______ ____
ROOT
ATOM      1  C   UNL     1       3.550   7.817  17.366  0.00  0.00    +0.000 C 
ENDROOT
BRANCH   1   4
ATOM      2  C   UNL     1       1.948   9.655  17.981  0.00  0.00    +0.000 C 
ATOM      3  O   UNL     1       2.598  10.587  17.529  0.00  0.00    +0.000 OA
ATOM      4  N   UNL     1       2.336   8.333  17.991  0.00  0.00    +0.000 N 
ATOM      5  H   UNL     1       1.687   7.686  18.436  0.00  0.00    +0.000 HD
BRANCH   2   7
ATOM      6  N   UNL     1      -0.218  10.817  17.939  0.00  0.00    +0.000 N 
ATOM      7  C   UNL     1       0.553   9.894  18.627  0.00  0.00    +0.000 C 
ATOM      8  O   UNL     1       0.296   9.323  19.678  0.00  0.00    +0.000 OA
ATOM      9  H   UNL     1       0.322  11.390  17.298  0.00  0.00    +0.000 HD
BRANCH   6  17
ATOM     10  C   UNL     1      -0.387  12.743  20.248  0.00  0.00    +0.000 C 
ATOM     11  C   UNL     1      -1.565  12.235  19.465  0.00  0.00    +0.000 A 
ATOM     12  C   UNL     1      -2.846  12.640  19.903  0.00  0.00    +0.000 A 
ATOM     13  C   UNL     1      -3.997  12.147  19.300  0.00  0.00    +0.000 A 
ATOM     14  C   UNL     1      -3.900  11.245  18.250  0.00  0.00    +0.000 A 
ATOM     15  C   UNL     1      -2.640  10.821  17.786  0.00  0.00    +0.000 A 
ATOM     16  C   UNL     1      -2.597   9.896  16.595  0.00  0.00    +0.000 C 
ATOM     17  C   UNL     1      -1.461  11.324  18.394  0.00  0.00    +0.000 A 
ENDBRANCH   6  17
ENDBRANCH   2   7
ENDBRANCH   1   4
BRANCH   1  18
ATOM     18  C   UNL     1       4.291   6.674  18.151  0.00  0.00    +0.000 C 
BRANCH  18  19
ATOM     19  C   UNL     1       3.283   5.646  18.711  0.00  0.00    +0.000 A 
ATOM     20  C   UNL     1       3.000   5.654  20.104  0.00  0.00    +0.000 A 
ATOM     21  C   UNL     1       2.188   4.686  20.698  0.00  0.00    +0.000 A 
ATOM     22  C   UNL     1       1.606   3.753  19.875  0.00  0.00    +0.000 A 
ATOM     23  C   UNL     1       1.831   3.747  18.520  0.00  0.00    +0.000 A 
ATOM     24  C   UNL     1       2.677   4.657  17.913  0.00  0.00    +0.000 A 
ATOM     25  O   UNL     1       1.145   2.755  17.891  0.00  0.00    +0.000 OA
ATOM     26  C   UNL     1       0.461   2.145  19.006  0.00  0.00    +0.000 C 
ATOM     27  O   UNL     1       0.771   2.758  20.274  0.00  0.00    +0.000 OA
ENDBRANCH  18  19
BRANCH  18  28
ATOM     28  N   UNL     1       5.355   5.983  17.346  0.00  0.00    +0.000 NA
ATOM     29  C   UNL     1       6.153   5.006  18.142  0.00  0.00    +0.000 C 
ATOM     30  C   UNL     1       7.069   5.684  19.176  0.00  0.00    +0.000 C 
ATOM     31  O   UNL     1       8.034   6.506  18.508  0.00  0.00    +0.000 OA
ATOM     32  C   UNL     1       7.383   7.500  17.705  0.00  0.00    +0.000 C 
ATOM     33  C   UNL     1       6.358   6.887  16.726  0.00  0.00    +0.000 C 
ENDBRANCH  18  28
ENDBRANCH   1  18
TORSDOF 6
ENDMDL
MODEL 8
REMARK VINA RESULT:      -8.1      0.615      1.999
REMARK  Name = 
REMARK  8 active torsions:
REMARK  status: ('A' for Active; 'I' for Inactive)
REMARK    1  A    between atoms: C_1  and  C_2
REMARK    2  A    between atoms: C_6  and  C_7
REMARK    3  A    between atoms: C_8  and  N_9
REMARK    4  A    between atoms: C_10  and  C_12
REMARK    5  A    between atoms: N_14  and  C_15
REMARK    6  A    between atoms: C_15  and  C_16
REMARK    7  A    between atoms: C_16  and  C_17
REMARK    8  A    between atoms: C_16  and  N_26
REMARK                            x       y       z     vdW  Elec       q    Type
REMARK                         _______ _______ _______ _____ _____    ______ ____
ROOT
ATOM      1  C   UNL     1       3.311   7.850  17.335  0.00  0.00    +0.000 C 
ENDROOT
BRANCH   1   4
ATOM      2  C   UNL     1       1.958   9.833  18.083  0.00  0.00    +0.000 C 
ATOM      3  O   UNL     1       2.597  10.692  17.492  0.00  0.00    +0.000 OA
ATOM      4  N   UNL     1       2.246   8.486  18.105  0.00  0.00    +0.000 N 
ATOM      5  H   UNL     1       1.627   7.912  18.674  0.00  0.00    +0.000 HD
BRANCH   2   7
ATOM      6  N   UNL     1       0.994  10.913  20.070  0.00  0.00    +0.000 N 
ATOM      7  C   UNL     1       0.697  10.209  18.915  0.00  0.00    +0.000 C 
ATOM      8  O   UNL     1      -0.392   9.808  18.529  0.00  0.00    +0.000 OA
ATOM      9  H   UNL     1       1.971  10.843  20.341  0.00  0.00    +0.000 HD
BRANCH   6  17
ATOM     10  C   UNL     1       0.518   9.119  22.441  0.00  0.00    +0.000 C 
ATOM     11  C   UNL     1      -0.183  10.427  22.199  0.00  0.00    +0.000 A 
ATOM     12  C   UNL     1      -1.190  10.792  23.120  0.00  0.00    +0.000 A 
ATOM     13  C   UNL     1      -1.955  11.936  22.926  0.00  0.00    +0.000 A 
ATOM     14  C   UNL     1      -1.734  12.740  21.817  0.00  0.00    +0.000 A 
ATOM     15  C   UNL     1      -0.737  12.408  20.879  0.00  0.00    +0.000 A 
ATOM     16  C   UNL     1      -0.496  13.359  19.734  0.00  0.00    +0.000 C 
ATOM     17  C   UNL     1       0.051  11.244  21.074  0.00  0.00    +0.000 A 
ENDBRANCH   6  17
ENDBRANCH   2   7
ENDBRANCH   1   4
BRANCH   1  18
ATOM     18  C   UNL     1       4.123   6.733  18.085  0.00  0.00    +0.000 C 
BRANCH  18  19
ATOM     19  C   UNL     1       3.175   5.683  18.706  0.00  0.00    +0.000 A 
ATOM     20  C   UNL     1       2.992   5.676  20.115  0.00  0.00    +0.000 A 
ATOM     21  C   UNL     1       2.240   4.689  20.757  0.00  0.00    +0.000 A 
ATOM     22  C   UNL     1       1.617   3.753  19.969  0.00  0.00    +0.000 A 
ATOM     23  C   UNL     1       1.745   3.761  18.601  0.00  0.00    +0.000 A 
ATOM     24  C   UNL     1       2.530   4.690  17.944  0.00  0.00    +0.000 A 
ATOM     25  O   UNL     1       1.033   2.762  18.013  0.00  0.00    +0.000 OA
ATOM     26  C   UNL     1       0.440   2.132  19.168  0.00  0.00    +0.000 C 
ATOM     27  O   UNL     1       0.829   2.739  20.417  0.00  0.00    +0.000 OA
ENDBRANCH  18  19
BRANCH  18  28
ATOM     28  N   UNL     1       5.159   6.064  17.226  0.00  0.00    +0.000 NA
ATOM     29  C   UNL     1       5.955   5.037  17.959  0.00  0.00    +0.000 C 
ATOM     30  C   UNL     1       6.902   5.647  19.006  0.00  0.00    +0.000 C 
ATOM     31  O   UNL     1       7.869   6.485  18.360  0.00  0.00    +0.000 OA
ATOM     32  C   UNL     1       7.221   7.527  17.618  0.00  0.00    +0.000 C 
ATOM     33  C   UNL     1       6.167   6.980  16.631  0.00  0.00    +0.000 C 
ENDBRANCH  18  28
ENDBRANCH   1  18
TORSDOF 6
ENDMDL
MODEL 9
REMARK VINA RESULT:      -8.1      2.182      4.839
REMARK  Name = 
REMARK  8 active torsions:
REMARK  status: ('A' for Active; 'I' for Inactive)
REMARK    1  A    between atoms: C_1  and  C_2
REMARK    2  A    between atoms: C_6  and  C_7
REMARK    3  A    between atoms: C_8  and  N_9
REMARK    4  A    between atoms: C_10  and  C_12
REMARK    5  A    between atoms: N_14  and  C_15
REMARK    6  A    between atoms: C_15  and  C_16
REMARK    7  A    between atoms: C_16  and  C_17
REMARK    8  A    between atoms: C_16  and  N_26
REMARK                            x       y       z     vdW  Elec       q    Type
REMARK                         _______ _______ _______ _____ _____    ______ ____
ROOT
ATOM      1  C   UNL     1       3.588   5.466  19.782  0.00  0.00    +0.000 C 
ENDROOT
BRANCH   1   4
ATOM      2  C   UNL     1       2.868   7.538  18.553  0.00  0.00    +0.000 C 
ATOM      3  O   UNL     1       3.701   7.489  17.660  0.00  0.00    +0.000 OA
ATOM      4  N   UNL     1       2.770   6.663  19.613  0.00  0.00    +0.000 N 
ATOM      5  H   UNL     1       2.034   6.867  20.287  0.00  0.00    +0.000 HD
BRANCH   2   7
ATOM      6  N   UNL     1       1.773   9.376  19.764  0.00  0.00    +0.000 N 
ATOM      7  C   UNL     1       1.790   8.661  18.578  0.00  0.00    +0.000 C 
ATOM      8  O   UNL     1       1.040   8.765  17.618  0.00  0.00    +0.000 OA
ATOM      9  H   UNL     1       2.256   8.904  20.523  0.00  0.00    +0.000 HD
BRANCH   6  17
ATOM     10  C   UNL     1       1.840  12.153  18.602  0.00  0.00    +0.000 C 
ATOM     11  C   UNL     1       0.801  11.650  19.565  0.00  0.00    +0.000 A 
ATOM     12  C   UNL     1      -0.166  12.581  20.006  0.00  0.00    +0.000 A 
ATOM     13  C   UNL     1      -1.108  12.232  20.967  0.00  0.00    +0.000 A 
ATOM     14  C   UNL     1      -1.111  10.953  21.505  0.00  0.00    +0.000 A 
ATOM     15  C   UNL     1      -0.164   9.999  21.087  0.00  0.00    +0.000 A 
ATOM     16  C   UNL     1      -0.263   8.606  21.655  0.00  0.00    +0.000 C 
ATOM     17  C   UNL     1       0.798  10.347  20.103  0.00  0.00    +0.000 A 
ENDBRANCH   6  17
ENDBRANCH   2   7
ENDBRANCH   1   4
BRANCH   1  18
ATOM     18  C   UNL     1       3.466   4.388  18.644  0.00  0.00    +0.000 C 
BRANCH  18  19
ATOM     19  C   UNL     1       4.640   4.505  17.646  0.00  0.00    +0.000 A 
ATOM     20  C   UNL     1       5.917   4.891  18.135  0.00  0.00    +0.000 A 
ATOM     21  C   UNL     1       6.995   5.125  17.279  0.00  0.00    +0.000 A 
ATOM     22  C   UNL     1       6.801   4.902  15.937  0.00  0.00    +0.000 A 
ATOM     23  C   UNL     1       5.587   4.491  15.443  0.00  0.00    +0.000 A 
ATOM     24  C   UNL     1       4.487   4.308  16.260  0.00  0.00    +0.000 A 
ATOM     25  O   UNL     1       5.616   4.311  14.094  0.00  0.00    +0.000 OA
ATOM     26  C   UNL     1       6.988   4.651  13.803  0.00  0.00    +0.000 C 
ATOM     27  O   UNL     1       7.739   5.055  14.966  0.00  0.00    +0.000 OA
ENDBRANCH  18  19
BRANCH  18  28
ATOM     28  N   UNL     1       3.351   2.981  19.159  0.00  0.00    +0.000 NA
ATOM     29  C   UNL     1       2.057   2.329  18.803  0.00  0.00    +0.000 C 
ATOM     30  C   UNL     1       0.856   2.934  19.551  0.00  0.00    +0.000 C 
ATOM     31  O   UNL     1       1.007   2.730  20.961  0.00  0.00    +0.000 OA
ATOM     32  C   UNL     1       2.226   3.322  21.431  0.00  0.00    +0.000 C 
ATOM     33  C   UNL     1       3.459   2.843  20.635  0.00  0.00    +0.000 C 
ENDBRANCH  18  28
ENDBRANCH   1  18
TORSDOF 6
ENDMDL
