MODEL 1
REMARK VINA RESULT:      -9.0      0.000      0.000
REMARK  Name = 
REMARK  7 active torsions:
REMARK  status: ('A' for Active; 'I' for Inactive)
REMARK    1  A    between atoms: C_1  and  O_2
REMARK    2  A    between atoms: O_2  and  C_3
REMARK    3  A    between atoms: C_9  and  C_10
REMARK    4  A    between atoms: C_10  and  C_11
REMARK    5  A    between atoms: C_11  and  O_13
REMARK    6  A    between atoms: C_17  and  N_18
REMARK    7  A    between atoms: N_18  and  C_19
REMARK                            x       y       z     vdW  Elec       q    Type
REMARK                         _______ _______ _______ _____ _____    ______ ____
ROOT
ATOM      1  C   UNL     1      -1.549  11.434  22.884  0.00  0.00    +0.000 A 
ATOM      2  C   UNL     1      -0.876  10.341  23.416  0.00  0.00    +0.000 A 
ATOM      3  C   UNL     1      -0.054   9.545  22.615  0.00  0.00    +0.000 A 
ATOM      4  C   UNL     1       0.079   9.877  21.259  0.00  0.00    +0.000 A 
ATOM      5  C   UNL     1      -0.569  10.973  20.688  0.00  0.00    +0.000 A 
ATOM      6  C   UNL     1      -1.415  11.747  21.521  0.00  0.00    +0.000 A 
ATOM      7  C   UNL     1      -0.191  11.026  19.298  0.00  0.00    +0.000 A 
ATOM      8  C   UNL     1       0.656   9.946  19.075  0.00  0.00    +0.000 A 
ATOM      9  N   UNL     1       0.784   9.254  20.253  0.00  0.00    +0.000 N 
ATOM     10  C   UNL     1       1.592   8.049  20.428  0.00  0.00    +0.000 C 
ATOM     11  C   UNL     1       2.018   7.401  19.101  0.00  0.00    +0.000 C 
ATOM     12  C   UNL     1       2.461   8.490  18.106  0.00  0.00    +0.000 C 
ATOM     13  C   UNL     1       1.315   9.463  17.818  0.00  0.00    +0.000 C 
ENDROOT
BRANCH  11  14
ATOM     14  N   UNL     1       3.076   6.387  19.295  0.00  0.00    +0.000 N 
ATOM     15  C   UNL     1       2.910   5.330  20.286  0.00  0.00    +0.000 C 
ATOM     16  C   UNL     1       3.938   6.129  18.275  0.00  0.00    +0.000 A 
ATOM     17  N   UNL     1       4.042   6.698  17.090  0.00  0.00    +0.000 NA
ATOM     18  C   UNL     1       5.027   5.975  16.453  0.00  0.00    +0.000 A 
ATOM     19  C   UNL     1       5.568   6.067  15.165  0.00  0.00    +0.000 A 
ATOM     20  C   UNL     1       6.551   5.135  14.810  0.00  0.00    +0.000 A 
ATOM     21  F   UNL     1       7.075   5.183  13.577  0.00  0.00    +0.000 F 
ATOM     22  C   UNL     1       6.999   4.148  15.690  0.00  0.00    +0.000 A 
ATOM     23  C   UNL     1       6.480   4.054  16.984  0.00  0.00    +0.000 A 
ATOM     24  C   UNL     1       5.499   4.989  17.303  0.00  0.00    +0.000 A 
ATOM     25  O   UNL     1       4.819   5.094  18.473  0.00  0.00    +0.000 OA
ENDBRANCH  11  14
BRANCH   1  27
ATOM     26  C   UNL     1      -3.612  12.603  22.941  0.00  0.00    +0.000 C 
ATOM     27  O   UNL     1      -2.394  12.251  23.591  0.00  0.00    +0.000 OA
ENDBRANCH   1  27
BRANCH   7  28
ATOM     28  C   UNL     1      -0.679  12.019  18.273  0.00  0.00    +0.000 C 
BRANCH  28  29
ATOM     29  C   UNL     1      -2.043  11.726  17.668  0.00  0.00    +0.000 C 
ATOM     30  O   UNL     1      -3.066  11.657  18.333  0.00  0.00    +0.000 OA
BRANCH  29  31
ATOM     31  O   UNL     1      -2.068  11.626  16.322  0.00  0.00    +0.000 OA
ATOM     32  H   UNL     1      -1.620  12.372  15.871  0.00  0.00    +0.000 HD
ENDBRANCH  29  31
ENDBRANCH  28  29
ENDBRANCH   7  28
TORSDOF 5
ENDMDL
MODEL 2
REMARK VINA RESULT:      -8.8      3.645      9.753
REMARK  Name = 
REMARK  7 active torsions:
REMARK  status: ('A' for Active; 'I' for Inactive)
REMARK    1  A    between atoms: C_1  and  O_2
REMARK    2  A    between atoms: O_2  and  C_3
REMARK    3  A    between atoms: C_9  and  C_10
REMARK    4  A    between atoms: C_10  and  C_11
REMARK    5  A    between atoms: C_11  and  O_13
REMARK    6  A    between atoms: C_17  and  N_18
REMARK    7  A    between atoms: N_18  and  C_19
REMARK                            x       y       z     vdW  Elec       q    Type
REMARK                         _______ _______ _______ _____ _____    ______ ____
ROOT
ATOM      1  C   UNL     1       5.253   4.583  16.037  0.00  0.00    +0.000 A 
ATOM      2  C   UNL     1       5.259   5.940  15.735  0.00  0.00    +0.000 A 
ATOM      3  C   UNL     1       4.517   6.848  16.494  0.00  0.00    +0.000 A 
ATOM      4  C   UNL     1       3.767   6.357  17.573  0.00  0.00    +0.000 A 
ATOM      5  C   UNL     1       3.744   5.005  17.918  0.00  0.00    +0.000 A 
ATOM      6  C   UNL     1       4.487   4.107  17.113  0.00  0.00    +0.000 A 
ATOM      7  C   UNL     1       2.897   4.866  19.076  0.00  0.00    +0.000 A 
ATOM      8  C   UNL     1       2.423   6.139  19.377  0.00  0.00    +0.000 A 
ATOM      9  N   UNL     1       2.932   7.014  18.450  0.00  0.00    +0.000 N 
ATOM     10  C   UNL     1       2.662   8.449  18.423  0.00  0.00    +0.000 C 
ATOM     11  C   UNL     1       1.476   8.865  19.308  0.00  0.00    +0.000 C 
ATOM     12  C   UNL     1       1.539   8.116  20.653  0.00  0.00    +0.000 C 
ATOM     13  C   UNL     1       1.468   6.602  20.436  0.00  0.00    +0.000 C 
ENDROOT
BRANCH  11  14
ATOM     14  N   UNL     1       1.421  10.328  19.510  0.00  0.00    +0.000 N 
ATOM     15  C   UNL     1       1.792  11.235  18.429  0.00  0.00    +0.000 C 
ATOM     16  C   UNL     1       0.595  10.832  20.465  0.00  0.00    +0.000 A 
ATOM     17  N   UNL     1      -0.172  10.208  21.337  0.00  0.00    +0.000 NA
ATOM     18  C   UNL     1      -0.841  11.222  21.987  0.00  0.00    +0.000 A 
ATOM     19  C   UNL     1      -1.816  11.205  22.991  0.00  0.00    +0.000 A 
ATOM     20  C   UNL     1      -2.330  12.437  23.413  0.00  0.00    +0.000 A 
ATOM     21  F   UNL     1      -3.280  12.453  24.359  0.00  0.00    +0.000 F 
ATOM     22  C   UNL     1      -1.899  13.651  22.876  0.00  0.00    +0.000 A 
ATOM     23  C   UNL     1      -0.915  13.686  21.885  0.00  0.00    +0.000 A 
ATOM     24  C   UNL     1      -0.430  12.444  21.481  0.00  0.00    +0.000 A 
ATOM     25  O   UNL     1       0.498  12.202  20.521  0.00  0.00    +0.000 OA
ENDBRANCH  11  14
BRANCH   1  27
ATOM     26  C   UNL     1       6.313   3.977  14.004  0.00  0.00    +0.000 C 
ATOM     27  O   UNL     1       5.930   3.623  15.330  0.00  0.00    +0.000 OA
ENDBRANCH   1  27
BRANCH   7  28
ATOM     28  C   UNL     1       2.542   3.580  19.779  0.00  0.00    +0.000 C 
BRANCH  28  29
ATOM     29  C   UNL     1       1.696   2.603  18.977  0.00  0.00    +0.000 C 
ATOM     30  O   UNL     1       0.764   2.954  18.268  0.00  0.00    +0.000 OA
BRANCH  29  31
ATOM     31  O   UNL     1       2.095   1.314  19.033  0.00  0.00    +0.000 OA
ATOM     32  H   UNL     1       3.012   1.179  18.718  0.00  0.00    +0.000 HD
ENDBRANCH  29  31
ENDBRANCH  28  29
ENDBRANCH   7  28
TORSDOF 5
ENDMDL
MODEL 3
REMARK VINA RESULT:      -8.6      3.564      9.885
REMARK  Name = 
REMARK  7 active torsions:
REMARK  status: ('A' for Active; 'I' for Inactive)
REMARK    1  A    between atoms: C_1  and  O_2
REMARK    2  A    between atoms: O_2  and  C_3
REMARK    3  A    between atoms: C_9  and  C_10
REMARK    4  A    between atoms: C_10  and  C_11
REMARK    5  A    between atoms: C_11  and  O_13
REMARK    6  A    between atoms: C_17  and  N_18
REMARK    7  A    between atoms: N_18  and  C_19
REMARK                            x       y       z     vdW  Elec       q    Type
REMARK                         _______ _______ _______ _____ _____    ______ ____
ROOT
ATOM      1  C   UNL     1       5.584   4.465  15.497  0.00  0.00    +0.000 A 
ATOM      2  C   UNL     1       5.584   5.836  15.262  0.00  0.00    +0.000 A 
ATOM      3  C   UNL     1       4.834   6.701  16.062  0.00  0.00    +0.000 A 
ATOM      4  C   UNL     1       4.082   6.154  17.113  0.00  0.00    +0.000 A 
ATOM      5  C   UNL     1       4.066   4.786  17.390  0.00  0.00    +0.000 A 
ATOM      6  C   UNL     1       4.817   3.932  16.546  0.00  0.00    +0.000 A 
ATOM      7  C   UNL     1       3.216   4.586  18.537  0.00  0.00    +0.000 A 
ATOM      8  C   UNL     1       2.733   5.839  18.898  0.00  0.00    +0.000 A 
ATOM      9  N   UNL     1       3.241   6.762  18.018  0.00  0.00    +0.000 N 
ATOM     10  C   UNL     1       2.963   8.196  18.061  0.00  0.00    +0.000 C 
ATOM     11  C   UNL     1       1.771   8.560  18.960  0.00  0.00    +0.000 C 
ATOM     12  C   UNL     1       1.834   7.746  20.267  0.00  0.00    +0.000 C 
ATOM     13  C   UNL     1       1.772   6.245  19.975  0.00  0.00    +0.000 C 
ENDROOT
BRANCH  11  14
ATOM     14  N   UNL     1       1.708  10.011  19.234  0.00  0.00    +0.000 N 
ATOM     15  C   UNL     1       2.074  10.972  18.200  0.00  0.00    +0.000 C 
ATOM     16  C   UNL     1       0.879  10.463  20.212  0.00  0.00    +0.000 A 
ATOM     17  N   UNL     1       0.116   9.792  21.053  0.00  0.00    +0.000 NA
ATOM     18  C   UNL     1      -0.560  10.769  21.751  0.00  0.00    +0.000 A 
ATOM     19  C   UNL     1      -1.535  10.697  22.753  0.00  0.00    +0.000 A 
ATOM     20  C   UNL     1      -2.056  11.903  23.235  0.00  0.00    +0.000 A 
ATOM     21  F   UNL     1      -3.007  11.867  24.180  0.00  0.00    +0.000 F 
ATOM     22  C   UNL     1      -1.632  13.145  22.759  0.00  0.00    +0.000 A 
ATOM     23  C   UNL     1      -0.648  13.234  21.770  0.00  0.00    +0.000 A 
ATOM     24  C   UNL     1      -0.156  12.017  21.306  0.00  0.00    +0.000 A 
ATOM     25  O   UNL     1       0.773  11.828  20.336  0.00  0.00    +0.000 OA
ENDBRANCH  11  14
BRANCH   1  27
ATOM     26  C   UNL     1       6.089   3.631  13.335  0.00  0.00    +0.000 C 
ATOM     27  O   UNL     1       6.269   3.545  14.746  0.00  0.00    +0.000 OA
ENDBRANCH   1  27
BRANCH   7  28
ATOM     28  C   UNL     1       2.865   3.265  19.174  0.00  0.00    +0.000 C 
BRANCH  28  29
ATOM     29  C   UNL     1       3.846   2.754  20.217  0.00  0.00    +0.000 C 
ATOM     30  O   UNL     1       5.045   2.641  20.006  0.00  0.00    +0.000 OA
BRANCH  29  31
ATOM     31  O   UNL     1       3.318   2.507  21.435  0.00  0.00    +0.000 OA
ATOM     32  H   UNL     1       3.320   1.556  21.671  0.00  0.00    +0.000 HD
ENDBRANCH  29  31
ENDBRANCH  28  29
ENDBRANCH   7  28
TORSDOF 5
ENDMDL
MODEL 4
REMARK VINA RESULT:      -8.5      3.663      9.810
REMARK  Name = 
REMARK  7 active torsions:
REMARK  status: ('A' for Active; 'I' for Inactive)
REMARK    1  A    between atoms: C_1  and  O_2
REMARK    2  A    between atoms: O_2  and  C_3
REMARK    3  A    between atoms: C_9  and  C_10
REMARK    4  A    between atoms: C_10  and  C_11
REMARK    5  A    between atoms: C_11  and  O_13
REMARK    6  A    between atoms: C_17  and  N_18
REMARK    7  A    between atoms: N_18  and  C_19
REMARK                            x       y       z     vdW  Elec       q    Type
REMARK                         _______ _______ _______ _____ _____    ______ ____
ROOT
ATOM      1  C   UNL     1       4.953   4.969  16.700  0.00  0.00    +0.000 A 
ATOM      2  C   UNL     1       4.843   6.288  16.275  0.00  0.00    +0.000 A 
ATOM      3  C   UNL     1       4.073   7.210  16.987  0.00  0.00    +0.000 A 
ATOM      4  C   UNL     1       3.414   6.774  18.146  0.00  0.00    +0.000 A 
ATOM      5  C   UNL     1       3.509   5.463  18.615  0.00  0.00    +0.000 A 
ATOM      6  C   UNL     1       4.277   4.545  17.857  0.00  0.00    +0.000 A 
ATOM      7  C   UNL     1       2.732   5.377  19.826  0.00  0.00    +0.000 A 
ATOM      8  C   UNL     1       2.179   6.636  20.034  0.00  0.00    +0.000 A 
ATOM      9  N   UNL     1       2.576   7.452  19.004  0.00  0.00    +0.000 N 
ATOM     10  C   UNL     1       2.199   8.856  18.860  0.00  0.00    +0.000 C 
ATOM     11  C   UNL     1       1.029   9.270  19.767  0.00  0.00    +0.000 C 
ATOM     12  C   UNL     1       1.212   8.659  21.169  0.00  0.00    +0.000 C 
ATOM     13  C   UNL     1       1.244   7.131  21.097  0.00  0.00    +0.000 C 
ENDROOT
BRANCH  11  14
ATOM     14  N   UNL     1       0.875  10.738  19.836  0.00  0.00    +0.000 N 
ATOM     15  C   UNL     1       1.167  11.565  18.670  0.00  0.00    +0.000 C 
ATOM     16  C   UNL     1       0.030  11.271  20.758  0.00  0.00    +0.000 A 
ATOM     17  N   UNL     1      -0.679  10.679  21.699  0.00  0.00    +0.000 NA
ATOM     18  C   UNL     1      -1.409  11.701  22.267  0.00  0.00    +0.000 A 
ATOM     19  C   UNL     1      -2.365  11.709  23.289  0.00  0.00    +0.000 A 
ATOM     20  C   UNL     1      -2.959  12.937  23.607  0.00  0.00    +0.000 A 
ATOM     21  F   UNL     1      -3.894  12.976  24.568  0.00  0.00    +0.000 F 
ATOM     22  C   UNL     1      -2.620  14.123  22.954  0.00  0.00    +0.000 A 
ATOM     23  C   UNL     1      -1.655  14.134  21.943  0.00  0.00    +0.000 A 
ATOM     24  C   UNL     1      -1.091  12.896  21.644  0.00  0.00    +0.000 A 
ATOM     25  O   UNL     1      -0.162  12.630  20.691  0.00  0.00    +0.000 OA
ENDBRANCH  11  14
BRANCH   1  27
ATOM     26  C   UNL     1       6.920   4.397  15.505  0.00  0.00    +0.000 C 
ATOM     27  O   UNL     1       5.665   3.995  16.049  0.00  0.00    +0.000 OA
ENDBRANCH   1  27
BRANCH   7  28
ATOM     28  C   UNL     1       2.508   4.142  20.662  0.00  0.00    +0.000 C 
BRANCH  28  29
ATOM     29  C   UNL     1       1.619   3.076  20.039  0.00  0.00    +0.000 C 
ATOM     30  O   UNL     1       2.061   2.069  19.506  0.00  0.00    +0.000 OA
BRANCH  29  31
ATOM     31  O   UNL     1       0.292   3.274  20.185  0.00  0.00    +0.000 OA
ATOM     32  H   UNL     1      -0.235   2.455  20.077  0.00  0.00    +0.000 HD
ENDBRANCH  29  31
ENDBRANCH  28  29
ENDBRANCH   7  28
TORSDOF 5
ENDMDL
MODEL 5
REMARK VINA RESULT:      -8.5      3.158      8.796
REMARK  Name = 
REMARK  7 active torsions:
REMARK  status: ('A' for Active; 'I' for Inactive)
REMARK    1  A    between atoms: C_1  and  O_2
REMARK    2  A    between atoms: O_2  and  C_3
REMARK    3  A    between atoms: C_9  and  C_10
REMARK    4  A    between atoms: C_10  and  C_11
REMARK    5  A    between atoms: C_11  and  O_13
REMARK    6  A    between atoms: C_17  and  N_18
REMARK    7  A    between atoms: N_18  and  C_19
REMARK                            x       y       z     vdW  Elec       q    Type
REMARK                         _______ _______ _______ _____ _____    ______ ____
ROOT
ATOM      1  C   UNL     1       3.889   3.144  19.709  0.00  0.00    +0.000 A 
ATOM      2  C   UNL     1       2.866   3.608  20.529  0.00  0.00    +0.000 A 
ATOM      3  C   UNL     1       2.354   4.899  20.376  0.00  0.00    +0.000 A 
ATOM      4  C   UNL     1       2.896   5.717  19.373  0.00  0.00    +0.000 A 
ATOM      5  C   UNL     1       3.914   5.285  18.522  0.00  0.00    +0.000 A 
ATOM      6  C   UNL     1       4.428   3.980  18.717  0.00  0.00    +0.000 A 
ATOM      7  C   UNL     1       4.205   6.364  17.611  0.00  0.00    +0.000 A 
ATOM      8  C   UNL     1       3.365   7.416  17.960  0.00  0.00    +0.000 A 
ATOM      9  N   UNL     1       2.608   7.020  19.034  0.00  0.00    +0.000 N 
ATOM     10  C   UNL     1       1.605   7.850  19.697  0.00  0.00    +0.000 C 
ATOM     11  C   UNL     1       1.701   9.338  19.326  0.00  0.00    +0.000 C 
ATOM     12  C   UNL     1       1.945   9.485  17.812  0.00  0.00    +0.000 C 
ATOM     13  C   UNL     1       3.254   8.805  17.405  0.00  0.00    +0.000 C 
ENDROOT
BRANCH  11  14
ATOM     14  N   UNL     1       0.503  10.093  19.753  0.00  0.00    +0.000 N 
ATOM     15  C   UNL     1       0.611  11.133  20.769  0.00  0.00    +0.000 C 
ATOM     16  C   UNL     1      -0.556  10.185  18.905  0.00  0.00    +0.000 A 
ATOM     17  N   UNL     1      -0.741   9.640  17.718  0.00  0.00    +0.000 NA
ATOM     18  C   UNL     1      -1.950  10.148  17.296  0.00  0.00    +0.000 A 
ATOM     19  C   UNL     1      -2.672   9.977  16.110  0.00  0.00    +0.000 A 
ATOM     20  C   UNL     1      -3.875  10.683  15.979  0.00  0.00    +0.000 A 
ATOM     21  F   UNL     1      -4.581  10.556  14.846  0.00  0.00    +0.000 F 
ATOM     22  C   UNL     1      -4.362  11.524  16.981  0.00  0.00    +0.000 A 
ATOM     23  C   UNL     1      -3.660  11.693  18.177  0.00  0.00    +0.000 A 
ATOM     24  C   UNL     1      -2.464  10.985  18.273  0.00  0.00    +0.000 A 
ATOM     25  O   UNL     1      -1.587  10.999  19.308  0.00  0.00    +0.000 OA
ENDBRANCH  11  14
BRANCH   1  27
ATOM     26  C   UNL     1       4.020   0.932  18.864  0.00  0.00    +0.000 C 
ATOM     27  O   UNL     1       4.465   1.904  19.807  0.00  0.00    +0.000 OA
ENDBRANCH   1  27
BRANCH   7  28
ATOM     28  C   UNL     1       5.264   6.370  16.538  0.00  0.00    +0.000 C 
BRANCH  28  29
ATOM     29  C   UNL     1       6.702   6.333  17.030  0.00  0.00    +0.000 C 
ATOM     30  O   UNL     1       7.445   5.379  16.845  0.00  0.00    +0.000 OA
BRANCH  29  31
ATOM     31  O   UNL     1       7.140   7.465  17.621  0.00  0.00    +0.000 OA
ATOM     32  H   UNL     1       6.947   8.272  17.100  0.00  0.00    +0.000 HD
ENDBRANCH  29  31
ENDBRANCH  28  29
ENDBRANCH   7  28
TORSDOF 5
ENDMDL
MODEL 6
REMARK VINA RESULT:      -8.5      1.122      1.276
REMARK  Name = 
REMARK  7 active torsions:
REMARK  status: ('A' for Active; 'I' for Inactive)
REMARK    1  A    between atoms: C_1  and  O_2
REMARK    2  A    between atoms: O_2  and  C_3
REMARK    3  A    between atoms: C_9  and  C_10
REMARK    4  A    between atoms: C_10  and  C_11
REMARK    5  A    between atoms: C_11  and  O_13
REMARK    6  A    between atoms: C_17  and  N_18
REMARK    7  A    between atoms: N_18  and  C_19
REMARK                            x       y       z     vdW  Elec       q    Type
REMARK                         _______ _______ _______ _____ _____    ______ ____
ROOT
ATOM      1  C   UNL     1      -1.676  11.524  22.850  0.00  0.00    +0.000 A 
ATOM      2  C   UNL     1      -1.062  10.393  23.376  0.00  0.00    +0.000 A 
ATOM      3  C   UNL     1      -0.228   9.596  22.587  0.00  0.00    +0.000 A 
ATOM      4  C   UNL     1      -0.022   9.967  21.250  0.00  0.00    +0.000 A 
ATOM      5  C   UNL     1      -0.608  11.101  20.687  0.00  0.00    +0.000 A 
ATOM      6  C   UNL     1      -1.468  11.875  21.505  0.00  0.00    +0.000 A 
ATOM      7  C   UNL     1      -0.165  11.186  19.318  0.00  0.00    +0.000 A 
ATOM      8  C   UNL     1       0.658  10.087  19.099  0.00  0.00    +0.000 A 
ATOM      9  N   UNL     1       0.710   9.354  20.258  0.00  0.00    +0.000 N 
ATOM     10  C   UNL     1       1.472   8.119  20.430  0.00  0.00    +0.000 C 
ATOM     11  C   UNL     1       1.939   7.499  19.102  0.00  0.00    +0.000 C 
ATOM     12  C   UNL     1       2.461   8.605  18.165  0.00  0.00    +0.000 C 
ATOM     13  C   UNL     1       1.360   9.622  17.857  0.00  0.00    +0.000 C 
ENDROOT
BRANCH  11  14
ATOM     14  N   UNL     1       2.955   6.446  19.311  0.00  0.00    +0.000 N 
ATOM     15  C   UNL     1       2.725   5.383  20.282  0.00  0.00    +0.000 C 
ATOM     16  C   UNL     1       3.835   6.172  18.311  0.00  0.00    +0.000 A 
ATOM     17  N   UNL     1       3.992   6.752  17.138  0.00  0.00    +0.000 NA
ATOM     18  C   UNL     1       4.969   6.003  16.518  0.00  0.00    +0.000 A 
ATOM     19  C   UNL     1       5.548   6.092  15.246  0.00  0.00    +0.000 A 
ATOM     20  C   UNL     1       6.507   5.131  14.905  0.00  0.00    +0.000 A 
ATOM     21  F   UNL     1       7.066   5.176  13.687  0.00  0.00    +0.000 F 
ATOM     22  C   UNL     1       6.896   4.117  15.783  0.00  0.00    +0.000 A 
ATOM     23  C   UNL     1       6.339   4.025  17.061  0.00  0.00    +0.000 A 
ATOM     24  C   UNL     1       5.382   4.990  17.367  0.00  0.00    +0.000 A 
ATOM     25  O   UNL     1       4.674   5.103  18.518  0.00  0.00    +0.000 OA
ENDBRANCH  11  14
BRANCH   1  27
ATOM     26  C   UNL     1      -2.797  13.611  22.949  0.00  0.00    +0.000 C 
ATOM     27  O   UNL     1      -2.527  12.345  23.544  0.00  0.00    +0.000 OA
ENDBRANCH   1  27
BRANCH   7  28
ATOM     28  C   UNL     1      -0.573  12.226  18.306  0.00  0.00    +0.000 C 
BRANCH  28  29
ATOM     29  C   UNL     1       0.058  13.598  18.479  0.00  0.00    +0.000 C 
ATOM     30  O   UNL     1       1.249  13.811  18.304  0.00  0.00    +0.000 OA
BRANCH  29  31
ATOM     31  O   UNL     1      -0.803  14.598  18.763  0.00  0.00    +0.000 OA
ATOM     32  H   UNL     1      -0.574  15.084  19.582  0.00  0.00    +0.000 HD
ENDBRANCH  29  31
ENDBRANCH  28  29
ENDBRANCH   7  28
TORSDOF 5
ENDMDL
MODEL 7
REMARK VINA RESULT:      -8.5      3.355      9.055
REMARK  Name = 
REMARK  7 active torsions:
REMARK  status: ('A' for Active; 'I' for Inactive)
REMARK    1  A    between atoms: C_1  and  O_2
REMARK    2  A    between atoms: O_2  and  C_3
REMARK    3  A    between atoms: C_9  and  C_10
REMARK    4  A    between atoms: C_10  and  C_11
REMARK    5  A    between atoms: C_11  and  O_13
REMARK    6  A    between atoms: C_17  and  N_18
REMARK    7  A    between atoms: N_18  and  C_19
REMARK                            x       y       z     vdW  Elec       q    Type
REMARK                         _______ _______ _______ _____ _____    ______ ____
ROOT
ATOM      1  C   UNL     1       4.211   2.615  19.952  0.00  0.00    +0.000 A 
ATOM      2  C   UNL     1       3.252   3.063  20.854  0.00  0.00    +0.000 A 
ATOM      3  C   UNL     1       2.671   4.325  20.716  0.00  0.00    +0.000 A 
ATOM      4  C   UNL     1       3.076   5.132  19.643  0.00  0.00    +0.000 A 
ATOM      5  C   UNL     1       4.026   4.716  18.709  0.00  0.00    +0.000 A 
ATOM      6  C   UNL     1       4.614   3.440  18.889  0.00  0.00    +0.000 A 
ATOM      7  C   UNL     1       4.180   5.776  17.744  0.00  0.00    +0.000 A 
ATOM      8  C   UNL     1       3.331   6.803  18.143  0.00  0.00    +0.000 A 
ATOM      9  N   UNL     1       2.699   6.410  19.296  0.00  0.00    +0.000 N 
ATOM     10  C   UNL     1       1.729   7.219  20.031  0.00  0.00    +0.000 C 
ATOM     11  C   UNL     1       1.722   8.697  19.611  0.00  0.00    +0.000 C 
ATOM     12  C   UNL     1       1.813   8.805  18.077  0.00  0.00    +0.000 C 
ATOM     13  C   UNL     1       3.106   8.167  17.563  0.00  0.00    +0.000 C 
ENDROOT
BRANCH  11  14
ATOM     14  N   UNL     1       0.539   9.414  20.131  0.00  0.00    +0.000 N 
ATOM     15  C   UNL     1      -0.164   8.919  21.309  0.00  0.00    +0.000 C 
ATOM     16  C   UNL     1       0.395  10.738  19.854  0.00  0.00    +0.000 A 
ATOM     17  N   UNL     1       1.139  11.533  19.110  0.00  0.00    +0.000 NA
ATOM     18  C   UNL     1       0.564  12.776  19.264  0.00  0.00    +0.000 A 
ATOM     19  C   UNL     1       0.911  14.035  18.759  0.00  0.00    +0.000 A 
ATOM     20  C   UNL     1       0.123  15.126  19.148  0.00  0.00    +0.000 A 
ATOM     21  F   UNL     1       0.441  16.348  18.697  0.00  0.00    +0.000 F 
ATOM     22  C   UNL     1      -0.975  14.990  19.998  0.00  0.00    +0.000 A 
ATOM     23  C   UNL     1      -1.344  13.738  20.498  0.00  0.00    +0.000 A 
ATOM     24  C   UNL     1      -0.536  12.676  20.100  0.00  0.00    +0.000 A 
ATOM     25  O   UNL     1      -0.658  11.375  20.466  0.00  0.00    +0.000 OA
ENDBRANCH  11  14
BRANCH   1  27
ATOM     26  C   UNL     1       5.400   1.066  21.298  0.00  0.00    +0.000 C 
ATOM     27  O   UNL     1       4.848   1.403  20.028  0.00  0.00    +0.000 OA
ENDBRANCH   1  27
BRANCH   7  28
ATOM     28  C   UNL     1       5.129   5.792  16.572  0.00  0.00    +0.000 C 
BRANCH  28  29
ATOM     29  C   UNL     1       6.530   6.304  16.866  0.00  0.00    +0.000 C 
ATOM     30  O   UNL     1       6.792   7.491  16.996  0.00  0.00    +0.000 OA
BRANCH  29  31
ATOM     31  O   UNL     1       7.466   5.350  17.056  0.00  0.00    +0.000 OA
ATOM     32  H   UNL     1       8.246   5.452  16.473  0.00  0.00    +0.000 HD
ENDBRANCH  29  31
ENDBRANCH  28  29
ENDBRANCH   7  28
TORSDOF 5
ENDMDL
MODEL 8
REMARK VINA RESULT:      -8.3      3.320      9.000
REMARK  Name = 
REMARK  7 active torsions:
REMARK  status: ('A' for Active; 'I' for Inactive)
REMARK    1  A    between atoms: C_1  and  O_2
REMARK    2  A    between atoms: O_2  and  C_3
REMARK    3  A    between atoms: C_9  and  C_10
REMARK    4  A    between atoms: C_10  and  C_11
REMARK    5  A    between atoms: C_11  and  O_13
REMARK    6  A    between atoms: C_17  and  N_18
REMARK    7  A    between atoms: N_18  and  C_19
REMARK                            x       y       z     vdW  Elec       q    Type
REMARK                         _______ _______ _______ _____ _____    ______ ____
ROOT
ATOM      1  C   UNL     1       5.625   5.370  15.834  0.00  0.00    +0.000 A 
ATOM      2  C   UNL     1       5.494   6.731  16.088  0.00  0.00    +0.000 A 
ATOM      3  C   UNL     1       4.612   7.197  17.065  0.00  0.00    +0.000 A 
ATOM      4  C   UNL     1       3.862   6.257  17.788  0.00  0.00    +0.000 A 
ATOM      5  C   UNL     1       3.972   4.883  17.573  0.00  0.00    +0.000 A 
ATOM      6  C   UNL     1       4.857   4.443  16.559  0.00  0.00    +0.000 A 
ATOM      7  C   UNL     1       3.082   4.226  18.497  0.00  0.00    +0.000 A 
ATOM      8  C   UNL     1       2.451   5.230  19.223  0.00  0.00    +0.000 A 
ATOM      9  N   UNL     1       2.910   6.440  18.766  0.00  0.00    +0.000 N 
ATOM     10  C   UNL     1       2.481   7.740  19.276  0.00  0.00    +0.000 C 
ATOM     11  C   UNL     1       1.206   7.670  20.133  0.00  0.00    +0.000 C 
ATOM     12  C   UNL     1       1.276   6.456  21.077  0.00  0.00    +0.000 C 
ATOM     13  C   UNL     1       1.390   5.153  20.281  0.00  0.00    +0.000 C 
ENDROOT
BRANCH  11  14
ATOM     14  N   UNL     1       0.975   8.922  20.883  0.00  0.00    +0.000 N 
ATOM     15  C   UNL     1       0.998   8.922  22.342  0.00  0.00    +0.000 C 
ATOM     16  C   UNL     1       1.227  10.113  20.276  0.00  0.00    +0.000 A 
ATOM     17  N   UNL     1       1.611  10.368  19.040  0.00  0.00    +0.000 NA
ATOM     18  C   UNL     1       1.790  11.734  19.017  0.00  0.00    +0.000 A 
ATOM     19  C   UNL     1       2.221  12.603  18.008  0.00  0.00    +0.000 A 
ATOM     20  C   UNL     1       2.334  13.961  18.329  0.00  0.00    +0.000 A 
ATOM     21  F   UNL     1       2.764  14.816  17.390  0.00  0.00    +0.000 F 
ATOM     22  C   UNL     1       2.025  14.458  19.597  0.00  0.00    +0.000 A 
ATOM     23  C   UNL     1       1.578  13.606  20.610  0.00  0.00    +0.000 A 
ATOM     24  C   UNL     1       1.485  12.261  20.261  0.00  0.00    +0.000 A 
ATOM     25  O   UNL     1       1.110  11.233  21.063  0.00  0.00    +0.000 OA
ENDBRANCH  11  14
BRANCH   1  27
ATOM     26  C   UNL     1       5.822   3.959  13.938  0.00  0.00    +0.000 C 
ATOM     27  O   UNL     1       6.446   4.829  14.878  0.00  0.00    +0.000 OA
ENDBRANCH   1  27
BRANCH   7  28
ATOM     28  C   UNL     1       2.835   2.742  18.603  0.00  0.00    +0.000 C 
BRANCH  28  29
ATOM     29  C   UNL     1       3.992   1.918  19.145  0.00  0.00    +0.000 C 
ATOM     30  O   UNL     1       4.637   2.242  20.132  0.00  0.00    +0.000 OA
BRANCH  29  31
ATOM     31  O   UNL     1       4.217   0.749  18.508  0.00  0.00    +0.000 OA
ATOM     32  H   UNL     1       3.394   0.306  18.214  0.00  0.00    +0.000 HD
ENDBRANCH  29  31
ENDBRANCH  28  29
ENDBRANCH   7  28
TORSDOF 5
ENDMDL
MODEL 9
REMARK VINA RESULT:      -8.3      3.628      9.217
REMARK  Name = 
REMARK  7 active torsions:
REMARK  status: ('A' for Active; 'I' for Inactive)
REMARK    1  A    between atoms: C_1  and  O_2
REMARK    2  A    between atoms: O_2  and  C_3
REMARK    3  A    between atoms: C_9  and  C_10
REMARK    4  A    between atoms: C_10  and  C_11
REMARK    5  A    between atoms: C_11  and  O_13
REMARK    6  A    between atoms: C_17  and  N_18
REMARK    7  A    between atoms: N_18  and  C_19
REMARK                            x       y       z     vdW  Elec       q    Type
REMARK                         _______ _______ _______ _____ _____    ______ ____
ROOT
ATOM      1  C   UNL     1       3.769   3.058  19.770  0.00  0.00    +0.000 A 
ATOM      2  C   UNL     1       2.942   3.428  20.825  0.00  0.00    +0.000 A 
ATOM      3  C   UNL     1       2.371   4.701  20.876  0.00  0.00    +0.000 A 
ATOM      4  C   UNL     1       2.649   5.599  19.835  0.00  0.00    +0.000 A 
ATOM      5  C   UNL     1       3.462   5.263  18.752  0.00  0.00    +0.000 A 
ATOM      6  C   UNL     1       4.046   3.973  18.741  0.00  0.00    +0.000 A 
ATOM      7  C   UNL     1       3.509   6.405  17.873  0.00  0.00    +0.000 A 
ATOM      8  C   UNL     1       2.738   7.397  18.469  0.00  0.00    +0.000 A 
ATOM      9  N   UNL     1       2.253   6.906  19.655  0.00  0.00    +0.000 N 
ATOM     10  C   UNL     1       1.400   7.650  20.579  0.00  0.00    +0.000 C 
ATOM     11  C   UNL     1       1.365   9.161  20.296  0.00  0.00    +0.000 C 
ATOM     12  C   UNL     1       1.259   9.406  18.779  0.00  0.00    +0.000 C 
ATOM     13  C   UNL     1       2.463   8.809  18.046  0.00  0.00    +0.000 C 
ENDROOT
BRANCH  11  14
ATOM     14  N   UNL     1       0.272   9.835  21.027  0.00  0.00    +0.000 N 
ATOM     15  C   UNL     1      -0.577   9.082  21.943  0.00  0.00    +0.000 C 
ATOM     16  C   UNL     1       0.349  11.176  21.241  0.00  0.00    +0.000 A 
ATOM     17  N   UNL     1       1.254  12.047  20.837  0.00  0.00    +0.000 NA
ATOM     18  C   UNL     1       0.865  13.233  21.420  0.00  0.00    +0.000 A 
ATOM     19  C   UNL     1       1.432  14.513  21.402  0.00  0.00    +0.000 A 
ATOM     20  C   UNL     1       0.795  15.512  22.148  0.00  0.00    +0.000 A 
ATOM     21  F   UNL     1       1.325  16.744  22.167  0.00  0.00    +0.000 F 
ATOM     22  C   UNL     1      -0.367  15.271  22.883  0.00  0.00    +0.000 A 
ATOM     23  C   UNL     1      -0.954  14.003  22.898  0.00  0.00    +0.000 A 
ATOM     24  C   UNL     1      -0.291  13.030  22.154  0.00  0.00    +0.000 A 
ATOM     25  O   UNL     1      -0.634  11.723  22.029  0.00  0.00    +0.000 OA
ENDBRANCH  11  14
BRANCH   1  27
ATOM     26  C   UNL     1       4.012   1.051  18.529  0.00  0.00    +0.000 C 
ATOM     27  O   UNL     1       4.389   1.840  19.654  0.00  0.00    +0.000 OA
ENDBRANCH   1  27
BRANCH   7  28
ATOM     28  C   UNL     1       4.299   6.521  16.594  0.00  0.00    +0.000 C 
BRANCH  28  29
ATOM     29  C   UNL     1       5.810   6.568  16.755  0.00  0.00    +0.000 C 
ATOM     30  O   UNL     1       6.405   7.548  17.182  0.00  0.00    +0.000 OA
BRANCH  29  31
ATOM     31  O   UNL     1       6.458   5.419  16.469  0.00  0.00    +0.000 OA
ATOM     32  H   UNL     1       6.874   5.004  17.253  0.00  0.00    +0.000 HD
ENDBRANCH  29  31
ENDBRANCH  28  29
ENDBRANCH   7  28
TORSDOF 5
ENDMDL
