MODEL 1
REMARK VINA RESULT:      -8.4      0.000      0.000
REMARK  Name = 
REMARK  4 active torsions:
REMARK  status: ('A' for Active; 'I' for Inactive)
REMARK    1  A    between atoms: C_1  and  N_2
REMARK    2  A    between atoms: C_3  and  C_5
REMARK    3  A    between atoms: C_10  and  C_11
REMARK    4  A    between atoms: C_11  and  C_12
REMARK                            x       y       z     vdW  Elec       q    Type
REMARK                         _______ _______ _______ _____ _____    ______ ____
ROOT
ATOM      1  C   UNL     1       4.916   3.561  16.960  0.00  0.00    +0.000 C 
ENDROOT
BRANCH   1   2
ATOM      2  C   UNL     1       4.110   4.665  17.647  0.00  0.00    +0.000 A 
ATOM      3  N   UNL     1       4.190   5.858  17.133  0.00  0.00    +0.000 NA
ATOM      4  N   UNL     1       3.493   6.852  17.740  0.00  0.00    +0.000 N 
ATOM      5  C   UNL     1       2.729   6.724  18.866  0.00  0.00    +0.000 A 
ATOM      6  O   UNL     1       2.195   7.687  19.407  0.00  0.00    +0.000 OA
ATOM      7  C   UNL     1       2.558   5.341  19.376  0.00  0.00    +0.000 A 
ATOM      8  C   UNL     1       3.227   4.321  18.808  0.00  0.00    +0.000 A 
ATOM      9  C   UNL     1       3.095   2.906  19.301  0.00  0.00    +0.000 C 
ATOM     10  C   UNL     1       2.394   2.796  20.660  0.00  0.00    +0.000 C 
ATOM     11  C   UNL     1       1.179   3.710  20.721  0.00  0.00    +0.000 C 
ATOM     12  C   UNL     1       1.596   5.168  20.521  0.00  0.00    +0.000 C 
ATOM     13  H   UNL     1       3.630   7.788  17.376  0.00  0.00    +0.000 HD
ENDBRANCH   1   2
BRANCH   1  19
ATOM     14  C   UNL     1       6.956   4.653  15.857  0.00  0.00    +0.000 A 
ATOM     15  N   UNL     1       7.694   5.052  14.777  0.00  0.00    +0.000 NA
ATOM     16  C   UNL     1       7.119   4.903  13.562  0.00  0.00    +0.000 A 
ATOM     17  C   UNL     1       5.866   4.351  13.363  0.00  0.00    +0.000 A 
ATOM     18  C   UNL     1       5.154   3.911  14.473  0.00  0.00    +0.000 A 
ATOM     19  C   UNL     1       5.699   4.045  15.756  0.00  0.00    +0.000 A 
BRANCH  14  22
ATOM     20  C   UNL     1       7.945   6.500  19.017  0.00  0.00    +0.000 C 
ATOM     21  N   UNL     1       7.384   6.148  17.740  0.00  0.00    +0.000 N 
ATOM     22  C   UNL     1       7.608   4.902  17.192  0.00  0.00    +0.000 C 
ATOM     23  O   UNL     1       8.307   4.058  17.748  0.00  0.00    +0.000 OA
ATOM     24  H   UNL     1       6.674   6.725  17.296  0.00  0.00    +0.000 HD
ENDBRANCH  14  22
ENDBRANCH   1  19
TORSDOF 3
ENDMDL
MODEL 2
REMARK VINA RESULT:      -8.3      2.070      2.634
REMARK  Name = 
REMARK  4 active torsions:
REMARK  status: ('A' for Active; 'I' for Inactive)
REMARK    1  A    between atoms: C_1  and  N_2
REMARK    2  A    between atoms: C_3  and  C_5
REMARK    3  A    between atoms: C_10  and  C_11
REMARK    4  A    between atoms: C_11  and  C_12
REMARK                            x       y       z     vdW  Elec       q    Type
REMARK                         _______ _______ _______ _____ _____    ______ ____
ROOT
ATOM      1  C   UNL     1       4.382   5.415  16.977  0.00  0.00    +0.000 C 
ENDROOT
BRANCH   1   2
ATOM      2  C   UNL     1       4.418   4.403  18.123  0.00  0.00    +0.000 A 
ATOM      3  N   UNL     1       5.584   4.140  18.640  0.00  0.00    +0.000 NA
ATOM      4  N   UNL     1       5.635   3.233  19.648  0.00  0.00    +0.000 N 
ATOM      5  C   UNL     1       4.573   2.543  20.160  0.00  0.00    +0.000 A 
ATOM      6  O   UNL     1       4.709   1.675  21.016  0.00  0.00    +0.000 OA
ATOM      7  C   UNL     1       3.239   2.931  19.640  0.00  0.00    +0.000 A 
ATOM      8  C   UNL     1       3.135   3.827  18.642  0.00  0.00    +0.000 A 
ATOM      9  C   UNL     1       1.805   4.240  18.073  0.00  0.00    +0.000 C 
ATOM     10  C   UNL     1       0.646   3.339  18.516  0.00  0.00    +0.000 C 
ATOM     11  C   UNL     1       0.742   3.018  20.000  0.00  0.00    +0.000 C 
ATOM     12  C   UNL     1       2.052   2.290  20.306  0.00  0.00    +0.000 C 
ATOM     13  H   UNL     1       6.558   2.981  19.983  0.00  0.00    +0.000 HD
ENDBRANCH   1   2
BRANCH   1  19
ATOM     14  C   UNL     1       6.675   5.638  15.853  0.00  0.00    +0.000 A 
ATOM     15  N   UNL     1       7.597   5.337  14.889  0.00  0.00    +0.000 NA
ATOM     16  C   UNL     1       7.180   4.545  13.876  0.00  0.00    +0.000 A 
ATOM     17  C   UNL     1       5.906   4.011  13.788  0.00  0.00    +0.000 A 
ATOM     18  C   UNL     1       5.000   4.294  14.803  0.00  0.00    +0.000 A 
ATOM     19  C   UNL     1       5.377   5.113  15.874  0.00  0.00    +0.000 A 
BRANCH  14  22
ATOM     20  C   UNL     1       8.256   6.772  19.106  0.00  0.00    +0.000 C 
ATOM     21  N   UNL     1       7.740   5.978  18.023  0.00  0.00    +0.000 N 
ATOM     22  C   UNL     1       7.164   6.578  16.922  0.00  0.00    +0.000 C 
ATOM     23  O   UNL     1       7.044   7.797  16.829  0.00  0.00    +0.000 OA
ATOM     24  H   UNL     1       7.941   4.984  17.953  0.00  0.00    +0.000 HD
ENDBRANCH  14  22
ENDBRANCH   1  19
TORSDOF 3
ENDMDL
MODEL 3
REMARK VINA RESULT:      -8.2      1.114      1.151
REMARK  Name = 
REMARK  4 active torsions:
REMARK  status: ('A' for Active; 'I' for Inactive)
REMARK    1  A    between atoms: C_1  and  N_2
REMARK    2  A    between atoms: C_3  and  C_5
REMARK    3  A    between atoms: C_10  and  C_11
REMARK    4  A    between atoms: C_11  and  C_12
REMARK                            x       y       z     vdW  Elec       q    Type
REMARK                         _______ _______ _______ _____ _____    ______ ____
ROOT
ATOM      1  C   UNL     1       5.635   4.205  18.096  0.00  0.00    +0.000 C 
ENDROOT
BRANCH   1   2
ATOM      2  C   UNL     1       4.488   5.131  18.504  0.00  0.00    +0.000 A 
ATOM      3  N   UNL     1       4.456   6.307  17.948  0.00  0.00    +0.000 NA
ATOM      4  N   UNL     1       3.453   7.147  18.310  0.00  0.00    +0.000 N 
ATOM      5  C   UNL     1       2.480   6.882  19.232  0.00  0.00    +0.000 A 
ATOM      6  O   UNL     1       1.654   7.724  19.571  0.00  0.00    +0.000 OA
ATOM      7  C   UNL     1       2.463   5.502  19.776  0.00  0.00    +0.000 A 
ATOM      8  C   UNL     1       3.434   4.632  19.446  0.00  0.00    +0.000 A 
ATOM      9  C   UNL     1       3.466   3.227  19.985  0.00  0.00    +0.000 C 
ATOM     10  C   UNL     1       2.492   2.997  21.146  0.00  0.00    +0.000 C 
ATOM     11  C   UNL     1       1.145   3.645  20.863  0.00  0.00    +0.000 C 
ATOM     12  C   UNL     1       1.306   5.154  20.673  0.00  0.00    +0.000 C 
ATOM     13  H   UNL     1       3.489   8.086  17.929  0.00  0.00    +0.000 HD
ENDBRANCH   1   2
BRANCH   1  19
ATOM     14  C   UNL     1       7.034   5.456  16.351  0.00  0.00    +0.000 A 
ATOM     15  N   UNL     1       7.524   5.651  15.089  0.00  0.00    +0.000 NA
ATOM     16  C   UNL     1       7.032   4.850  14.117  0.00  0.00    +0.000 A 
ATOM     17  C   UNL     1       6.105   3.846  14.339  0.00  0.00    +0.000 A 
ATOM     18  C   UNL     1       5.657   3.637  15.638  0.00  0.00    +0.000 A 
ATOM     19  C   UNL     1       6.128   4.441  16.682  0.00  0.00    +0.000 A 
BRANCH  14  22
ATOM     20  C   UNL     1       7.991   8.762  17.940  0.00  0.00    +0.000 C 
ATOM     21  N   UNL     1       7.527   7.748  17.031  0.00  0.00    +0.000 N 
ATOM     22  C   UNL     1       7.559   6.416  17.385  0.00  0.00    +0.000 C 
ATOM     23  O   UNL     1       8.002   6.037  18.467  0.00  0.00    +0.000 OA
ATOM     24  H   UNL     1       7.006   7.988  16.192  0.00  0.00    +0.000 HD
ENDBRANCH  14  22
ENDBRANCH   1  19
TORSDOF 3
ENDMDL
MODEL 4
REMARK VINA RESULT:      -8.2      1.568      1.735
REMARK  Name = 
REMARK  4 active torsions:
REMARK  status: ('A' for Active; 'I' for Inactive)
REMARK    1  A    between atoms: C_1  and  N_2
REMARK    2  A    between atoms: C_3  and  C_5
REMARK    3  A    between atoms: C_10  and  C_11
REMARK    4  A    between atoms: C_11  and  C_12
REMARK                            x       y       z     vdW  Elec       q    Type
REMARK                         _______ _______ _______ _____ _____    ______ ____
ROOT
ATOM      1  C   UNL     1       5.820   4.272  18.644  0.00  0.00    +0.000 C 
ENDROOT
BRANCH   1   2
ATOM      2  C   UNL     1       4.489   4.837  19.140  0.00  0.00    +0.000 A 
ATOM      3  N   UNL     1       4.450   6.113  19.397  0.00  0.00    +0.000 NA
ATOM      4  N   UNL     1       3.280   6.627  19.852  0.00  0.00    +0.000 N 
ATOM      5  C   UNL     1       2.134   5.922  20.095  0.00  0.00    +0.000 A 
ATOM      6  O   UNL     1       1.138   6.443  20.588  0.00  0.00    +0.000 OA
ATOM      7  C   UNL     1       2.158   4.494  19.695  0.00  0.00    +0.000 A 
ATOM      8  C   UNL     1       3.294   3.937  19.236  0.00  0.00    +0.000 A 
ATOM      9  C   UNL     1       3.369   2.490  18.833  0.00  0.00    +0.000 C 
ATOM     10  C   UNL     1       2.151   1.670  19.276  0.00  0.00    +0.000 C 
ATOM     11  C   UNL     1       0.860   2.435  19.028  0.00  0.00    +0.000 C 
ATOM     12  C   UNL     1       0.857   3.747  19.813  0.00  0.00    +0.000 C 
ATOM     13  H   UNL     1       3.290   7.604  20.124  0.00  0.00    +0.000 HD
ENDBRANCH   1   2
BRANCH   1  19
ATOM     14  C   UNL     1       6.883   5.581  16.713  0.00  0.00    +0.000 A 
ATOM     15  N   UNL     1       7.161   5.800  15.392  0.00  0.00    +0.000 NA
ATOM     16  C   UNL     1       6.550   4.986  14.501  0.00  0.00    +0.000 A 
ATOM     17  C   UNL     1       5.705   3.949  14.856  0.00  0.00    +0.000 A 
ATOM     18  C   UNL     1       5.475   3.718  16.207  0.00  0.00    +0.000 A 
ATOM     19  C   UNL     1       6.077   4.533  17.173  0.00  0.00    +0.000 A 
BRANCH  14  22
ATOM     20  C   UNL     1       8.180   8.885  18.045  0.00  0.00    +0.000 C 
ATOM     21  N   UNL     1       7.594   7.861  17.222  0.00  0.00    +0.000 N 
ATOM     22  C   UNL     1       7.530   6.555  17.662  0.00  0.00    +0.000 C 
ATOM     23  O   UNL     1       7.987   6.207  18.748  0.00  0.00    +0.000 OA
ATOM     24  H   UNL     1       7.059   8.092  16.390  0.00  0.00    +0.000 HD
ENDBRANCH  14  22
ENDBRANCH   1  19
TORSDOF 3
ENDMDL
MODEL 5
REMARK VINA RESULT:      -8.1      2.138      2.603
REMARK  Name = 
REMARK  4 active torsions:
REMARK  status: ('A' for Active; 'I' for Inactive)
REMARK    1  A    between atoms: C_1  and  N_2
REMARK    2  A    between atoms: C_3  and  C_5
REMARK    3  A    between atoms: C_10  and  C_11
REMARK    4  A    between atoms: C_11  and  C_12
REMARK                            x       y       z     vdW  Elec       q    Type
REMARK                         _______ _______ _______ _____ _____    ______ ____
ROOT
ATOM      1  C   UNL     1       5.700   4.080  18.180  0.00  0.00    +0.000 C 
ENDROOT
BRANCH   1   2
ATOM      2  C   UNL     1       4.277   3.536  18.310  0.00  0.00    +0.000 A 
ATOM      3  N   UNL     1       4.056   2.345  17.831  0.00  0.00    +0.000 NA
ATOM      4  N   UNL     1       2.795   1.854  17.925  0.00  0.00    +0.000 N 
ATOM      5  C   UNL     1       1.718   2.506  18.455  0.00  0.00    +0.000 A 
ATOM      6  O   UNL     1       0.587   2.030  18.429  0.00  0.00    +0.000 OA
ATOM      7  C   UNL     1       2.004   3.813  19.095  0.00  0.00    +0.000 A 
ATOM      8  C   UNL     1       3.240   4.343  19.031  0.00  0.00    +0.000 A 
ATOM      9  C   UNL     1       3.573   5.672  19.652  0.00  0.00    +0.000 C 
ATOM     10  C   UNL     1       2.338   6.474  20.077  0.00  0.00    +0.000 C 
ATOM     11  C   UNL     1       1.317   5.578  20.763  0.00  0.00    +0.000 C 
ATOM     12  C   UNL     1       0.858   4.468  19.817  0.00  0.00    +0.000 C 
ATOM     13  H   UNL     1       2.623   0.961  17.476  0.00  0.00    +0.000 HD
ENDBRANCH   1   2
BRANCH   1  19
ATOM     14  C   UNL     1       6.954   5.423  16.394  0.00  0.00    +0.000 A 
ATOM     15  N   UNL     1       7.370   5.663  15.113  0.00  0.00    +0.000 NA
ATOM     16  C   UNL     1       6.863   4.859  14.151  0.00  0.00    +0.000 A 
ATOM     17  C   UNL     1       5.993   3.812  14.398  0.00  0.00    +0.000 A 
ATOM     18  C   UNL     1       5.621   3.560  15.713  0.00  0.00    +0.000 A 
ATOM     19  C   UNL     1       6.111   4.364  16.749  0.00  0.00    +0.000 A 
BRANCH  14  22
ATOM     20  C   UNL     1       8.012   8.724  17.929  0.00  0.00    +0.000 C 
ATOM     21  N   UNL     1       7.530   7.708  17.031  0.00  0.00    +0.000 N 
ATOM     22  C   UNL     1       7.490   6.386  17.420  0.00  0.00    +0.000 C 
ATOM     23  O   UNL     1       7.880   6.016  18.525  0.00  0.00    +0.000 OA
ATOM     24  H   UNL     1       7.048   7.949  16.169  0.00  0.00    +0.000 HD
ENDBRANCH  14  22
ENDBRANCH   1  19
TORSDOF 3
ENDMDL
MODEL 6
REMARK VINA RESULT:      -7.9      2.258      3.855
REMARK  Name = 
REMARK  4 active torsions:
REMARK  status: ('A' for Active; 'I' for Inactive)
REMARK    1  A    between atoms: C_1  and  N_2
REMARK    2  A    between atoms: C_3  and  C_5
REMARK    3  A    between atoms: C_10  and  C_11
REMARK    4  A    between atoms: C_11  and  C_12
REMARK                            x       y       z     vdW  Elec       q    Type
REMARK                         _______ _______ _______ _____ _____    ______ ____
ROOT
ATOM      1  C   UNL     1       5.235   3.772  17.751  0.00  0.00    +0.000 C 
ENDROOT
BRANCH   1   2
ATOM      2  C   UNL     1       4.288   3.683  18.948  0.00  0.00    +0.000 A 
ATOM      3  N   UNL     1       4.371   2.615  19.687  0.00  0.00    +0.000 NA
ATOM      4  N   UNL     1       3.527   2.513  20.744  0.00  0.00    +0.000 N 
ATOM      5  C   UNL     1       2.569   3.422  21.096  0.00  0.00    +0.000 A 
ATOM      6  O   UNL     1       1.784   3.222  22.017  0.00  0.00    +0.000 OA
ATOM      7  C   UNL     1       2.557   4.683  20.314  0.00  0.00    +0.000 A 
ATOM      8  C   UNL     1       3.376   4.833  19.257  0.00  0.00    +0.000 A 
ATOM      9  C   UNL     1       3.389   6.087  18.426  0.00  0.00    +0.000 C 
ATOM     10  C   UNL     1       2.201   7.015  18.705  0.00  0.00    +0.000 C 
ATOM     11  C   UNL     1       1.936   7.127  20.200  0.00  0.00    +0.000 C 
ATOM     12  C   UNL     1       1.612   5.753  20.789  0.00  0.00    +0.000 C 
ATOM     13  H   UNL     1       3.550   1.640  21.260  0.00  0.00    +0.000 HD
ENDBRANCH   1   2
BRANCH   1  19
ATOM     14  C   UNL     1       6.653   5.666  16.765  0.00  0.00    +0.000 A 
ATOM     15  N   UNL     1       7.526   6.714  16.859  0.00  0.00    +0.000 NA
ATOM     16  C   UNL     1       8.063   6.950  18.077  0.00  0.00    +0.000 A 
ATOM     17  C   UNL     1       7.753   6.220  19.212  0.00  0.00    +0.000 A 
ATOM     18  C   UNL     1       6.827   5.189  19.101  0.00  0.00    +0.000 A 
ATOM     19  C   UNL     1       6.244   4.898  17.862  0.00  0.00    +0.000 A 
BRANCH  14  22
ATOM     20  C   UNL     1       6.246   3.932  13.419  0.00  0.00    +0.000 C 
ATOM     21  N   UNL     1       6.670   4.296  14.745  0.00  0.00    +0.000 N 
ATOM     22  C   UNL     1       6.135   5.399  15.377  0.00  0.00    +0.000 C 
ATOM     23  O   UNL     1       5.305   6.126  14.835  0.00  0.00    +0.000 OA
ATOM     24  H   UNL     1       7.228   3.666  15.314  0.00  0.00    +0.000 HD
ENDBRANCH  14  22
ENDBRANCH   1  19
TORSDOF 3
ENDMDL
MODEL 7
REMARK VINA RESULT:      -7.9      2.539      4.986
REMARK  Name = 
REMARK  4 active torsions:
REMARK  status: ('A' for Active; 'I' for Inactive)
REMARK    1  A    between atoms: C_1  and  N_2
REMARK    2  A    between atoms: C_3  and  C_5
REMARK    3  A    between atoms: C_10  and  C_11
REMARK    4  A    between atoms: C_11  and  C_12
REMARK                            x       y       z     vdW  Elec       q    Type
REMARK                         _______ _______ _______ _____ _____    ______ ____
ROOT
ATOM      1  C   UNL     1       2.901   5.578  20.369  0.00  0.00    +0.000 C 
ENDROOT
BRANCH   1   2
ATOM      2  C   UNL     1       2.599   6.824  19.536  0.00  0.00    +0.000 A 
ATOM      3  N   UNL     1       3.101   6.866  18.336  0.00  0.00    +0.000 NA
ATOM      4  N   UNL     1       2.855   7.971  17.589  0.00  0.00    +0.000 N 
ATOM      5  C   UNL     1       2.146   9.068  17.990  0.00  0.00    +0.000 A 
ATOM      6  O   UNL     1       2.036  10.068  17.288  0.00  0.00    +0.000 OA
ATOM      7  C   UNL     1       1.488   8.963  19.316  0.00  0.00    +0.000 A 
ATOM      8  C   UNL     1       1.700   7.886  20.093  0.00  0.00    +0.000 A 
ATOM      9  C   UNL     1       1.066   7.743  21.450  0.00  0.00    +0.000 C 
ATOM     10  C   UNL     1       0.432   9.039  21.967  0.00  0.00    +0.000 C 
ATOM     11  C   UNL     1      -0.347   9.742  20.864  0.00  0.00    +0.000 C 
ATOM     12  C   UNL     1       0.580  10.099  19.701  0.00  0.00    +0.000 C 
ATOM     13  H   UNL     1       3.319   8.022  16.689  0.00  0.00    +0.000 HD
ENDBRANCH   1   2
BRANCH   1  19
ATOM     14  C   UNL     1       3.180   3.430  18.999  0.00  0.00    +0.000 A 
ATOM     15  N   UNL     1       2.733   2.248  18.475  0.00  0.00    +0.000 NA
ATOM     16  C   UNL     1       1.422   1.965  18.649  0.00  0.00    +0.000 A 
ATOM     17  C   UNL     1       0.542   2.777  19.342  0.00  0.00    +0.000 A 
ATOM     18  C   UNL     1       1.030   3.951  19.905  0.00  0.00    +0.000 A 
ATOM     19  C   UNL     1       2.378   4.297  19.751  0.00  0.00    +0.000 A 
BRANCH  14  22
ATOM     20  C   UNL     1       6.231   4.679  17.127  0.00  0.00    +0.000 C 
ATOM     21  N   UNL     1       4.886   4.329  17.503  0.00  0.00    +0.000 N 
ATOM     22  C   UNL     1       4.628   3.734  18.720  0.00  0.00    +0.000 C 
ATOM     23  O   UNL     1       5.521   3.456  19.516  0.00  0.00    +0.000 OA
ATOM     24  H   UNL     1       4.085   4.665  16.976  0.00  0.00    +0.000 HD
ENDBRANCH  14  22
ENDBRANCH   1  19
TORSDOF 3
ENDMDL
MODEL 8
REMARK VINA RESULT:      -7.9      2.034      2.965
REMARK  Name = 
REMARK  4 active torsions:
REMARK  status: ('A' for Active; 'I' for Inactive)
REMARK    1  A    between atoms: C_1  and  N_2
REMARK    2  A    between atoms: C_3  and  C_5
REMARK    3  A    between atoms: C_10  and  C_11
REMARK    4  A    between atoms: C_11  and  C_12
REMARK                            x       y       z     vdW  Elec       q    Type
REMARK                         _______ _______ _______ _____ _____    ______ ____
ROOT
ATOM      1  C   UNL     1       4.431   6.909  16.900  0.00  0.00    +0.000 C 
ENDROOT
BRANCH   1   2
ATOM      2  C   UNL     1       3.756   6.302  18.130  0.00  0.00    +0.000 A 
ATOM      3  N   UNL     1       4.147   5.113  18.490  0.00  0.00    +0.000 NA
ATOM      4  N   UNL     1       3.547   4.554  19.571  0.00  0.00    +0.000 N 
ATOM      5  C   UNL     1       2.544   5.114  20.311  0.00  0.00    +0.000 A 
ATOM      6  O   UNL     1       1.991   4.511  21.225  0.00  0.00    +0.000 OA
ATOM      7  C   UNL     1       2.185   6.510  19.960  0.00  0.00    +0.000 A 
ATOM      8  C   UNL     1       2.752   7.109  18.897  0.00  0.00    +0.000 A 
ATOM      9  C   UNL     1       2.408   8.517  18.495  0.00  0.00    +0.000 C 
ATOM     10  C   UNL     1       1.165   9.067  19.204  0.00  0.00    +0.000 C 
ATOM     11  C   UNL     1       1.177   8.708  20.682  0.00  0.00    +0.000 C 
ATOM     12  C   UNL     1       1.192   7.190  20.863  0.00  0.00    +0.000 C 
ATOM     13  H   UNL     1       3.805   3.597  19.788  0.00  0.00    +0.000 HD
ENDBRANCH   1   2
BRANCH   1  19
ATOM     14  C   UNL     1       6.750   5.880  16.534  0.00  0.00    +0.000 A 
ATOM     15  N   UNL     1       7.617   4.998  15.951  0.00  0.00    +0.000 NA
ATOM     16  C   UNL     1       7.120   4.225  14.958  0.00  0.00    +0.000 A 
ATOM     17  C   UNL     1       5.802   4.262  14.538  0.00  0.00    +0.000 A 
ATOM     18  C   UNL     1       4.929   5.134  15.177  0.00  0.00    +0.000 A 
ATOM     19  C   UNL     1       5.391   5.961  16.208  0.00  0.00    +0.000 A 
BRANCH  14  22
ATOM     20  C   UNL     1       8.297   8.976  18.080  0.00  0.00    +0.000 C 
ATOM     21  N   UNL     1       7.711   8.034  17.165  0.00  0.00    +0.000 N 
ATOM     22  C   UNL     1       7.365   6.767  17.584  0.00  0.00    +0.000 C 
ATOM     23  O   UNL     1       7.561   6.381  18.734  0.00  0.00    +0.000 OA
ATOM     24  H   UNL     1       7.375   8.323  16.250  0.00  0.00    +0.000 HD
ENDBRANCH  14  22
ENDBRANCH   1  19
TORSDOF 3
ENDMDL
MODEL 9
REMARK VINA RESULT:      -7.8      2.311      2.950
REMARK  Name = 
REMARK  4 active torsions:
REMARK  status: ('A' for Active; 'I' for Inactive)
REMARK    1  A    between atoms: C_1  and  N_2
REMARK    2  A    between atoms: C_3  and  C_5
REMARK    3  A    between atoms: C_10  and  C_11
REMARK    4  A    between atoms: C_11  and  C_12
REMARK                            x       y       z     vdW  Elec       q    Type
REMARK                         _______ _______ _______ _____ _____    ______ ____
ROOT
ATOM      1  C   UNL     1       6.149   4.547  19.026  0.00  0.00    +0.000 C 
ENDROOT
BRANCH   1   2
ATOM      2  C   UNL     1       4.816   3.939  19.463  0.00  0.00    +0.000 A 
ATOM      3  N   UNL     1       4.801   2.658  19.696  0.00  0.00    +0.000 NA
ATOM      4  N   UNL     1       3.622   2.101  20.071  0.00  0.00    +0.000 N 
ATOM      5  C   UNL     1       2.431   2.757  20.202  0.00  0.00    +0.000 A 
ATOM      6  O   UNL     1       1.386   2.169  20.463  0.00  0.00    +0.000 OA
ATOM      7  C   UNL     1       2.483   4.231  20.041  0.00  0.00    +0.000 A 
ATOM      8  C   UNL     1       3.630   4.831  19.671  0.00  0.00    +0.000 A 
ATOM      9  C   UNL     1       3.726   6.321  19.482  0.00  0.00    +0.000 C 
ATOM     10  C   UNL     1       2.363   7.021  19.448  0.00  0.00    +0.000 C 
ATOM     11  C   UNL     1       1.445   6.478  20.533  0.00  0.00    +0.000 C 
ATOM     12  C   UNL     1       1.212   4.979  20.334  0.00  0.00    +0.000 C 
ATOM     13  H   UNL     1       3.610   1.092  20.170  0.00  0.00    +0.000 HD
ENDBRANCH   1   2
BRANCH   1  19
ATOM     14  C   UNL     1       6.983   5.767  16.932  0.00  0.00    +0.000 A 
ATOM     15  N   UNL     1       7.142   5.906  15.581  0.00  0.00    +0.000 NA
ATOM     16  C   UNL     1       6.506   5.004  14.799  0.00  0.00    +0.000 A 
ATOM     17  C   UNL     1       5.748   3.955  15.290  0.00  0.00    +0.000 A 
ATOM     18  C   UNL     1       5.639   3.808  16.668  0.00  0.00    +0.000 A 
ATOM     19  C   UNL     1       6.273   4.716  17.524  0.00  0.00    +0.000 A 
BRANCH  14  22
ATOM     20  C   UNL     1       8.188   9.216  17.942  0.00  0.00    +0.000 C 
ATOM     21  N   UNL     1       7.594   8.111  17.239  0.00  0.00    +0.000 N 
ATOM     22  C   UNL     1       7.652   6.834  17.757  0.00  0.00    +0.000 C 
ATOM     23  O   UNL     1       8.226   6.581  18.814  0.00  0.00    +0.000 OA
ATOM     24  H   UNL     1       6.973   8.258  16.448  0.00  0.00    +0.000 HD
ENDBRANCH  14  22
ENDBRANCH   1  19
TORSDOF 3
ENDMDL
