MODEL 1
REMARK VINA RESULT:      -8.4      0.000      0.000
REMARK  Name = 
REMARK  7 active torsions:
REMARK  status: ('A' for Active; 'I' for Inactive)
REMARK    1  A    between atoms: C_2  and  C_19
REMARK    2  A    between atoms: C_6  and  C_7
REMARK    3  A    between atoms: C_7  and  C_8
REMARK    4  A    between atoms: C_8  and  O_9
REMARK    5  A    between atoms: O_9  and  C_10
REMARK    6  A    between atoms: C_10  and  C_11
REMARK    7  A    between atoms: C_24  and  N_25
REMARK                            x       y       z     vdW  Elec       q    Type
REMARK                         _______ _______ _______ _____ _____    ______ ____
ROOT
ATOM      1  O   UNL     1       1.563   8.945  19.260  0.00  0.00    +0.000 OA
ATOM      2  C   UNL     1       1.450   8.102  20.141  0.00  0.00    +0.000 C 
ATOM      3  N   UNL     1       0.791   8.230  21.343  0.00  0.00    +0.000 N 
ATOM      4  C   UNL     1       0.105   9.371  21.649  0.00  0.00    +0.000 A 
ATOM      5  N   UNL     1      -0.277  10.338  20.861  0.00  0.00    +0.000 NA
ATOM      6  C   UNL     1      -0.897  11.333  21.597  0.00  0.00    +0.000 A 
ATOM      7  C   UNL     1      -0.983  11.071  22.953  0.00  0.00    +0.000 A 
ATOM      8  S   UNL     1      -0.313   9.527  23.295  0.00  0.00    +0.000 S 
ATOM      9  H   UNL     1       0.927   7.569  22.090  0.00  0.00    +0.000 HD
ENDROOT
BRANCH   2  10
ATOM     10  C   UNL     1       2.160   6.810  19.952  0.00  0.00    +0.000 A 
ATOM     11  C   UNL     1       1.793   5.654  20.630  0.00  0.00    +0.000 A 
ATOM     12  C   UNL     1       2.480   4.481  20.351  0.00  0.00    +0.000 A 
ATOM     13  F   UNL     1       2.133   3.355  20.988  0.00  0.00    +0.000 F 
ATOM     14  C   UNL     1       3.523   4.447  19.423  0.00  0.00    +0.000 A 
ATOM     15  C   UNL     1       3.923   5.600  18.738  0.00  0.00    +0.000 A 
ATOM     16  C   UNL     1       3.208   6.773  19.015  0.00  0.00    +0.000 A 
BRANCH  15  17
ATOM     17  N   UNL     1       4.958   5.595  17.830  0.00  0.00    +0.000 N 
ATOM     18  C   UNL     1       5.721   4.379  17.492  0.00  0.00    +0.000 C 
ATOM     19  C   UNL     1       7.221   4.655  17.646  0.00  0.00    +0.000 C 
ATOM     20  O   UNL     1       7.626   5.775  16.836  0.00  0.00    +0.000 OA
ATOM     21  C   UNL     1       6.910   6.957  17.229  0.00  0.00    +0.000 C 
ATOM     22  C   UNL     1       5.385   6.787  17.082  0.00  0.00    +0.000 C 
ENDBRANCH  15  17
ENDBRANCH   2  10
BRANCH   6  23
ATOM     23  C   UNL     1      -1.414  12.532  20.860  0.00  0.00    +0.000 C 
BRANCH  23  24
ATOM     24  C   UNL     1      -2.932  12.680  20.908  0.00  0.00    +0.000 C 
BRANCH  24  25
ATOM     25  O   UNL     1      -3.431  12.993  19.611  0.00  0.00    +0.000 OA
BRANCH  25  26
ATOM     26  C   UNL     1      -4.319  11.994  19.117  0.00  0.00    +0.000 C 
BRANCH  26  27
ATOM     27  C   UNL     1      -3.736  11.273  17.926  0.00  0.00    +0.000 A 
ATOM     28  C   UNL     1      -2.578  10.487  18.016  0.00  0.00    +0.000 A 
ATOM     29  C   UNL     1      -2.058   9.852  16.887  0.00  0.00    +0.000 A 
ATOM     30  C   UNL     1      -2.690   9.993  15.653  0.00  0.00    +0.000 A 
ATOM     31  C   UNL     1      -3.846  10.763  15.550  0.00  0.00    +0.000 A 
ATOM     32  C   UNL     1      -4.368  11.398  16.679  0.00  0.00    +0.000 A 
ENDBRANCH  26  27
ENDBRANCH  25  26
ENDBRANCH  24  25
ENDBRANCH  23  24
ENDBRANCH   6  23
TORSDOF 7
ENDMDL
MODEL 2
REMARK VINA RESULT:      -8.3      2.373      3.401
REMARK  Name = 
REMARK  7 active torsions:
REMARK  status: ('A' for Active; 'I' for Inactive)
REMARK    1  A    between atoms: C_2  and  C_19
REMARK    2  A    between atoms: C_6  and  C_7
REMARK    3  A    between atoms: C_7  and  C_8
REMARK    4  A    between atoms: C_8  and  O_9
REMARK    5  A    between atoms: O_9  and  C_10
REMARK    6  A    between atoms: C_10  and  C_11
REMARK    7  A    between atoms: C_24  and  N_25
REMARK                            x       y       z     vdW  Elec       q    Type
REMARK                         _______ _______ _______ _____ _____    ______ ____
ROOT
ATOM      1  O   UNL     1       1.993   9.813  17.488  0.00  0.00    +0.000 OA
ATOM      2  C   UNL     1       2.040   8.884  18.285  0.00  0.00    +0.000 C 
ATOM      3  N   UNL     1       1.532   8.851  19.564  0.00  0.00    +0.000 N 
ATOM      4  C   UNL     1       0.827   9.908  20.066  0.00  0.00    +0.000 A 
ATOM      5  N   UNL     1       0.294  10.917  19.433  0.00  0.00    +0.000 NA
ATOM      6  C   UNL     1      -0.283  11.792  20.337  0.00  0.00    +0.000 A 
ATOM      7  C   UNL     1      -0.183  11.397  21.659  0.00  0.00    +0.000 A 
ATOM      8  S   UNL     1       0.613   9.877  21.757  0.00  0.00    +0.000 S 
ATOM      9  H   UNL     1       1.799   8.133  20.217  0.00  0.00    +0.000 HD
ENDROOT
BRANCH   2  10
ATOM     10  C   UNL     1       2.793   7.668  17.879  0.00  0.00    +0.000 A 
ATOM     11  C   UNL     1       4.026   7.736  17.241  0.00  0.00    +0.000 A 
ATOM     12  C   UNL     1       4.680   6.548  16.947  0.00  0.00    +0.000 A 
ATOM     13  F   UNL     1       5.874   6.595  16.342  0.00  0.00    +0.000 F 
ATOM     14  C   UNL     1       4.124   5.307  17.267  0.00  0.00    +0.000 A 
ATOM     15  C   UNL     1       2.877   5.211  17.895  0.00  0.00    +0.000 A 
ATOM     16  C   UNL     1       2.237   6.418  18.204  0.00  0.00    +0.000 A 
BRANCH  15  17
ATOM     17  N   UNL     1       2.302   3.999  18.207  0.00  0.00    +0.000 N 
ATOM     18  C   UNL     1       1.235   3.854  19.212  0.00  0.00    +0.000 C 
ATOM     19  C   UNL     1       1.622   2.763  20.218  0.00  0.00    +0.000 C 
ATOM     20  O   UNL     1       1.892   1.517  19.550  0.00  0.00    +0.000 OA
ATOM     21  C   UNL     1       2.976   1.675  18.620  0.00  0.00    +0.000 C 
ATOM     22  C   UNL     1       2.668   2.737  17.547  0.00  0.00    +0.000 C 
ENDBRANCH  15  17
ENDBRANCH   2  10
BRANCH   6  23
ATOM     23  C   UNL     1      -0.956  13.017  19.795  0.00  0.00    +0.000 C 
BRANCH  23  24
ATOM     24  C   UNL     1      -2.411  13.168  20.231  0.00  0.00    +0.000 C 
BRANCH  24  25
ATOM     25  O   UNL     1      -3.102  11.935  20.051  0.00  0.00    +0.000 OA
BRANCH  25  26
ATOM     26  C   UNL     1      -4.099  12.016  19.037  0.00  0.00    +0.000 C 
BRANCH  26  27
ATOM     27  C   UNL     1      -3.676  11.290  17.784  0.00  0.00    +0.000 A 
ATOM     28  C   UNL     1      -4.246  11.558  16.531  0.00  0.00    +0.000 A 
ATOM     29  C   UNL     1      -3.842  10.849  15.398  0.00  0.00    +0.000 A 
ATOM     30  C   UNL     1      -2.863   9.865  15.502  0.00  0.00    +0.000 A 
ATOM     31  C   UNL     1      -2.280   9.593  16.738  0.00  0.00    +0.000 A 
ATOM     32  C   UNL     1      -2.683  10.302  17.872  0.00  0.00    +0.000 A 
ENDBRANCH  26  27
ENDBRANCH  25  26
ENDBRANCH  24  25
ENDBRANCH  23  24
ENDBRANCH   6  23
TORSDOF 7
ENDMDL
MODEL 3
REMARK VINA RESULT:      -8.1      3.187      9.143
REMARK  Name = 
REMARK  7 active torsions:
REMARK  status: ('A' for Active; 'I' for Inactive)
REMARK    1  A    between atoms: C_2  and  C_19
REMARK    2  A    between atoms: C_6  and  C_7
REMARK    3  A    between atoms: C_7  and  C_8
REMARK    4  A    between atoms: C_8  and  O_9
REMARK    5  A    between atoms: O_9  and  C_10
REMARK    6  A    between atoms: C_10  and  C_11
REMARK    7  A    between atoms: C_24  and  N_25
REMARK                            x       y       z     vdW  Elec       q    Type
REMARK                         _______ _______ _______ _____ _____    ______ ____
ROOT
ATOM      1  O   UNL     1       2.188   7.417  18.679  0.00  0.00    +0.000 OA
ATOM      2  C   UNL     1       1.861   7.373  19.859  0.00  0.00    +0.000 C 
ATOM      3  N   UNL     1       1.902   6.283  20.699  0.00  0.00    +0.000 N 
ATOM      4  C   UNL     1       2.405   5.087  20.273  0.00  0.00    +0.000 A 
ATOM      5  N   UNL     1       3.134   4.829  19.222  0.00  0.00    +0.000 NA
ATOM      6  C   UNL     1       3.378   3.469  19.136  0.00  0.00    +0.000 A 
ATOM      7  C   UNL     1       2.828   2.724  20.165  0.00  0.00    +0.000 A 
ATOM      8  S   UNL     1       2.029   3.762  21.278  0.00  0.00    +0.000 S 
ATOM      9  H   UNL     1       1.420   6.283  21.583  0.00  0.00    +0.000 HD
ENDROOT
BRANCH   2  10
ATOM     10  C   UNL     1       1.278   8.602  20.457  0.00  0.00    +0.000 A 
ATOM     11  C   UNL     1       0.734   8.620  21.736  0.00  0.00    +0.000 A 
ATOM     12  C   UNL     1       0.260   9.827  22.232  0.00  0.00    +0.000 A 
ATOM     13  F   UNL     1      -0.258   9.865  23.466  0.00  0.00    +0.000 F 
ATOM     14  C   UNL     1       0.309  11.000  21.475  0.00  0.00    +0.000 A 
ATOM     15  C   UNL     1       0.837  11.005  20.179  0.00  0.00    +0.000 A 
ATOM     16  C   UNL     1       1.330   9.785  19.698  0.00  0.00    +0.000 A 
BRANCH  15  17
ATOM     17  N   UNL     1       0.883  12.146  19.408  0.00  0.00    +0.000 N 
ATOM     18  C   UNL     1       2.092  12.978  19.280  0.00  0.00    +0.000 C 
ATOM     19  C   UNL     1       1.745  14.439  19.589  0.00  0.00    +0.000 C 
ATOM     20  O   UNL     1       0.686  14.910  18.735  0.00  0.00    +0.000 OA
ATOM     21  C   UNL     1      -0.497  14.118  18.926  0.00  0.00    +0.000 C 
ATOM     22  C   UNL     1      -0.254  12.629  18.611  0.00  0.00    +0.000 C 
ENDBRANCH  15  17
ENDBRANCH   2  10
BRANCH   6  23
ATOM     23  C   UNL     1       4.210   2.976  17.991  0.00  0.00    +0.000 C 
BRANCH  23  24
ATOM     24  C   UNL     1       4.298   3.956  16.824  0.00  0.00    +0.000 C 
BRANCH  24  25
ATOM     25  O   UNL     1       5.388   3.605  15.977  0.00  0.00    +0.000 OA
BRANCH  25  26
ATOM     26  C   UNL     1       6.104   4.747  15.516  0.00  0.00    +0.000 C 
BRANCH  26  27
ATOM     27  C   UNL     1       6.787   5.470  16.652  0.00  0.00    +0.000 A 
ATOM     28  C   UNL     1       6.868   6.868  16.712  0.00  0.00    +0.000 A 
ATOM     29  C   UNL     1       7.527   7.499  17.769  0.00  0.00    +0.000 A 
ATOM     30  C   UNL     1       8.110   6.740  18.781  0.00  0.00    +0.000 A 
ATOM     31  C   UNL     1       8.029   5.350  18.741  0.00  0.00    +0.000 A 
ATOM     32  C   UNL     1       7.370   4.718  17.684  0.00  0.00    +0.000 A 
ENDBRANCH  26  27
ENDBRANCH  25  26
ENDBRANCH  24  25
ENDBRANCH  23  24
ENDBRANCH   6  23
TORSDOF 7
ENDMDL
MODEL 4
REMARK VINA RESULT:      -8.1      0.940      1.450
REMARK  Name = 
REMARK  7 active torsions:
REMARK  status: ('A' for Active; 'I' for Inactive)
REMARK    1  A    between atoms: C_2  and  C_19
REMARK    2  A    between atoms: C_6  and  C_7
REMARK    3  A    between atoms: C_7  and  C_8
REMARK    4  A    between atoms: C_8  and  O_9
REMARK    5  A    between atoms: O_9  and  C_10
REMARK    6  A    between atoms: C_10  and  C_11
REMARK    7  A    between atoms: C_24  and  N_25
REMARK                            x       y       z     vdW  Elec       q    Type
REMARK                         _______ _______ _______ _____ _____    ______ ____
ROOT
ATOM      1  O   UNL     1       2.226   8.344  18.722  0.00  0.00    +0.000 OA
ATOM      2  C   UNL     1       2.070   7.558  19.648  0.00  0.00    +0.000 C 
ATOM      3  N   UNL     1       1.417   7.785  20.839  0.00  0.00    +0.000 N 
ATOM      4  C   UNL     1       0.789   8.974  21.079  0.00  0.00    +0.000 A 
ATOM      5  N   UNL     1       0.456   9.913  20.237  0.00  0.00    +0.000 NA
ATOM      6  C   UNL     1      -0.114  10.978  20.914  0.00  0.00    +0.000 A 
ATOM      7  C   UNL     1      -0.215  10.796  22.282  0.00  0.00    +0.000 A 
ATOM      8  S   UNL     1       0.378   9.241  22.712  0.00  0.00    +0.000 S 
ATOM      9  H   UNL     1       1.519   7.160  21.622  0.00  0.00    +0.000 HD
ENDROOT
BRANCH   2  10
ATOM     10  C   UNL     1       2.715   6.224  19.533  0.00  0.00    +0.000 A 
ATOM     11  C   UNL     1       2.254   5.113  20.230  0.00  0.00    +0.000 A 
ATOM     12  C   UNL     1       2.886   3.896  20.021  0.00  0.00    +0.000 A 
ATOM     13  F   UNL     1       2.449   2.813  20.676  0.00  0.00    +0.000 F 
ATOM     14  C   UNL     1       3.966   3.774  19.144  0.00  0.00    +0.000 A 
ATOM     15  C   UNL     1       4.460   4.879  18.442  0.00  0.00    +0.000 A 
ATOM     16  C   UNL     1       3.800   6.097  18.648  0.00  0.00    +0.000 A 
BRANCH  15  17
ATOM     17  N   UNL     1       5.533   4.786  17.583  0.00  0.00    +0.000 N 
ATOM     18  C   UNL     1       6.867   5.320  17.909  0.00  0.00    +0.000 C 
ATOM     19  C   UNL     1       7.350   6.225  16.769  0.00  0.00    +0.000 C 
ATOM     20  O   UNL     1       7.356   5.518  15.515  0.00  0.00    +0.000 OA
ATOM     21  C   UNL     1       6.031   5.062  15.195  0.00  0.00    +0.000 C 
ATOM     22  C   UNL     1       5.467   4.118  16.275  0.00  0.00    +0.000 C 
ENDBRANCH  15  17
ENDBRANCH   2  10
BRANCH   6  23
ATOM     23  C   UNL     1      -0.570  12.158  20.110  0.00  0.00    +0.000 C 
BRANCH  23  24
ATOM     24  C   UNL     1      -1.850  12.805  20.632  0.00  0.00    +0.000 C 
BRANCH  24  25
ATOM     25  O   UNL     1      -2.722  13.100  19.547  0.00  0.00    +0.000 OA
BRANCH  25  26
ATOM     26  C   UNL     1      -3.700  12.083  19.346  0.00  0.00    +0.000 C 
BRANCH  26  27
ATOM     27  C   UNL     1      -3.488  11.360  18.038  0.00  0.00    +0.000 A 
ATOM     28  C   UNL     1      -4.227  11.660  16.885  0.00  0.00    +0.000 A 
ATOM     29  C   UNL     1      -4.016  10.954  15.699  0.00  0.00    +0.000 A 
ATOM     30  C   UNL     1      -3.062   9.940  15.650  0.00  0.00    +0.000 A 
ATOM     31  C   UNL     1      -2.312   9.637  16.785  0.00  0.00    +0.000 A 
ATOM     32  C   UNL     1      -2.522  10.343  17.971  0.00  0.00    +0.000 A 
ENDBRANCH  26  27
ENDBRANCH  25  26
ENDBRANCH  24  25
ENDBRANCH  23  24
ENDBRANCH   6  23
TORSDOF 7
ENDMDL
MODEL 5
REMARK VINA RESULT:      -8.1      3.202      9.289
REMARK  Name = 
REMARK  7 active torsions:
REMARK  status: ('A' for Active; 'I' for Inactive)
REMARK    1  A    between atoms: C_2  and  C_19
REMARK    2  A    between atoms: C_6  and  C_7
REMARK    3  A    between atoms: C_7  and  C_8
REMARK    4  A    between atoms: C_8  and  O_9
REMARK    5  A    between atoms: O_9  and  C_10
REMARK    6  A    between atoms: C_10  and  C_11
REMARK    7  A    between atoms: C_24  and  N_25
REMARK                            x       y       z     vdW  Elec       q    Type
REMARK                         _______ _______ _______ _____ _____    ______ ____
ROOT
ATOM      1  O   UNL     1       2.517   7.742  19.123  0.00  0.00    +0.000 OA
ATOM      2  C   UNL     1       1.898   7.569  20.166  0.00  0.00    +0.000 C 
ATOM      3  N   UNL     1       1.774   6.400  20.881  0.00  0.00    +0.000 N 
ATOM      4  C   UNL     1       2.429   5.266  20.493  0.00  0.00    +0.000 A 
ATOM      5  N   UNL     1       3.417   5.134  19.651  0.00  0.00    +0.000 NA
ATOM      6  C   UNL     1       3.742   3.796  19.506  0.00  0.00    +0.000 A 
ATOM      7  C   UNL     1       2.982   2.937  20.279  0.00  0.00    +0.000 A 
ATOM      8  S   UNL     1       1.871   3.835  21.235  0.00  0.00    +0.000 S 
ATOM      9  H   UNL     1       1.079   6.297  21.604  0.00  0.00    +0.000 HD
ENDROOT
BRANCH   2  10
ATOM     10  C   UNL     1       1.120   8.716  20.702  0.00  0.00    +0.000 A 
ATOM     11  C   UNL     1       0.544   8.697  21.967  0.00  0.00    +0.000 A 
ATOM     12  C   UNL     1      -0.120   9.834  22.404  0.00  0.00    +0.000 A 
ATOM     13  F   UNL     1      -0.672   9.838  23.624  0.00  0.00    +0.000 F 
ATOM     14  C   UNL     1      -0.227  10.973  21.603  0.00  0.00    +0.000 A 
ATOM     15  C   UNL     1       0.329  11.013  20.319  0.00  0.00    +0.000 A 
ATOM     16  C   UNL     1       1.014   9.865  19.899  0.00  0.00    +0.000 A 
BRANCH  15  17
ATOM     17  N   UNL     1       0.224  12.119  19.505  0.00  0.00    +0.000 N 
ATOM     18  C   UNL     1       1.337  12.611  18.675  0.00  0.00    +0.000 C 
ATOM     19  C   UNL     1       1.555  14.105  18.941  0.00  0.00    +0.000 C 
ATOM     20  O   UNL     1       0.349  14.853  18.705  0.00  0.00    +0.000 OA
ATOM     21  C   UNL     1      -0.701  14.392  19.570  0.00  0.00    +0.000 C 
ATOM     22  C   UNL     1      -1.014  12.898  19.356  0.00  0.00    +0.000 C 
ENDBRANCH  15  17
ENDBRANCH   2  10
BRANCH   6  23
ATOM     23  C   UNL     1       4.865   3.444  18.579  0.00  0.00    +0.000 C 
BRANCH  23  24
ATOM     24  C   UNL     1       5.641   4.652  18.059  0.00  0.00    +0.000 C 
BRANCH  24  25
ATOM     25  O   UNL     1       6.343   4.303  16.870  0.00  0.00    +0.000 OA
BRANCH  25  26
ATOM     26  C   UNL     1       6.345   5.359  15.914  0.00  0.00    +0.000 C 
BRANCH  26  27
ATOM     27  C   UNL     1       6.477   4.833  14.505  0.00  0.00    +0.000 A 
ATOM     28  C   UNL     1       5.580   3.901  13.964  0.00  0.00    +0.000 A 
ATOM     29  C   UNL     1       5.749   3.422  12.663  0.00  0.00    +0.000 A 
ATOM     30  C   UNL     1       6.815   3.869  11.887  0.00  0.00    +0.000 A 
ATOM     31  C   UNL     1       7.709   4.802  12.407  0.00  0.00    +0.000 A 
ATOM     32  C   UNL     1       7.541   5.283  13.708  0.00  0.00    +0.000 A 
ENDBRANCH  26  27
ENDBRANCH  25  26
ENDBRANCH  24  25
ENDBRANCH  23  24
ENDBRANCH   6  23
TORSDOF 7
ENDMDL
MODEL 6
REMARK VINA RESULT:      -8.1      0.671      1.466
REMARK  Name = 
REMARK  7 active torsions:
REMARK  status: ('A' for Active; 'I' for Inactive)
REMARK    1  A    between atoms: C_2  and  C_19
REMARK    2  A    between atoms: C_6  and  C_7
REMARK    3  A    between atoms: C_7  and  C_8
REMARK    4  A    between atoms: C_8  and  O_9
REMARK    5  A    between atoms: O_9  and  C_10
REMARK    6  A    between atoms: C_10  and  C_11
REMARK    7  A    between atoms: C_24  and  N_25
REMARK                            x       y       z     vdW  Elec       q    Type
REMARK                         _______ _______ _______ _____ _____    ______ ____
ROOT
ATOM      1  O   UNL     1       1.761   8.988  19.175  0.00  0.00    +0.000 OA
ATOM      2  C   UNL     1       1.558   8.145  20.040  0.00  0.00    +0.000 C 
ATOM      3  N   UNL     1       0.844   8.300  21.207  0.00  0.00    +0.000 N 
ATOM      4  C   UNL     1       0.205   9.474  21.489  0.00  0.00    +0.000 A 
ATOM      5  N   UNL     1      -0.084  10.466  20.691  0.00  0.00    +0.000 NA
ATOM      6  C   UNL     1      -0.687  11.488  21.404  0.00  0.00    +0.000 A 
ATOM      7  C   UNL     1      -0.858  11.221  22.751  0.00  0.00    +0.000 A 
ATOM      8  S   UNL     1      -0.290   9.641  23.112  0.00  0.00    +0.000 S 
ATOM      9  H   UNL     1       0.905   7.627  21.954  0.00  0.00    +0.000 HD
ENDROOT
BRANCH   2  10
ATOM     10  C   UNL     1       2.207   6.819  19.875  0.00  0.00    +0.000 A 
ATOM     11  C   UNL     1       1.804   5.700  20.595  0.00  0.00    +0.000 A 
ATOM     12  C   UNL     1       2.433   4.491  20.337  0.00  0.00    +0.000 A 
ATOM     13  F   UNL     1       2.051   3.400  21.014  0.00  0.00    +0.000 F 
ATOM     14  C   UNL     1       3.454   4.384  19.390  0.00  0.00    +0.000 A 
ATOM     15  C   UNL     1       3.889   5.498  18.663  0.00  0.00    +0.000 A 
ATOM     16  C   UNL     1       3.232   6.708  18.919  0.00  0.00    +0.000 A 
BRANCH  15  17
ATOM     17  N   UNL     1       4.904   5.420  17.735  0.00  0.00    +0.000 N 
ATOM     18  C   UNL     1       5.279   6.547  16.862  0.00  0.00    +0.000 C 
ATOM     19  C   UNL     1       5.299   6.081  15.401  0.00  0.00    +0.000 C 
ATOM     20  O   UNL     1       6.187   4.961  15.229  0.00  0.00    +0.000 OA
ATOM     21  C   UNL     1       5.762   3.858  16.046  0.00  0.00    +0.000 C 
ATOM     22  C   UNL     1       5.735   4.223  17.543  0.00  0.00    +0.000 C 
ENDBRANCH  15  17
ENDBRANCH   2  10
BRANCH   6  23
ATOM     23  C   UNL     1      -1.100  12.717  20.653  0.00  0.00    +0.000 C 
BRANCH  23  24
ATOM     24  C   UNL     1      -2.592  13.027  20.745  0.00  0.00    +0.000 C 
BRANCH  24  25
ATOM     25  O   UNL     1      -3.347  11.935  20.230  0.00  0.00    +0.000 OA
BRANCH  25  26
ATOM     26  C   UNL     1      -4.062  12.282  19.047  0.00  0.00    +0.000 C 
BRANCH  26  27
ATOM     27  C   UNL     1      -3.615  11.456  17.866  0.00  0.00    +0.000 A 
ATOM     28  C   UNL     1      -4.319  11.436  16.654  0.00  0.00    +0.000 A 
ATOM     29  C   UNL     1      -3.885  10.642  15.590  0.00  0.00    +0.000 A 
ATOM     30  C   UNL     1      -2.740   9.860  15.725  0.00  0.00    +0.000 A 
ATOM     31  C   UNL     1      -2.024   9.876  16.919  0.00  0.00    +0.000 A 
ATOM     32  C   UNL     1      -2.457  10.671  17.983  0.00  0.00    +0.000 A 
ENDBRANCH  26  27
ENDBRANCH  25  26
ENDBRANCH  24  25
ENDBRANCH  23  24
ENDBRANCH   6  23
TORSDOF 7
ENDMDL
MODEL 7
REMARK VINA RESULT:      -8.0      1.548      2.147
REMARK  Name = 
REMARK  7 active torsions:
REMARK  status: ('A' for Active; 'I' for Inactive)
REMARK    1  A    between atoms: C_2  and  C_19
REMARK    2  A    between atoms: C_6  and  C_7
REMARK    3  A    between atoms: C_7  and  C_8
REMARK    4  A    between atoms: C_8  and  O_9
REMARK    5  A    between atoms: O_9  and  C_10
REMARK    6  A    between atoms: C_10  and  C_11
REMARK    7  A    between atoms: C_24  and  N_25
REMARK                            x       y       z     vdW  Elec       q    Type
REMARK                         _______ _______ _______ _____ _____    ______ ____
ROOT
ATOM      1  O   UNL     1       1.765   8.266  18.896  0.00  0.00    +0.000 OA
ATOM      2  C   UNL     1       1.769   7.559  19.897  0.00  0.00    +0.000 C 
ATOM      3  N   UNL     1       1.217   7.844  21.125  0.00  0.00    +0.000 N 
ATOM      4  C   UNL     1       0.514   8.997  21.328  0.00  0.00    +0.000 A 
ATOM      5  N   UNL     1       0.021   9.826  20.449  0.00  0.00    +0.000 NA
ATOM      6  C   UNL     1      -0.570  10.901  21.090  0.00  0.00    +0.000 A 
ATOM      7  C   UNL     1      -0.522  10.840  22.472  0.00  0.00    +0.000 A 
ATOM      8  S   UNL     1       0.243   9.383  22.967  0.00  0.00    +0.000 S 
ATOM      9  H   UNL     1       1.449   7.304  21.943  0.00  0.00    +0.000 HD
ENDROOT
BRANCH   2  10
ATOM     10  C   UNL     1       2.513   6.274  19.828  0.00  0.00    +0.000 A 
ATOM     11  C   UNL     1       2.102   5.140  20.519  0.00  0.00    +0.000 A 
ATOM     12  C   UNL     1       2.830   3.970  20.353  0.00  0.00    +0.000 A 
ATOM     13  F   UNL     1       2.442   2.865  21.003  0.00  0.00    +0.000 F 
ATOM     14  C   UNL     1       3.954   3.918  19.526  0.00  0.00    +0.000 A 
ATOM     15  C   UNL     1       4.397   5.049  18.832  0.00  0.00    +0.000 A 
ATOM     16  C   UNL     1       3.642   6.218  18.993  0.00  0.00    +0.000 A 
BRANCH  15  17
ATOM     17  N   UNL     1       5.512   5.026  18.023  0.00  0.00    +0.000 N 
ATOM     18  C   UNL     1       6.809   5.595  18.429  0.00  0.00    +0.000 C 
ATOM     19  C   UNL     1       7.310   6.557  17.346  0.00  0.00    +0.000 C 
ATOM     20  O   UNL     1       7.399   5.897  16.070  0.00  0.00    +0.000 OA
ATOM     21  C   UNL     1       6.109   5.406  15.672  0.00  0.00    +0.000 C 
ATOM     22  C   UNL     1       5.531   4.404  16.690  0.00  0.00    +0.000 C 
ENDBRANCH  15  17
ENDBRANCH   2  10
BRANCH   6  23
ATOM     23  C   UNL     1      -1.203  11.963  20.242  0.00  0.00    +0.000 C 
BRANCH  23  24
ATOM     24  C   UNL     1      -1.818  13.109  21.041  0.00  0.00    +0.000 C 
BRANCH  24  25
ATOM     25  O   UNL     1      -3.159  12.788  21.396  0.00  0.00    +0.000 OA
BRANCH  25  26
ATOM     26  C   UNL     1      -4.111  13.441  20.560  0.00  0.00    +0.000 C 
BRANCH  26  27
ATOM     27  C   UNL     1      -5.033  12.451  19.891  0.00  0.00    +0.000 A 
ATOM     28  C   UNL     1      -4.821  11.990  18.584  0.00  0.00    +0.000 A 
ATOM     29  C   UNL     1      -5.709  11.090  17.993  0.00  0.00    +0.000 A 
ATOM     30  C   UNL     1      -6.820  10.637  18.701  0.00  0.00    +0.000 A 
ATOM     31  C   UNL     1      -7.040  11.078  20.004  0.00  0.00    +0.000 A 
ATOM     32  C   UNL     1      -6.152  11.979  20.597  0.00  0.00    +0.000 A 
ENDBRANCH  26  27
ENDBRANCH  25  26
ENDBRANCH  24  25
ENDBRANCH  23  24
ENDBRANCH   6  23
TORSDOF 7
ENDMDL
MODEL 8
REMARK VINA RESULT:      -8.0      3.121      9.160
REMARK  Name = 
REMARK  7 active torsions:
REMARK  status: ('A' for Active; 'I' for Inactive)
REMARK    1  A    between atoms: C_2  and  C_19
REMARK    2  A    between atoms: C_6  and  C_7
REMARK    3  A    between atoms: C_7  and  C_8
REMARK    4  A    between atoms: C_8  and  O_9
REMARK    5  A    between atoms: O_9  and  C_10
REMARK    6  A    between atoms: C_10  and  C_11
REMARK    7  A    between atoms: C_24  and  N_25
REMARK                            x       y       z     vdW  Elec       q    Type
REMARK                         _______ _______ _______ _____ _____    ______ ____
ROOT
ATOM      1  O   UNL     1       2.300   7.692  19.083  0.00  0.00    +0.000 OA
ATOM      2  C   UNL     1       1.807   7.510  20.189  0.00  0.00    +0.000 C 
ATOM      3  N   UNL     1       1.723   6.324  20.884  0.00  0.00    +0.000 N 
ATOM      4  C   UNL     1       2.280   5.180  20.388  0.00  0.00    +0.000 A 
ATOM      5  N   UNL     1       3.152   5.038  19.428  0.00  0.00    +0.000 NA
ATOM      6  C   UNL     1       3.402   3.694  19.209  0.00  0.00    +0.000 A 
ATOM      7  C   UNL     1       2.707   2.840  20.047  0.00  0.00    +0.000 A 
ATOM      8  S   UNL     1       1.759   3.748  21.155  0.00  0.00    +0.000 S 
ATOM      9  H   UNL     1       1.119   6.225  21.683  0.00  0.00    +0.000 HD
ENDROOT
BRANCH   2  10
ATOM     10  C   UNL     1       1.147   8.668  20.847  0.00  0.00    +0.000 A 
ATOM     11  C   UNL     1       0.553   8.571  22.100  0.00  0.00    +0.000 A 
ATOM     12  C   UNL     1       0.007   9.718  22.658  0.00  0.00    +0.000 A 
ATOM     13  F   UNL     1      -0.560   9.646  23.870  0.00  0.00    +0.000 F 
ATOM     14  C   UNL     1       0.034  10.943  21.988  0.00  0.00    +0.000 A 
ATOM     15  C   UNL     1       0.611  11.064  20.719  0.00  0.00    +0.000 A 
ATOM     16  C   UNL     1       1.176   9.903  20.176  0.00  0.00    +0.000 A 
BRANCH  15  17
ATOM     17  N   UNL     1       0.636  12.258  20.033  0.00  0.00    +0.000 N 
ATOM     18  C   UNL     1       0.793  13.562  20.700  0.00  0.00    +0.000 C 
ATOM     19  C   UNL     1      -0.325  14.509  20.248  0.00  0.00    +0.000 C 
ATOM     20  O   UNL     1      -0.337  14.646  18.815  0.00  0.00    +0.000 OA
ATOM     21  C   UNL     1      -0.552  13.369  18.194  0.00  0.00    +0.000 C 
ATOM     22  C   UNL     1       0.543  12.351  18.568  0.00  0.00    +0.000 C 
ENDBRANCH  15  17
ENDBRANCH   2  10
BRANCH   6  23
ATOM     23  C   UNL     1       4.389   3.329  18.142  0.00  0.00    +0.000 C 
BRANCH  23  24
ATOM     24  C   UNL     1       3.943   3.707  16.731  0.00  0.00    +0.000 C 
BRANCH  24  25
ATOM     25  O   UNL     1       4.845   4.659  16.176  0.00  0.00    +0.000 OA
BRANCH  25  26
ATOM     26  C   UNL     1       6.208   4.309  16.400  0.00  0.00    +0.000 C 
BRANCH  26  27
ATOM     27  C   UNL     1       6.927   5.365  17.204  0.00  0.00    +0.000 A 
ATOM     28  C   UNL     1       7.536   5.087  18.436  0.00  0.00    +0.000 A 
ATOM     29  C   UNL     1       8.174   6.096  19.159  0.00  0.00    +0.000 A 
ATOM     30  C   UNL     1       8.214   7.396  18.659  0.00  0.00    +0.000 A 
ATOM     31  C   UNL     1       7.622   7.686  17.432  0.00  0.00    +0.000 A 
ATOM     32  C   UNL     1       6.984   6.677  16.707  0.00  0.00    +0.000 A 
ENDBRANCH  26  27
ENDBRANCH  25  26
ENDBRANCH  24  25
ENDBRANCH  23  24
ENDBRANCH   6  23
TORSDOF 7
ENDMDL
MODEL 9
REMARK VINA RESULT:      -8.0      3.099      9.539
REMARK  Name = 
REMARK  7 active torsions:
REMARK  status: ('A' for Active; 'I' for Inactive)
REMARK    1  A    between atoms: C_2  and  C_19
REMARK    2  A    between atoms: C_6  and  C_7
REMARK    3  A    between atoms: C_7  and  C_8
REMARK    4  A    between atoms: C_8  and  O_9
REMARK    5  A    between atoms: O_9  and  C_10
REMARK    6  A    between atoms: C_10  and  C_11
REMARK    7  A    between atoms: C_24  and  N_25
REMARK                            x       y       z     vdW  Elec       q    Type
REMARK                         _______ _______ _______ _____ _____    ______ ____
ROOT
ATOM      1  O   UNL     1       1.900   8.708  18.701  0.00  0.00    +0.000 OA
ATOM      2  C   UNL     1       1.606   8.358  19.837  0.00  0.00    +0.000 C 
ATOM      3  N   UNL     1       1.859   7.142  20.430  0.00  0.00    +0.000 N 
ATOM      4  C   UNL     1       2.565   6.174  19.775  0.00  0.00    +0.000 A 
ATOM      5  N   UNL     1       3.311   6.280  18.709  0.00  0.00    +0.000 NA
ATOM      6  C   UNL     1       3.798   5.036  18.346  0.00  0.00    +0.000 A 
ATOM      7  C   UNL     1       3.410   4.004  19.182  0.00  0.00    +0.000 A 
ATOM      8  S   UNL     1       2.453   4.621  20.469  0.00  0.00    +0.000 S 
ATOM      9  H   UNL     1       1.399   6.868  21.284  0.00  0.00    +0.000 HD
ENDROOT
BRANCH   2  10
ATOM     10  C   UNL     1       0.818   9.307  20.666  0.00  0.00    +0.000 A 
ATOM     11  C   UNL     1       0.528   9.061  22.003  0.00  0.00    +0.000 A 
ATOM     12  C   UNL     1      -0.169  10.029  22.714  0.00  0.00    +0.000 A 
ATOM     13  F   UNL     1      -0.449   9.813  24.006  0.00  0.00    +0.000 F 
ATOM     14  C   UNL     1      -0.585  11.220  22.114  0.00  0.00    +0.000 A 
ATOM     15  C   UNL     1      -0.319  11.485  20.766  0.00  0.00    +0.000 A 
ATOM     16  C   UNL     1       0.402  10.509  20.066  0.00  0.00    +0.000 A 
BRANCH  15  17
ATOM     17  N   UNL     1      -0.732  12.645  20.149  0.00  0.00    +0.000 N 
ATOM     18  C   UNL     1      -0.069  13.197  18.954  0.00  0.00    +0.000 C 
ATOM     19  C   UNL     1       0.285  14.669  19.197  0.00  0.00    +0.000 C 
ATOM     20  O   UNL     1      -0.886  15.429  19.550  0.00  0.00    +0.000 OA
ATOM     21  C   UNL     1      -1.476  14.906  20.751  0.00  0.00    +0.000 C 
ATOM     22  C   UNL     1      -1.892  13.430  20.596  0.00  0.00    +0.000 C 
ENDBRANCH  15  17
ENDBRANCH   2  10
BRANCH   6  23
ATOM     23  C   UNL     1       4.687   4.955  17.142  0.00  0.00    +0.000 C 
BRANCH  23  24
ATOM     24  C   UNL     1       4.965   6.305  16.486  0.00  0.00    +0.000 C 
BRANCH  24  25
ATOM     25  O   UNL     1       6.323   6.369  16.063  0.00  0.00    +0.000 OA
BRANCH  25  26
ATOM     26  C   UNL     1       6.886   5.077  15.852  0.00  0.00    +0.000 C 
BRANCH  26  27
ATOM     27  C   UNL     1       6.860   4.692  14.393  0.00  0.00    +0.000 A 
ATOM     28  C   UNL     1       6.009   3.696  13.893  0.00  0.00    +0.000 A 
ATOM     29  C   UNL     1       6.029   3.354  12.540  0.00  0.00    +0.000 A 
ATOM     30  C   UNL     1       6.899   4.005  11.668  0.00  0.00    +0.000 A 
ATOM     31  C   UNL     1       7.744   5.003  12.147  0.00  0.00    +0.000 A 
ATOM     32  C   UNL     1       7.724   5.347  13.501  0.00  0.00    +0.000 A 
ENDBRANCH  26  27
ENDBRANCH  25  26
ENDBRANCH  24  25
ENDBRANCH  23  24
ENDBRANCH   6  23
TORSDOF 7
ENDMDL
