MODEL 1
REMARK VINA RESULT:      -7.6      0.000      0.000
REMARK  Name = 
REMARK  7 active torsions:
REMARK  status: ('A' for Active; 'I' for Inactive)
REMARK    1  A    between atoms: C_1  and  C_2
REMARK    2  A    between atoms: C_5  and  C_6
REMARK    3  A    between atoms: C_7  and  C_8
REMARK    4  A    between atoms: C_8  and  C_9
REMARK    5  A    between atoms: C_9  and  C_10
REMARK    6  A    between atoms: C_10  and  N_11
REMARK    7  A    between atoms: N_14  and  C_15
REMARK                            x       y       z     vdW  Elec       q    Type
REMARK                         _______ _______ _______ _____ _____    ______ ____
ROOT
ATOM      1  N   UNL     1       3.941   4.914  19.286  0.00  0.00    +0.000 N 
ATOM      2  C   UNL     1       2.769   5.631  19.392  0.00  0.00    +0.000 C 
ATOM      3  O   UNL     1       1.691   5.153  19.070  0.00  0.00    +0.000 OA
ATOM      4  N   UNL     1       2.992   6.920  19.835  0.00  0.00    +0.000 N 
ATOM      5  H   UNL     1       4.683   5.167  19.924  0.00  0.00    +0.000 HD
ATOM      6  H   UNL     1       3.926   7.272  19.688  0.00  0.00    +0.000 HD
ENDROOT
BRANCH   4   7
ATOM      7  C   UNL     1       1.970   7.879  20.031  0.00  0.00    +0.000 A 
ATOM      8  C   UNL     1       1.573   8.765  19.014  0.00  0.00    +0.000 A 
ATOM      9  C   UNL     1       0.655   9.786  19.262  0.00  0.00    +0.000 A 
ATOM     10  C   UNL     1       0.133   9.901  20.535  0.00  0.00    +0.000 A 
ATOM     11  C   UNL     1       0.466   8.995  21.530  0.00  0.00    +0.000 A 
ATOM     12  C   UNL     1       1.368   7.964  21.294  0.00  0.00    +0.000 A 
ATOM     13  C   UNL     1      -0.242   9.366  22.780  0.00  0.00    +0.000 C 
ATOM     14  O   UNL     1      -0.979  10.570  22.464  0.00  0.00    +0.000 OA
ATOM     15  C   UNL     1      -0.783  10.930  21.078  0.00  0.00    +0.000 C 
ENDBRANCH   4   7
BRANCH   1  16
ATOM     16  C   UNL     1       3.892   3.540  18.812  0.00  0.00    +0.000 C 
BRANCH  16  17
ATOM     17  C   UNL     1       4.330   3.414  17.351  0.00  0.00    +0.000 C 
BRANCH  17  18
ATOM     18  C   UNL     1       4.348   4.774  16.652  0.00  0.00    +0.000 C 
BRANCH  18  25
ATOM     19  C   UNL     1       5.570   3.863  13.764  0.00  0.00    +0.000 C 
ATOM     20  C   UNL     1       6.198   4.717  14.798  0.00  0.00    +0.000 A 
ATOM     21  N   UNL     1       7.414   5.234  14.590  0.00  0.00    +0.000 NA
ATOM     22  O   UNL     1       7.709   5.972  15.718  0.00  0.00    +0.000 OA
ATOM     23  C   UNL     1       6.673   5.899  16.594  0.00  0.00    +0.000 A 
ATOM     24  C   UNL     1       6.834   6.648  17.853  0.00  0.00    +0.000 C 
ATOM     25  C   UNL     1       5.673   5.110  16.062  0.00  0.00    +0.000 A 
ENDBRANCH  18  25
ENDBRANCH  17  18
ENDBRANCH  16  17
ENDBRANCH   1  16
TORSDOF 5
ENDMDL
MODEL 2
REMARK VINA RESULT:      -7.6      0.972      1.090
REMARK  Name = 
REMARK  7 active torsions:
REMARK  status: ('A' for Active; 'I' for Inactive)
REMARK    1  A    between atoms: C_1  and  C_2
REMARK    2  A    between atoms: C_5  and  C_6
REMARK    3  A    between atoms: C_7  and  C_8
REMARK    4  A    between atoms: C_8  and  C_9
REMARK    5  A    between atoms: C_9  and  C_10
REMARK    6  A    between atoms: C_10  and  N_11
REMARK    7  A    between atoms: N_14  and  C_15
REMARK                            x       y       z     vdW  Elec       q    Type
REMARK                         _______ _______ _______ _____ _____    ______ ____
ROOT
ATOM      1  N   UNL     1       3.432   6.226  18.167  0.00  0.00    +0.000 N 
ATOM      2  C   UNL     1       2.526   6.744  19.066  0.00  0.00    +0.000 C 
ATOM      3  O   UNL     1       2.013   6.052  19.935  0.00  0.00    +0.000 OA
ATOM      4  N   UNL     1       2.253   8.074  18.815  0.00  0.00    +0.000 N 
ATOM      5  H   UNL     1       4.107   6.873  17.785  0.00  0.00    +0.000 HD
ATOM      6  H   UNL     1       2.442   8.383  17.873  0.00  0.00    +0.000 HD
ENDROOT
BRANCH   4   7
ATOM      7  C   UNL     1       1.355   8.858  19.577  0.00  0.00    +0.000 A 
ATOM      8  C   UNL     1       0.602   9.899  19.006  0.00  0.00    +0.000 A 
ATOM      9  C   UNL     1      -0.182  10.742  19.794  0.00  0.00    +0.000 A 
ATOM     10  C   UNL     1      -0.211  10.523  21.156  0.00  0.00    +0.000 A 
ATOM     11  C   UNL     1       0.475   9.461  21.725  0.00  0.00    +0.000 A 
ATOM     12  C   UNL     1       1.248   8.604  20.951  0.00  0.00    +0.000 A 
ATOM     13  C   UNL     1       0.260   9.476  23.193  0.00  0.00    +0.000 C 
ATOM     14  O   UNL     1      -0.562  10.639  23.452  0.00  0.00    +0.000 OA
ATOM     15  C   UNL     1      -0.886  11.310  22.214  0.00  0.00    +0.000 C 
ENDBRANCH   4   7
BRANCH   1  16
ATOM     16  C   UNL     1       3.818   4.828  18.274  0.00  0.00    +0.000 C 
BRANCH  16  17
ATOM     17  C   UNL     1       3.884   4.138  16.909  0.00  0.00    +0.000 C 
BRANCH  17  18
ATOM     18  C   UNL     1       5.252   3.500  16.668  0.00  0.00    +0.000 C 
BRANCH  18  25
ATOM     19  C   UNL     1       6.033   3.724  13.506  0.00  0.00    +0.000 C 
ATOM     20  C   UNL     1       6.553   4.524  14.639  0.00  0.00    +0.000 A 
ATOM     21  N   UNL     1       7.449   5.493  14.418  0.00  0.00    +0.000 NA
ATOM     22  O   UNL     1       7.723   6.042  15.654  0.00  0.00    +0.000 OA
ATOM     23  C   UNL     1       6.993   5.407  16.607  0.00  0.00    +0.000 A 
ATOM     24  C   UNL     1       7.171   5.890  17.989  0.00  0.00    +0.000 C 
ATOM     25  C   UNL     1       6.222   4.425  16.020  0.00  0.00    +0.000 A 
ENDBRANCH  18  25
ENDBRANCH  17  18
ENDBRANCH  16  17
ENDBRANCH   1  16
TORSDOF 5
ENDMDL
MODEL 3
REMARK VINA RESULT:      -7.5      4.442      7.048
REMARK  Name = 
REMARK  7 active torsions:
REMARK  status: ('A' for Active; 'I' for Inactive)
REMARK    1  A    between atoms: C_1  and  C_2
REMARK    2  A    between atoms: C_5  and  C_6
REMARK    3  A    between atoms: C_7  and  C_8
REMARK    4  A    between atoms: C_8  and  C_9
REMARK    5  A    between atoms: C_9  and  C_10
REMARK    6  A    between atoms: C_10  and  N_11
REMARK    7  A    between atoms: N_14  and  C_15
REMARK                            x       y       z     vdW  Elec       q    Type
REMARK                         _______ _______ _______ _____ _____    ______ ____
ROOT
ATOM      1  N   UNL     1       6.794   7.635  17.157  0.00  0.00    +0.000 N 
ATOM      2  C   UNL     1       6.158   6.589  17.789  0.00  0.00    +0.000 C 
ATOM      3  O   UNL     1       6.626   6.060  18.789  0.00  0.00    +0.000 OA
ATOM      4  N   UNL     1       5.008   6.208  17.127  0.00  0.00    +0.000 N 
ATOM      5  H   UNL     1       6.205   8.275  16.644  0.00  0.00    +0.000 HD
ATOM      6  H   UNL     1       4.967   6.463  16.152  0.00  0.00    +0.000 HD
ENDROOT
BRANCH   4   7
ATOM      7  C   UNL     1       4.160   5.158  17.550  0.00  0.00    +0.000 A 
ATOM      8  C   UNL     1       4.100   3.927  16.872  0.00  0.00    +0.000 A 
ATOM      9  C   UNL     1       3.168   2.951  17.225  0.00  0.00    +0.000 A 
ATOM     10  C   UNL     1       2.307   3.217  18.270  0.00  0.00    +0.000 A 
ATOM     11  C   UNL     1       2.397   4.399  18.989  0.00  0.00    +0.000 A 
ATOM     12  C   UNL     1       3.330   5.375  18.658  0.00  0.00    +0.000 A 
ATOM     13  C   UNL     1       1.354   4.406  20.044  0.00  0.00    +0.000 C 
ATOM     14  O   UNL     1       0.620   3.171  19.870  0.00  0.00    +0.000 OA
ATOM     15  C   UNL     1       1.186   2.398  18.788  0.00  0.00    +0.000 C 
ENDBRANCH   4   7
BRANCH   1  16
ATOM     16  C   UNL     1       8.037   8.149  17.711  0.00  0.00    +0.000 C 
BRANCH  16  17
ATOM     17  C   UNL     1       7.987   9.662  17.940  0.00  0.00    +0.000 C 
BRANCH  17  18
ATOM     18  C   UNL     1       9.160  10.138  18.798  0.00  0.00    +0.000 C 
BRANCH  18  25
ATOM     19  C   UNL     1      12.094  11.459  19.352  0.00  0.00    +0.000 C 
ATOM     20  C   UNL     1      10.932  12.061  18.658  0.00  0.00    +0.000 A 
ATOM     21  N   UNL     1      11.022  13.296  18.149  0.00  0.00    +0.000 NA
ATOM     22  O   UNL     1       9.796  13.558  17.575  0.00  0.00    +0.000 OA
ATOM     23  C   UNL     1       8.978  12.485  17.736  0.00  0.00    +0.000 A 
ATOM     24  C   UNL     1       7.625  12.610  17.163  0.00  0.00    +0.000 C 
ATOM     25  C   UNL     1       9.648  11.493  18.421  0.00  0.00    +0.000 A 
ENDBRANCH  18  25
ENDBRANCH  17  18
ENDBRANCH  16  17
ENDBRANCH   1  16
TORSDOF 5
ENDMDL
MODEL 4
REMARK VINA RESULT:      -7.4      0.976      1.001
REMARK  Name = 
REMARK  7 active torsions:
REMARK  status: ('A' for Active; 'I' for Inactive)
REMARK    1  A    between atoms: C_1  and  C_2
REMARK    2  A    between atoms: C_5  and  C_6
REMARK    3  A    between atoms: C_7  and  C_8
REMARK    4  A    between atoms: C_8  and  C_9
REMARK    5  A    between atoms: C_9  and  C_10
REMARK    6  A    between atoms: C_10  and  N_11
REMARK    7  A    between atoms: N_14  and  C_15
REMARK                            x       y       z     vdW  Elec       q    Type
REMARK                         _______ _______ _______ _____ _____    ______ ____
ROOT
ATOM      1  N   UNL     1       3.457   5.123  19.987  0.00  0.00    +0.000 N 
ATOM      2  C   UNL     1       2.305   5.871  20.092  0.00  0.00    +0.000 C 
ATOM      3  O   UNL     1       1.199   5.379  19.920  0.00  0.00    +0.000 OA
ATOM      4  N   UNL     1       2.576   7.201  20.347  0.00  0.00    +0.000 N 
ATOM      5  H   UNL     1       4.250   5.439  20.527  0.00  0.00    +0.000 HD
ATOM      6  H   UNL     1       3.499   7.512  20.083  0.00  0.00    +0.000 HD
ENDROOT
BRANCH   4   7
ATOM      7  C   UNL     1       1.584   8.198  20.498  0.00  0.00    +0.000 A 
ATOM      8  C   UNL     1       1.213   9.049  19.442  0.00  0.00    +0.000 A 
ATOM      9  C   UNL     1       0.326  10.107  19.642  0.00  0.00    +0.000 A 
ATOM     10  C   UNL     1      -0.193  10.295  20.907  0.00  0.00    +0.000 A 
ATOM     11  C   UNL     1       0.113   9.425  21.942  0.00  0.00    +0.000 A 
ATOM     12  C   UNL     1       0.984   8.358  21.755  0.00  0.00    +0.000 A 
ATOM     13  C   UNL     1      -0.584   9.873  23.173  0.00  0.00    +0.000 C 
ATOM     14  O   UNL     1      -1.285  11.084  22.802  0.00  0.00    +0.000 OA
ATOM     15  C   UNL     1      -1.078  11.375  21.402  0.00  0.00    +0.000 C 
ENDBRANCH   4   7
BRANCH   1  16
ATOM     16  C   UNL     1       3.356   3.701  19.699  0.00  0.00    +0.000 C 
BRANCH  16  17
ATOM     17  C   UNL     1       3.875   3.353  18.302  0.00  0.00    +0.000 C 
BRANCH  17  18
ATOM     18  C   UNL     1       4.180   4.611  17.488  0.00  0.00    +0.000 C 
BRANCH  18  25
ATOM     19  C   UNL     1       5.486   4.082  14.542  0.00  0.00    +0.000 C 
ATOM     20  C   UNL     1       6.172   4.487  15.791  0.00  0.00    +0.000 A 
ATOM     21  N   UNL     1       7.493   4.700  15.790  0.00  0.00    +0.000 NA
ATOM     22  O   UNL     1       7.818   5.062  17.081  0.00  0.00    +0.000 OA
ATOM     23  C   UNL     1       6.697   5.069  17.848  0.00  0.00    +0.000 A 
ATOM     24  C   UNL     1       6.881   5.448  19.261  0.00  0.00    +0.000 C 
ATOM     25  C   UNL     1       5.609   4.711  17.079  0.00  0.00    +0.000 A 
ENDBRANCH  18  25
ENDBRANCH  17  18
ENDBRANCH  16  17
ENDBRANCH   1  16
TORSDOF 5
ENDMDL
MODEL 5
REMARK VINA RESULT:      -7.4      1.343      1.915
REMARK  Name = 
REMARK  7 active torsions:
REMARK  status: ('A' for Active; 'I' for Inactive)
REMARK    1  A    between atoms: C_1  and  C_2
REMARK    2  A    between atoms: C_5  and  C_6
REMARK    3  A    between atoms: C_7  and  C_8
REMARK    4  A    between atoms: C_8  and  C_9
REMARK    5  A    between atoms: C_9  and  C_10
REMARK    6  A    between atoms: C_10  and  N_11
REMARK    7  A    between atoms: N_14  and  C_15
REMARK                            x       y       z     vdW  Elec       q    Type
REMARK                         _______ _______ _______ _____ _____    ______ ____
ROOT
ATOM      1  N   UNL     1       2.808   5.861  19.114  0.00  0.00    +0.000 N 
ATOM      2  C   UNL     1       2.004   6.501  20.032  0.00  0.00    +0.000 C 
ATOM      3  O   UNL     1       1.337   5.880  20.848  0.00  0.00    +0.000 OA
ATOM      4  N   UNL     1       2.018   7.871  19.863  0.00  0.00    +0.000 N 
ATOM      5  H   UNL     1       3.611   6.377  18.783  0.00  0.00    +0.000 HD
ATOM      6  H   UNL     1       2.291   8.190  18.946  0.00  0.00    +0.000 HD
ENDROOT
BRANCH   4   7
ATOM      7  C   UNL     1       1.281   8.776  20.662  0.00  0.00    +0.000 A 
ATOM      8  C   UNL     1       1.278   8.702  22.067  0.00  0.00    +0.000 A 
ATOM      9  C   UNL     1       0.448   9.520  22.833  0.00  0.00    +0.000 A 
ATOM     10  C   UNL     1      -0.369  10.420  22.178  0.00  0.00    +0.000 A 
ATOM     11  C   UNL     1      -0.330  10.549  20.799  0.00  0.00    +0.000 A 
ATOM     12  C   UNL     1       0.503   9.751  20.022  0.00  0.00    +0.000 A 
ATOM     13  C   UNL     1      -1.307  11.584  20.381  0.00  0.00    +0.000 C 
ATOM     14  O   UNL     1      -1.951  12.023  21.601  0.00  0.00    +0.000 OA
ATOM     15  C   UNL     1      -1.390  11.334  22.740  0.00  0.00    +0.000 C 
ENDBRANCH   4   7
BRANCH   1  16
ATOM     16  C   UNL     1       2.895   4.409  19.137  0.00  0.00    +0.000 C 
BRANCH  16  17
ATOM     17  C   UNL     1       3.468   3.842  17.835  0.00  0.00    +0.000 C 
BRANCH  17  18
ATOM     18  C   UNL     1       4.137   4.931  16.995  0.00  0.00    +0.000 C 
BRANCH  18  25
ATOM     19  C   UNL     1       5.956   4.073  14.423  0.00  0.00    +0.000 C 
ATOM     20  C   UNL     1       6.405   4.418  15.792  0.00  0.00    +0.000 A 
ATOM     21  N   UNL     1       7.711   4.417  16.087  0.00  0.00    +0.000 NA
ATOM     22  O   UNL     1       7.797   4.779  17.415  0.00  0.00    +0.000 OA
ATOM     23  C   UNL     1       6.551   4.999  17.910  0.00  0.00    +0.000 A 
ATOM     24  C   UNL     1       6.478   5.405  19.326  0.00  0.00    +0.000 C 
ATOM     25  C   UNL     1       5.616   4.785  16.918  0.00  0.00    +0.000 A 
ENDBRANCH  18  25
ENDBRANCH  17  18
ENDBRANCH  16  17
ENDBRANCH   1  16
TORSDOF 5
ENDMDL
MODEL 6
REMARK VINA RESULT:      -7.4      0.761      1.787
REMARK  Name = 
REMARK  7 active torsions:
REMARK  status: ('A' for Active; 'I' for Inactive)
REMARK    1  A    between atoms: C_1  and  C_2
REMARK    2  A    between atoms: C_5  and  C_6
REMARK    3  A    between atoms: C_7  and  C_8
REMARK    4  A    between atoms: C_8  and  C_9
REMARK    5  A    between atoms: C_9  and  C_10
REMARK    6  A    between atoms: C_10  and  N_11
REMARK    7  A    between atoms: N_14  and  C_15
REMARK                            x       y       z     vdW  Elec       q    Type
REMARK                         _______ _______ _______ _____ _____    ______ ____
ROOT
ATOM      1  N   UNL     1       3.231   4.356  19.261  0.00  0.00    +0.000 N 
ATOM      2  C   UNL     1       2.454   5.477  19.069  0.00  0.00    +0.000 C 
ATOM      3  O   UNL     1       1.793   5.636  18.052  0.00  0.00    +0.000 OA
ATOM      4  N   UNL     1       2.573   6.373  20.113  0.00  0.00    +0.000 N 
ATOM      5  H   UNL     1       3.394   4.081  20.220  0.00  0.00    +0.000 HD
ATOM      6  H   UNL     1       3.415   6.286  20.662  0.00  0.00    +0.000 HD
ENDROOT
BRANCH   4   7
ATOM      7  C   UNL     1       1.893   7.612  20.177  0.00  0.00    +0.000 A 
ATOM      8  C   UNL     1       1.880   8.514  19.098  0.00  0.00    +0.000 A 
ATOM      9  C   UNL     1       1.312   9.782  19.223  0.00  0.00    +0.000 A 
ATOM     10  C   UNL     1       0.749  10.130  20.434  0.00  0.00    +0.000 A 
ATOM     11  C   UNL     1       0.697   9.229  21.485  0.00  0.00    +0.000 A 
ATOM     12  C   UNL     1       1.245   7.956  21.371  0.00  0.00    +0.000 A 
ATOM     13  C   UNL     1       0.040   9.876  22.647  0.00  0.00    +0.000 C 
ATOM     14  O   UNL     1      -0.252  11.228  22.222  0.00  0.00    +0.000 OA
ATOM     15  C   UNL     1       0.161  11.424  20.852  0.00  0.00    +0.000 C 
ENDBRANCH   4   7
BRANCH   1  16
ATOM     16  C   UNL     1       3.240   3.316  18.245  0.00  0.00    +0.000 C 
BRANCH  16  17
ATOM     17  C   UNL     1       4.535   3.313  17.429  0.00  0.00    +0.000 C 
BRANCH  17  18
ATOM     18  C   UNL     1       4.407   4.175  16.172  0.00  0.00    +0.000 C 
BRANCH  18  25
ATOM     19  C   UNL     1       6.261   6.317  17.796  0.00  0.00    +0.000 C 
ATOM     20  C   UNL     1       6.506   5.715  16.465  0.00  0.00    +0.000 A 
ATOM     21  N   UNL     1       7.615   6.025  15.784  0.00  0.00    +0.000 NA
ATOM     22  O   UNL     1       7.548   5.308  14.607  0.00  0.00    +0.000 OA
ATOM     23  C   UNL     1       6.408   4.571  14.586  0.00  0.00    +0.000 A 
ATOM     24  C   UNL     1       6.196   3.738  13.388  0.00  0.00    +0.000 C 
ATOM     25  C   UNL     1       5.697   4.787  15.749  0.00  0.00    +0.000 A 
ENDBRANCH  18  25
ENDBRANCH  17  18
ENDBRANCH  16  17
ENDBRANCH   1  16
TORSDOF 5
ENDMDL
MODEL 7
REMARK VINA RESULT:      -7.3      4.521      7.346
REMARK  Name = 
REMARK  7 active torsions:
REMARK  status: ('A' for Active; 'I' for Inactive)
REMARK    1  A    between atoms: C_1  and  C_2
REMARK    2  A    between atoms: C_5  and  C_6
REMARK    3  A    between atoms: C_7  and  C_8
REMARK    4  A    between atoms: C_8  and  C_9
REMARK    5  A    between atoms: C_9  and  C_10
REMARK    6  A    between atoms: C_10  and  N_11
REMARK    7  A    between atoms: N_14  and  C_15
REMARK                            x       y       z     vdW  Elec       q    Type
REMARK                         _______ _______ _______ _____ _____    ______ ____
ROOT
ATOM      1  N   UNL     1       6.987   7.575  17.063  0.00  0.00    +0.000 N 
ATOM      2  C   UNL     1       6.140   6.707  17.717  0.00  0.00    +0.000 C 
ATOM      3  O   UNL     1       6.359   6.332  18.860  0.00  0.00    +0.000 OA
ATOM      4  N   UNL     1       5.098   6.297  16.909  0.00  0.00    +0.000 N 
ATOM      5  H   UNL     1       6.572   8.155  16.348  0.00  0.00    +0.000 HD
ATOM      6  H   UNL     1       5.263   6.377  15.917  0.00  0.00    +0.000 HD
ENDROOT
BRANCH   4   7
ATOM      7  C   UNL     1       4.082   5.402  17.318  0.00  0.00    +0.000 A 
ATOM      8  C   UNL     1       2.819   5.851  17.747  0.00  0.00    +0.000 A 
ATOM      9  C   UNL     1       1.874   4.965  18.266  0.00  0.00    +0.000 A 
ATOM     10  C   UNL     1       2.204   3.627  18.339  0.00  0.00    +0.000 A 
ATOM     11  C   UNL     1       3.419   3.162  17.862  0.00  0.00    +0.000 A 
ATOM     12  C   UNL     1       4.365   4.029  17.328  0.00  0.00    +0.000 A 
ATOM     13  C   UNL     1       3.492   1.695  18.071  0.00  0.00    +0.000 C 
ATOM     14  O   UNL     1       2.260   1.337  18.740  0.00  0.00    +0.000 OA
ATOM     15  C   UNL     1       1.427   2.505  18.916  0.00  0.00    +0.000 C 
ENDBRANCH   4   7
BRANCH   1  16
ATOM     16  C   UNL     1       8.153   8.090  17.763  0.00  0.00    +0.000 C 
BRANCH  16  17
ATOM     17  C   UNL     1       8.140   9.618  17.866  0.00  0.00    +0.000 C 
BRANCH  17  18
ATOM     18  C   UNL     1       9.253  10.127  18.782  0.00  0.00    +0.000 C 
BRANCH  18  25
ATOM     19  C   UNL     1      12.175  11.473  19.344  0.00  0.00    +0.000 C 
ATOM     20  C   UNL     1      11.003  12.073  18.665  0.00  0.00    +0.000 A 
ATOM     21  N   UNL     1      11.077  13.316  18.177  0.00  0.00    +0.000 NA
ATOM     22  O   UNL     1       9.845  13.574  17.612  0.00  0.00    +0.000 OA
ATOM     23  C   UNL     1       9.040  12.490  17.759  0.00  0.00    +0.000 A 
ATOM     24  C   UNL     1       7.683  12.608  17.195  0.00  0.00    +0.000 C 
ATOM     25  C   UNL     1       9.725  11.494  18.425  0.00  0.00    +0.000 A 
ENDBRANCH  18  25
ENDBRANCH  17  18
ENDBRANCH  16  17
ENDBRANCH   1  16
TORSDOF 5
ENDMDL
MODEL 8
REMARK VINA RESULT:      -7.3      4.803      7.328
REMARK  Name = 
REMARK  7 active torsions:
REMARK  status: ('A' for Active; 'I' for Inactive)
REMARK    1  A    between atoms: C_1  and  C_2
REMARK    2  A    between atoms: C_5  and  C_6
REMARK    3  A    between atoms: C_7  and  C_8
REMARK    4  A    between atoms: C_8  and  C_9
REMARK    5  A    between atoms: C_9  and  C_10
REMARK    6  A    between atoms: C_10  and  N_11
REMARK    7  A    between atoms: N_14  and  C_15
REMARK                            x       y       z     vdW  Elec       q    Type
REMARK                         _______ _______ _______ _____ _____    ______ ____
ROOT
ATOM      1  N   UNL     1       7.591   6.905  17.740  0.00  0.00    +0.000 N 
ATOM      2  C   UNL     1       6.303   6.416  17.732  0.00  0.00    +0.000 C 
ATOM      3  O   UNL     1       5.341   7.139  17.515  0.00  0.00    +0.000 OA
ATOM      4  N   UNL     1       6.259   5.073  18.048  0.00  0.00    +0.000 N 
ATOM      5  H   UNL     1       8.322   6.249  17.502  0.00  0.00    +0.000 HD
ATOM      6  H   UNL     1       7.054   4.724  18.562  0.00  0.00    +0.000 HD
ENDROOT
BRANCH   4   7
ATOM      7  C   UNL     1       5.068   4.313  18.119  0.00  0.00    +0.000 A 
ATOM      8  C   UNL     1       4.300   4.020  16.977  0.00  0.00    +0.000 A 
ATOM      9  C   UNL     1       3.065   3.379  17.081  0.00  0.00    +0.000 A 
ATOM     10  C   UNL     1       2.615   3.026  18.337  0.00  0.00    +0.000 A 
ATOM     11  C   UNL     1       3.390   3.251  19.464  0.00  0.00    +0.000 A 
ATOM     12  C   UNL     1       4.629   3.875  19.375  0.00  0.00    +0.000 A 
ATOM     13  C   UNL     1       2.656   2.771  20.661  0.00  0.00    +0.000 C 
ATOM     14  O   UNL     1       1.383   2.290  20.167  0.00  0.00    +0.000 OA
ATOM     15  C   UNL     1       1.322   2.419  18.729  0.00  0.00    +0.000 C 
ENDBRANCH   4   7
BRANCH   1  16
ATOM     16  C   UNL     1       7.818   8.311  17.448  0.00  0.00    +0.000 C 
BRANCH  16  17
ATOM     17  C   UNL     1       8.652   9.001  18.530  0.00  0.00    +0.000 C 
BRANCH  17  18
ATOM     18  C   UNL     1       8.656  10.520  18.353  0.00  0.00    +0.000 C 
BRANCH  18  25
ATOM     19  C   UNL     1       8.761  11.100  21.564  0.00  0.00    +0.000 C 
ATOM     20  C   UNL     1       9.772  11.441  20.536  0.00  0.00    +0.000 A 
ATOM     21  N   UNL     1      10.908  12.051  20.891  0.00  0.00    +0.000 NA
ATOM     22  O   UNL     1      11.626  12.222  19.726  0.00  0.00    +0.000 OA
ATOM     23  C   UNL     1      10.923  11.713  18.680  0.00  0.00    +0.000 A 
ATOM     24  C   UNL     1      11.567  11.813  17.357  0.00  0.00    +0.000 C 
ATOM     25  C   UNL     1       9.727  11.198  19.134  0.00  0.00    +0.000 A 
ENDBRANCH  18  25
ENDBRANCH  17  18
ENDBRANCH  16  17
ENDBRANCH   1  16
TORSDOF 5
ENDMDL
MODEL 9
REMARK VINA RESULT:      -7.2      4.619      8.032
REMARK  Name = 
REMARK  7 active torsions:
REMARK  status: ('A' for Active; 'I' for Inactive)
REMARK    1  A    between atoms: C_1  and  C_2
REMARK    2  A    between atoms: C_5  and  C_6
REMARK    3  A    between atoms: C_7  and  C_8
REMARK    4  A    between atoms: C_8  and  C_9
REMARK    5  A    between atoms: C_9  and  C_10
REMARK    6  A    between atoms: C_10  and  N_11
REMARK    7  A    between atoms: N_14  and  C_15
REMARK                            x       y       z     vdW  Elec       q    Type
REMARK                         _______ _______ _______ _____ _____    ______ ____
ROOT
ATOM      1  N   UNL     1       6.800   7.602  17.180  0.00  0.00    +0.000 N 
ATOM      2  C   UNL     1       7.851   8.103  17.917  0.00  0.00    +0.000 C 
ATOM      3  O   UNL     1       8.539   7.385  18.629  0.00  0.00    +0.000 OA
ATOM      4  N   UNL     1       7.968   9.473  17.784  0.00  0.00    +0.000 N 
ATOM      5  H   UNL     1       6.561   8.106  16.338  0.00  0.00    +0.000 HD
ATOM      6  H   UNL     1       7.129   9.951  17.492  0.00  0.00    +0.000 HD
ENDROOT
BRANCH   4   7
ATOM      7  C   UNL     1       8.955  10.251  18.432  0.00  0.00    +0.000 A 
ATOM      8  C   UNL     1       9.012  10.371  19.832  0.00  0.00    +0.000 A 
ATOM      9  C   UNL     1       9.912  11.242  20.447  0.00  0.00    +0.000 A 
ATOM     10  C   UNL     1      10.759  11.980  19.646  0.00  0.00    +0.000 A 
ATOM     11  C   UNL     1      10.759  11.825  18.269  0.00  0.00    +0.000 A 
ATOM     12  C   UNL     1       9.879  10.950  17.642  0.00  0.00    +0.000 A 
ATOM     13  C   UNL     1      11.766  12.739  17.677  0.00  0.00    +0.000 C 
ATOM     14  O   UNL     1      12.327  13.470  18.793  0.00  0.00    +0.000 OA
ATOM     15  C   UNL     1      11.739  13.022  20.034  0.00  0.00    +0.000 C 
ENDBRANCH   4   7
BRANCH   1  16
ATOM     16  C   UNL     1       6.520   6.176  17.222  0.00  0.00    +0.000 C 
BRANCH  16  17
ATOM     17  C   UNL     1       5.049   5.881  17.525  0.00  0.00    +0.000 C 
BRANCH  17  18
ATOM     18  C   UNL     1       4.902   4.824  18.620  0.00  0.00    +0.000 C 
BRANCH  18  25
ATOM     19  C   UNL     1       3.590   1.901  17.994  0.00  0.00    +0.000 C 
ATOM     20  C   UNL     1       2.930   3.103  18.554  0.00  0.00    +0.000 A 
ATOM     21  N   UNL     1       1.634   3.060  18.887  0.00  0.00    +0.000 NA
ATOM     22  O   UNL     1       1.329   4.314  19.374  0.00  0.00    +0.000 OA
ATOM     23  C   UNL     1       2.436   5.100  19.335  0.00  0.00    +0.000 A 
ATOM     24  C   UNL     1       2.270   6.478  19.835  0.00  0.00    +0.000 C 
ATOM     25  C   UNL     1       3.495   4.382  18.821  0.00  0.00    +0.000 A 
ENDBRANCH  18  25
ENDBRANCH  17  18
ENDBRANCH  16  17
ENDBRANCH   1  16
TORSDOF 5
ENDMDL
