MODEL 1
REMARK VINA RESULT:      -6.9      0.000      0.000
REMARK  Name = 
REMARK  11 active torsions:
REMARK  status: ('A' for Active; 'I' for Inactive)
REMARK    1  A    between atoms: C_1  and  C_2
REMARK    2  A    between atoms: C_2  and  O_3
REMARK    3  A    between atoms: O_3  and  C_4
REMARK    4  A    between atoms: C_7  and  C_8
REMARK    5  A    between atoms: C_10  and  O_11
REMARK    6  A    between atoms: O_11  and  C_12
REMARK    7  A    between atoms: C_12  and  C_14
REMARK    8  A    between atoms: C_17  and  O_18
REMARK    9  A    between atoms: O_18  and  C_19
REMARK   10  A    between atoms: C_23  and  C_24
REMARK   11  A    between atoms: C_26  and  C_27
REMARK                            x       y       z     vdW  Elec       q    Type
REMARK                         _______ _______ _______ _____ _____    ______ ____
ROOT
ATOM      1  C   UNL     1      -4.175  12.818  20.562  0.00  0.00    +0.000 A 
ATOM      2  C   UNL     1      -3.440  13.976  21.078  0.00  0.00    +0.000 A 
ATOM      3  C   UNL     1      -3.257  14.080  22.416  0.00  0.00    +0.000 A 
ATOM      4  C   UNL     1      -4.358  14.663  23.100  0.00  0.00    +0.000 A 
ATOM      5  C   UNL     1      -4.366  15.679  24.028  0.00  0.00    +0.000 A 
ATOM      6  C   UNL     1      -3.340  16.463  24.743  0.00  0.00    +0.000 C 
ATOM      7  O   UNL     1      -5.660  16.011  24.300  0.00  0.00    +0.000 OA
ATOM      8  C   UNL     1      -6.463  15.166  23.590  0.00  0.00    +0.000 A 
ATOM      9  C   UNL     1      -7.915  15.451  23.663  0.00  0.00    +0.000 C 
ATOM     10  C   UNL     1      -5.703  14.228  22.907  0.00  0.00    +0.000 A 
ATOM     11  C   UNL     1      -6.210  13.090  22.152  0.00  0.00    +0.000 A 
ATOM     12  O   UNL     1      -7.347  12.651  22.317  0.00  0.00    +0.000 OA
ATOM     13  C   UNL     1      -5.351  12.427  21.104  0.00  0.00    +0.000 A 
ENDROOT
BRANCH   1  17
ATOM     14  C   UNL     1      -3.142  11.143  16.739  0.00  0.00    +0.000 A 
ATOM     15  C   UNL     1      -2.169  11.388  17.706  0.00  0.00    +0.000 A 
ATOM     16  C   UNL     1      -2.525  11.923  18.945  0.00  0.00    +0.000 A 
ATOM     17  C   UNL     1      -3.862  12.242  19.233  0.00  0.00    +0.000 A 
ATOM     18  C   UNL     1      -4.833  12.025  18.252  0.00  0.00    +0.000 A 
ATOM     19  C   UNL     1      -4.471  11.485  17.007  0.00  0.00    +0.000 A 
BRANCH  14  20
ATOM     20  O   UNL     1      -2.675  10.581  15.582  0.00  0.00    +0.000 OA
BRANCH  20  22
ATOM     21  C   UNL     1      -2.985   9.702  13.378  0.00  0.00    +0.000 C 
ATOM     22  C   UNL     1      -3.662  10.063  14.690  0.00  0.00    +0.000 C 
ENDBRANCH  20  22
ENDBRANCH  14  20
ENDBRANCH   1  17
BRANCH   3  23
ATOM     23  O   UNL     1      -2.728  13.005  23.152  0.00  0.00    +0.000 OA
BRANCH  23  24
ATOM     24  C   UNL     1      -1.370  13.123  23.167  0.00  0.00    +0.000 C 
ATOM     25  O   UNL     1      -0.703  13.910  23.828  0.00  0.00    +0.000 OA
BRANCH  24  26
ATOM     26  C   UNL     1      -0.730  12.102  22.289  0.00  0.00    +0.000 A 
ATOM     27  C   UNL     1       0.189  12.567  21.340  0.00  0.00    +0.000 A 
ATOM     28  C   UNL     1       0.866  11.674  20.508  0.00  0.00    +0.000 A 
ATOM     29  C   UNL     1       0.652  10.305  20.628  0.00  0.00    +0.000 A 
ATOM     30  C   UNL     1      -0.284   9.829  21.548  0.00  0.00    +0.000 A 
ATOM     31  C   UNL     1      -0.977  10.724  22.380  0.00  0.00    +0.000 A 
BRANCH  29  32
ATOM     32  O   UNL     1       1.382   9.532  19.769  0.00  0.00    +0.000 OA
ATOM     33  C   UNL     1       1.021   9.639  18.396  0.00  0.00    +0.000 C 
ENDBRANCH  29  32
ENDBRANCH  24  26
ENDBRANCH  23  24
ENDBRANCH   3  23
TORSDOF 7
ENDMDL
MODEL 2
REMARK VINA RESULT:      -6.7      3.868      7.046
REMARK  Name = 
REMARK  11 active torsions:
REMARK  status: ('A' for Active; 'I' for Inactive)
REMARK    1  A    between atoms: C_1  and  C_2
REMARK    2  A    between atoms: C_2  and  O_3
REMARK    3  A    between atoms: O_3  and  C_4
REMARK    4  A    between atoms: C_7  and  C_8
REMARK    5  A    between atoms: C_10  and  O_11
REMARK    6  A    between atoms: O_11  and  C_12
REMARK    7  A    between atoms: C_12  and  C_14
REMARK    8  A    between atoms: C_17  and  O_18
REMARK    9  A    between atoms: O_18  and  C_19
REMARK   10  A    between atoms: C_23  and  C_24
REMARK   11  A    between atoms: C_26  and  C_27
REMARK                            x       y       z     vdW  Elec       q    Type
REMARK                         _______ _______ _______ _____ _____    ______ ____
ROOT
ATOM      1  C   UNL     1       1.136   9.272  20.423  0.00  0.00    +0.000 A 
ATOM      2  C   UNL     1       0.576  10.250  19.486  0.00  0.00    +0.000 A 
ATOM      3  C   UNL     1       0.720  11.567  19.765  0.00  0.00    +0.000 A 
ATOM      4  C   UNL     1      -0.266  12.076  20.653  0.00  0.00    +0.000 A 
ATOM      5  C   UNL     1      -1.040  13.208  20.536  0.00  0.00    +0.000 A 
ATOM      6  C   UNL     1      -1.112  14.344  19.598  0.00  0.00    +0.000 C 
ATOM      7  O   UNL     1      -1.955  13.217  21.547  0.00  0.00    +0.000 OA
ATOM      8  C   UNL     1      -1.716  12.125  22.331  0.00  0.00    +0.000 A 
ATOM      9  C   UNL     1      -2.692  11.895  23.422  0.00  0.00    +0.000 C 
ATOM     10  C   UNL     1      -0.600  11.435  21.882  0.00  0.00    +0.000 A 
ATOM     11  C   UNL     1       0.035  10.299  22.538  0.00  0.00    +0.000 A 
ATOM     12  O   UNL     1      -0.153  10.043  23.726  0.00  0.00    +0.000 OA
ATOM     13  C   UNL     1       0.928   9.369  21.756  0.00  0.00    +0.000 A 
ENDROOT
BRANCH   1  17
ATOM     14  C   UNL     1       2.583   5.424  19.161  0.00  0.00    +0.000 A 
ATOM     15  C   UNL     1       1.991   5.598  20.411  0.00  0.00    +0.000 A 
ATOM     16  C   UNL     1       1.519   6.853  20.799  0.00  0.00    +0.000 A 
ATOM     17  C   UNL     1       1.648   7.964  19.949  0.00  0.00    +0.000 A 
ATOM     18  C   UNL     1       2.268   7.796  18.710  0.00  0.00    +0.000 A 
ATOM     19  C   UNL     1       2.742   6.531  18.322  0.00  0.00    +0.000 A 
BRANCH  14  20
ATOM     20  O   UNL     1       2.969   4.142  18.881  0.00  0.00    +0.000 OA
BRANCH  20  22
ATOM     21  C   UNL     1       1.177   2.579  18.622  0.00  0.00    +0.000 C 
ATOM     22  C   UNL     1       2.193   3.450  17.902  0.00  0.00    +0.000 C 
ENDBRANCH  20  22
ENDBRANCH  14  20
ENDBRANCH   1  17
BRANCH   3  23
ATOM     23  O   UNL     1       1.986  12.100  20.072  0.00  0.00    +0.000 OA
BRANCH  23  24
ATOM     24  C   UNL     1       2.447  12.768  18.977  0.00  0.00    +0.000 C 
ATOM     25  O   UNL     1       2.699  12.297  17.874  0.00  0.00    +0.000 OA
BRANCH  24  26
ATOM     26  C   UNL     1       2.571  14.228  19.249  0.00  0.00    +0.000 A 
ATOM     27  C   UNL     1       3.028  14.601  20.520  0.00  0.00    +0.000 A 
ATOM     28  C   UNL     1       3.216  15.946  20.842  0.00  0.00    +0.000 A 
ATOM     29  C   UNL     1       2.971  16.935  19.893  0.00  0.00    +0.000 A 
ATOM     30  C   UNL     1       2.485  16.580  18.634  0.00  0.00    +0.000 A 
ATOM     31  C   UNL     1       2.284  15.228  18.308  0.00  0.00    +0.000 A 
BRANCH  29  32
ATOM     32  O   UNL     1       3.203  18.212  20.321  0.00  0.00    +0.000 OA
ATOM     33  C   UNL     1       3.991  18.326  21.502  0.00  0.00    +0.000 C 
ENDBRANCH  29  32
ENDBRANCH  24  26
ENDBRANCH  23  24
ENDBRANCH   3  23
TORSDOF 7
ENDMDL
MODEL 3
REMARK VINA RESULT:      -6.7      3.862      7.188
REMARK  Name = 
REMARK  11 active torsions:
REMARK  status: ('A' for Active; 'I' for Inactive)
REMARK    1  A    between atoms: C_1  and  C_2
REMARK    2  A    between atoms: C_2  and  O_3
REMARK    3  A    between atoms: O_3  and  C_4
REMARK    4  A    between atoms: C_7  and  C_8
REMARK    5  A    between atoms: C_10  and  O_11
REMARK    6  A    between atoms: O_11  and  C_12
REMARK    7  A    between atoms: C_12  and  C_14
REMARK    8  A    between atoms: C_17  and  O_18
REMARK    9  A    between atoms: O_18  and  C_19
REMARK   10  A    between atoms: C_23  and  C_24
REMARK   11  A    between atoms: C_26  and  C_27
REMARK                            x       y       z     vdW  Elec       q    Type
REMARK                         _______ _______ _______ _____ _____    ______ ____
ROOT
ATOM      1  C   UNL     1       1.159   9.303  20.410  0.00  0.00    +0.000 A 
ATOM      2  C   UNL     1       0.581  10.268  19.472  0.00  0.00    +0.000 A 
ATOM      3  C   UNL     1       0.709  11.589  19.744  0.00  0.00    +0.000 A 
ATOM      4  C   UNL     1      -0.280  12.088  20.634  0.00  0.00    +0.000 A 
ATOM      5  C   UNL     1      -1.070  13.209  20.515  0.00  0.00    +0.000 A 
ATOM      6  C   UNL     1      -1.162  14.340  19.572  0.00  0.00    +0.000 C 
ATOM      7  O   UNL     1      -1.980  13.210  21.531  0.00  0.00    +0.000 OA
ATOM      8  C   UNL     1      -1.723  12.125  22.318  0.00  0.00    +0.000 A 
ATOM      9  C   UNL     1      -2.690  11.888  23.415  0.00  0.00    +0.000 C 
ATOM     10  C   UNL     1      -0.600  11.448  21.868  0.00  0.00    +0.000 A 
ATOM     11  C   UNL     1       0.053  10.324  22.526  0.00  0.00    +0.000 A 
ATOM     12  O   UNL     1      -0.125  10.071  23.716  0.00  0.00    +0.000 OA
ATOM     13  C   UNL     1       0.956   9.402  21.744  0.00  0.00    +0.000 A 
ENDROOT
BRANCH   1  17
ATOM     14  C   UNL     1       2.723   5.578  18.936  0.00  0.00    +0.000 A 
ATOM     15  C   UNL     1       2.772   6.737  18.164  0.00  0.00    +0.000 A 
ATOM     16  C   UNL     1       2.268   7.939  18.664  0.00  0.00    +0.000 A 
ATOM     17  C   UNL     1       1.686   7.999  19.941  0.00  0.00    +0.000 A 
ATOM     18  C   UNL     1       1.610   6.831  20.702  0.00  0.00    +0.000 A 
ATOM     19  C   UNL     1       2.119   5.623  20.197  0.00  0.00    +0.000 A 
BRANCH  14  20
ATOM     20  O   UNL     1       3.284   4.474  18.355  0.00  0.00    +0.000 OA
BRANCH  20  22
ATOM     21  C   UNL     1       5.628   4.610  18.814  0.00  0.00    +0.000 C 
ATOM     22  C   UNL     1       4.341   3.847  19.081  0.00  0.00    +0.000 C 
ENDBRANCH  20  22
ENDBRANCH  14  20
ENDBRANCH   1  17
BRANCH   3  23
ATOM     23  O   UNL     1       1.969  12.139  20.043  0.00  0.00    +0.000 OA
BRANCH  23  24
ATOM     24  C   UNL     1       2.434  12.773  18.929  0.00  0.00    +0.000 C 
ATOM     25  O   UNL     1       2.686  12.268  17.840  0.00  0.00    +0.000 OA
BRANCH  24  26
ATOM     26  C   UNL     1       2.565  14.240  19.158  0.00  0.00    +0.000 A 
ATOM     27  C   UNL     1       2.483  14.686  20.483  0.00  0.00    +0.000 A 
ATOM     28  C   UNL     1       2.638  16.039  20.789  0.00  0.00    +0.000 A 
ATOM     29  C   UNL     1       2.901  16.960  19.780  0.00  0.00    +0.000 A 
ATOM     30  C   UNL     1       2.953  16.535  18.451  0.00  0.00    +0.000 A 
ATOM     31  C   UNL     1       2.786  15.176  18.136  0.00  0.00    +0.000 A 
BRANCH  29  32
ATOM     32  O   UNL     1       3.046  18.252  20.204  0.00  0.00    +0.000 OA
ATOM     33  C   UNL     1       4.102  18.473  21.133  0.00  0.00    +0.000 C 
ENDBRANCH  29  32
ENDBRANCH  24  26
ENDBRANCH  23  24
ENDBRANCH   3  23
TORSDOF 7
ENDMDL
MODEL 4
REMARK VINA RESULT:      -6.7      1.636      5.341
REMARK  Name = 
REMARK  11 active torsions:
REMARK  status: ('A' for Active; 'I' for Inactive)
REMARK    1  A    between atoms: C_1  and  C_2
REMARK    2  A    between atoms: C_2  and  O_3
REMARK    3  A    between atoms: O_3  and  C_4
REMARK    4  A    between atoms: C_7  and  C_8
REMARK    5  A    between atoms: C_10  and  O_11
REMARK    6  A    between atoms: O_11  and  C_12
REMARK    7  A    between atoms: C_12  and  C_14
REMARK    8  A    between atoms: C_17  and  O_18
REMARK    9  A    between atoms: O_18  and  C_19
REMARK   10  A    between atoms: C_23  and  C_24
REMARK   11  A    between atoms: C_26  and  C_27
REMARK                            x       y       z     vdW  Elec       q    Type
REMARK                         _______ _______ _______ _____ _____    ______ ____
ROOT
ATOM      1  C   UNL     1      -0.669  11.998  21.719  0.00  0.00    +0.000 A 
ATOM      2  C   UNL     1      -2.010  11.913  22.305  0.00  0.00    +0.000 A 
ATOM      3  C   UNL     1      -2.879  12.926  22.076  0.00  0.00    +0.000 A 
ATOM      4  C   UNL     1      -2.724  14.026  22.963  0.00  0.00    +0.000 A 
ATOM      5  C   UNL     1      -3.679  14.699  23.689  0.00  0.00    +0.000 A 
ATOM      6  C   UNL     1      -5.152  14.666  23.782  0.00  0.00    +0.000 C 
ATOM      7  O   UNL     1      -3.054  15.583  24.519  0.00  0.00    +0.000 OA
ATOM      8  C   UNL     1      -1.714  15.506  24.271  0.00  0.00    +0.000 A 
ATOM      9  C   UNL     1      -0.851  16.313  25.166  0.00  0.00    +0.000 C 
ATOM     10  C   UNL     1      -1.459  14.629  23.228  0.00  0.00    +0.000 A 
ATOM     11  C   UNL     1      -0.167  14.389  22.598  0.00  0.00    +0.000 A 
ATOM     12  O   UNL     1       0.768  15.182  22.702  0.00  0.00    +0.000 OA
ATOM     13  C   UNL     1       0.076  13.123  21.815  0.00  0.00    +0.000 A 
ENDROOT
BRANCH   1  17
ATOM     14  C   UNL     1       1.468   8.504  20.410  0.00  0.00    +0.000 A 
ATOM     15  C   UNL     1       1.143   9.526  19.520  0.00  0.00    +0.000 A 
ATOM     16  C   UNL     1       0.457  10.658  19.966  0.00  0.00    +0.000 A 
ATOM     17  C   UNL     1       0.066  10.778  21.309  0.00  0.00    +0.000 A 
ATOM     18  C   UNL     1       0.365   9.740  22.194  0.00  0.00    +0.000 A 
ATOM     19  C   UNL     1       1.056   8.603  21.743  0.00  0.00    +0.000 A 
BRANCH  14  20
ATOM     20  O   UNL     1       2.175   7.468  19.864  0.00  0.00    +0.000 OA
BRANCH  20  22
ATOM     21  C   UNL     1       3.417   6.460  18.083  0.00  0.00    +0.000 C 
ATOM     22  C   UNL     1       2.415   7.540  18.458  0.00  0.00    +0.000 C 
ENDBRANCH  20  22
ENDBRANCH  14  20
ENDBRANCH   1  17
BRANCH   3  23
ATOM     23  O   UNL     1      -3.125  13.377  20.766  0.00  0.00    +0.000 OA
BRANCH  23  24
ATOM     24  C   UNL     1      -4.250  12.761  20.305  0.00  0.00    +0.000 C 
ATOM     25  O   UNL     1      -5.380  12.836  20.774  0.00  0.00    +0.000 OA
BRANCH  24  26
ATOM     26  C   UNL     1      -3.970  11.982  19.066  0.00  0.00    +0.000 A 
ATOM     27  C   UNL     1      -2.629  11.866  18.677  0.00  0.00    +0.000 A 
ATOM     28  C   UNL     1      -2.276  11.117  17.554  0.00  0.00    +0.000 A 
ATOM     29  C   UNL     1      -3.254  10.455  16.817  0.00  0.00    +0.000 A 
ATOM     30  C   UNL     1      -4.597  10.588  17.173  0.00  0.00    +0.000 A 
ATOM     31  C   UNL     1      -4.959  11.350  18.297  0.00  0.00    +0.000 A 
BRANCH  29  32
ATOM     32  O   UNL     1      -2.785   9.744  15.748  0.00  0.00    +0.000 OA
ATOM     33  C   UNL     1      -3.192  10.223  14.471  0.00  0.00    +0.000 C 
ENDBRANCH  29  32
ENDBRANCH  24  26
ENDBRANCH  23  24
ENDBRANCH   3  23
TORSDOF 7
ENDMDL
MODEL 5
REMARK VINA RESULT:      -6.6      0.471      1.275
REMARK  Name = 
REMARK  11 active torsions:
REMARK  status: ('A' for Active; 'I' for Inactive)
REMARK    1  A    between atoms: C_1  and  C_2
REMARK    2  A    between atoms: C_2  and  O_3
REMARK    3  A    between atoms: O_3  and  C_4
REMARK    4  A    between atoms: C_7  and  C_8
REMARK    5  A    between atoms: C_10  and  O_11
REMARK    6  A    between atoms: O_11  and  C_12
REMARK    7  A    between atoms: C_12  and  C_14
REMARK    8  A    between atoms: C_17  and  O_18
REMARK    9  A    between atoms: O_18  and  C_19
REMARK   10  A    between atoms: C_23  and  C_24
REMARK   11  A    between atoms: C_26  and  C_27
REMARK                            x       y       z     vdW  Elec       q    Type
REMARK                         _______ _______ _______ _____ _____    ______ ____
ROOT
ATOM      1  C   UNL     1      -4.420  12.861  20.661  0.00  0.00    +0.000 A 
ATOM      2  C   UNL     1      -3.666  14.051  21.065  0.00  0.00    +0.000 A 
ATOM      3  C   UNL     1      -3.355  14.203  22.374  0.00  0.00    +0.000 A 
ATOM      4  C   UNL     1      -4.396  14.786  23.146  0.00  0.00    +0.000 A 
ATOM      5  C   UNL     1      -4.337  15.831  24.038  0.00  0.00    +0.000 A 
ATOM      6  C   UNL     1      -3.265  16.660  24.622  0.00  0.00    +0.000 C 
ATOM      7  O   UNL     1      -5.606  16.145  24.427  0.00  0.00    +0.000 OA
ATOM      8  C   UNL     1      -6.454  15.260  23.827  0.00  0.00    +0.000 A 
ATOM      9  C   UNL     1      -7.898  15.516  24.035  0.00  0.00    +0.000 C 
ATOM     10  C   UNL     1      -5.742  14.316  23.101  0.00  0.00    +0.000 A 
ATOM     11  C   UNL     1      -6.294  13.143  22.436  0.00  0.00    +0.000 A 
ATOM     12  O   UNL     1      -7.398  12.686  22.727  0.00  0.00    +0.000 OA
ATOM     13  C   UNL     1      -5.527  12.463  21.329  0.00  0.00    +0.000 A 
ENDROOT
BRANCH   1  17
ATOM     14  C   UNL     1      -3.982  11.098  16.764  0.00  0.00    +0.000 A 
ATOM     15  C   UNL     1      -5.222  11.539  17.220  0.00  0.00    +0.000 A 
ATOM     16  C   UNL     1      -5.343  12.118  18.485  0.00  0.00    +0.000 A 
ATOM     17  C   UNL     1      -4.226  12.248  19.326  0.00  0.00    +0.000 A 
ATOM     18  C   UNL     1      -2.989  11.778  18.880  0.00  0.00    +0.000 A 
ATOM     19  C   UNL     1      -2.870  11.196  17.606  0.00  0.00    +0.000 A 
BRANCH  14  20
ATOM     20  O   UNL     1      -3.985  10.586  15.495  0.00  0.00    +0.000 OA
BRANCH  20  22
ATOM     21  C   UNL     1      -2.905   9.744  13.532  0.00  0.00    +0.000 C 
ATOM     22  C   UNL     1      -2.717  10.185  14.974  0.00  0.00    +0.000 C 
ENDBRANCH  20  22
ENDBRANCH  14  20
ENDBRANCH   1  17
BRANCH   3  23
ATOM     23  O   UNL     1      -2.729  13.164  23.087  0.00  0.00    +0.000 OA
BRANCH  23  24
ATOM     24  C   UNL     1      -1.388  13.406  23.108  0.00  0.00    +0.000 C 
ATOM     25  O   UNL     1      -0.793  14.223  23.802  0.00  0.00    +0.000 OA
BRANCH  24  26
ATOM     26  C   UNL     1      -0.660  12.487  22.187  0.00  0.00    +0.000 A 
ATOM     27  C   UNL     1      -0.920  11.117  22.321  0.00  0.00    +0.000 A 
ATOM     28  C   UNL     1      -0.314  10.192  21.469  0.00  0.00    +0.000 A 
ATOM     29  C   UNL     1       0.541  10.623  20.460  0.00  0.00    +0.000 A 
ATOM     30  C   UNL     1       0.835  11.982  20.335  0.00  0.00    +0.000 A 
ATOM     31  C   UNL     1       0.236  12.917  21.197  0.00  0.00    +0.000 A 
BRANCH  29  32
ATOM     32  O   UNL     1       1.062   9.626  19.683  0.00  0.00    +0.000 OA
ATOM     33  C   UNL     1       0.939   9.820  18.278  0.00  0.00    +0.000 C 
ENDBRANCH  29  32
ENDBRANCH  24  26
ENDBRANCH  23  24
ENDBRANCH   3  23
TORSDOF 7
ENDMDL
MODEL 6
REMARK VINA RESULT:      -6.6      0.597      1.026
REMARK  Name = 
REMARK  11 active torsions:
REMARK  status: ('A' for Active; 'I' for Inactive)
REMARK    1  A    between atoms: C_1  and  C_2
REMARK    2  A    between atoms: C_2  and  O_3
REMARK    3  A    between atoms: O_3  and  C_4
REMARK    4  A    between atoms: C_7  and  C_8
REMARK    5  A    between atoms: C_10  and  O_11
REMARK    6  A    between atoms: O_11  and  C_12
REMARK    7  A    between atoms: C_12  and  C_14
REMARK    8  A    between atoms: C_17  and  O_18
REMARK    9  A    between atoms: O_18  and  C_19
REMARK   10  A    between atoms: C_23  and  C_24
REMARK   11  A    between atoms: C_26  and  C_27
REMARK                            x       y       z     vdW  Elec       q    Type
REMARK                         _______ _______ _______ _____ _____    ______ ____
ROOT
ATOM      1  C   UNL     1      -4.086  12.593  20.290  0.00  0.00    +0.000 A 
ATOM      2  C   UNL     1      -3.315  13.672  20.912  0.00  0.00    +0.000 A 
ATOM      3  C   UNL     1      -3.104  13.626  22.249  0.00  0.00    +0.000 A 
ATOM      4  C   UNL     1      -4.177  14.153  23.017  0.00  0.00    +0.000 A 
ATOM      5  C   UNL     1      -4.143  15.061  24.050  0.00  0.00    +0.000 A 
ATOM      6  C   UNL     1      -3.086  15.741  24.823  0.00  0.00    +0.000 C 
ATOM      7  O   UNL     1      -5.424  15.390  24.385  0.00  0.00    +0.000 OA
ATOM      8  C   UNL     1      -6.259  14.644  23.604  0.00  0.00    +0.000 A 
ATOM      9  C   UNL     1      -7.703  14.950  23.739  0.00  0.00    +0.000 C 
ATOM     10  C   UNL     1      -5.535  13.771  22.807  0.00  0.00    +0.000 A 
ATOM     11  C   UNL     1      -6.083  12.732  21.944  0.00  0.00    +0.000 A 
ATOM     12  O   UNL     1      -7.227  12.303  22.085  0.00  0.00    +0.000 OA
ATOM     13  C   UNL     1      -5.260  12.170  20.811  0.00  0.00    +0.000 A 
ENDROOT
BRANCH   1  17
ATOM     14  C   UNL     1      -3.416  11.354  16.227  0.00  0.00    +0.000 A 
ATOM     15  C   UNL     1      -4.683  11.734  16.666  0.00  0.00    +0.000 A 
ATOM     16  C   UNL     1      -4.880  12.142  17.986  0.00  0.00    +0.000 A 
ATOM     17  C   UNL     1      -3.812  12.160  18.899  0.00  0.00    +0.000 A 
ATOM     18  C   UNL     1      -2.549  11.751  18.467  0.00  0.00    +0.000 A 
ATOM     19  C   UNL     1      -2.355  11.341  17.137  0.00  0.00    +0.000 A 
BRANCH  14  20
ATOM     20  O   UNL     1      -3.343  11.013  14.904  0.00  0.00    +0.000 OA
BRANCH  20  22
ATOM     21  C   UNL     1      -2.813   9.499  13.128  0.00  0.00    +0.000 C 
ATOM     22  C   UNL     1      -3.060   9.642  14.621  0.00  0.00    +0.000 C 
ENDBRANCH  20  22
ENDBRANCH  14  20
ENDBRANCH   1  17
BRANCH   3  23
ATOM     23  O   UNL     1      -2.585  12.465  22.853  0.00  0.00    +0.000 OA
BRANCH  23  24
ATOM     24  C   UNL     1      -1.227  12.568  22.882  0.00  0.00    +0.000 C 
ATOM     25  O   UNL     1      -0.558  13.359  23.538  0.00  0.00    +0.000 OA
BRANCH  24  26
ATOM     26  C   UNL     1      -0.588  11.525  22.029  0.00  0.00    +0.000 A 
ATOM     27  C   UNL     1       0.124  11.971  20.907  0.00  0.00    +0.000 A 
ATOM     28  C   UNL     1       0.789  11.064  20.081  0.00  0.00    +0.000 A 
ATOM     29  C   UNL     1       0.772   9.704  20.376  0.00  0.00    +0.000 A 
ATOM     30  C   UNL     1       0.040   9.242  21.471  0.00  0.00    +0.000 A 
ATOM     31  C   UNL     1      -0.641  10.150  22.301  0.00  0.00    +0.000 A 
BRANCH  29  32
ATOM     32  O   UNL     1       1.469   8.918  19.502  0.00  0.00    +0.000 OA
ATOM     33  C   UNL     1       1.310   9.247  18.125  0.00  0.00    +0.000 C 
ENDBRANCH  29  32
ENDBRANCH  24  26
ENDBRANCH  23  24
ENDBRANCH   3  23
TORSDOF 7
ENDMDL
MODEL 7
REMARK VINA RESULT:      -6.6      3.929      7.061
REMARK  Name = 
REMARK  11 active torsions:
REMARK  status: ('A' for Active; 'I' for Inactive)
REMARK    1  A    between atoms: C_1  and  C_2
REMARK    2  A    between atoms: C_2  and  O_3
REMARK    3  A    between atoms: O_3  and  C_4
REMARK    4  A    between atoms: C_7  and  C_8
REMARK    5  A    between atoms: C_10  and  O_11
REMARK    6  A    between atoms: O_11  and  C_12
REMARK    7  A    between atoms: C_12  and  C_14
REMARK    8  A    between atoms: C_17  and  O_18
REMARK    9  A    between atoms: O_18  and  C_19
REMARK   10  A    between atoms: C_23  and  C_24
REMARK   11  A    between atoms: C_26  and  C_27
REMARK                            x       y       z     vdW  Elec       q    Type
REMARK                         _______ _______ _______ _____ _____    ______ ____
ROOT
ATOM      1  C   UNL     1       1.181   9.246  20.421  0.00  0.00    +0.000 A 
ATOM      2  C   UNL     1       0.606  10.224  19.494  0.00  0.00    +0.000 A 
ATOM      3  C   UNL     1       0.748  11.541  19.777  0.00  0.00    +0.000 A 
ATOM      4  C   UNL     1      -0.231  12.042  20.677  0.00  0.00    +0.000 A 
ATOM      5  C   UNL     1      -1.011  13.171  20.573  0.00  0.00    +0.000 A 
ATOM      6  C   UNL     1      -1.099  14.311  19.641  0.00  0.00    +0.000 C 
ATOM      7  O   UNL     1      -1.915  13.172  21.595  0.00  0.00    +0.000 OA
ATOM      8  C   UNL     1      -1.663  12.078  22.371  0.00  0.00    +0.000 A 
ATOM      9  C   UNL     1      -2.626  11.840  23.472  0.00  0.00    +0.000 C 
ATOM     10  C   UNL     1      -0.549  11.395  21.908  0.00  0.00    +0.000 A 
ATOM     11  C   UNL     1       0.098  10.259  22.552  0.00  0.00    +0.000 A 
ATOM     12  O   UNL     1      -0.075   9.998  23.741  0.00  0.00    +0.000 OA
ATOM     13  C   UNL     1       0.988   9.336  21.757  0.00  0.00    +0.000 A 
ENDROOT
BRANCH   1  17
ATOM     14  C   UNL     1       2.708   5.521  18.908  0.00  0.00    +0.000 A 
ATOM     15  C   UNL     1       2.809   6.697  18.167  0.00  0.00    +0.000 A 
ATOM     16  C   UNL     1       2.316   7.899  18.679  0.00  0.00    +0.000 A 
ATOM     17  C   UNL     1       1.694   7.942  19.937  0.00  0.00    +0.000 A 
ATOM     18  C   UNL     1       1.566   6.758  20.667  0.00  0.00    +0.000 A 
ATOM     19  C   UNL     1       2.064   5.551  20.149  0.00  0.00    +0.000 A 
BRANCH  14  20
ATOM     20  O   UNL     1       3.262   4.418  18.318  0.00  0.00    +0.000 OA
BRANCH  20  22
ATOM     21  C   UNL     1       2.117   2.322  18.174  0.00  0.00    +0.000 C 
ATOM     22  C   UNL     1       2.397   3.647  17.484  0.00  0.00    +0.000 C 
ENDBRANCH  20  22
ENDBRANCH  14  20
ENDBRANCH   1  17
BRANCH   3  23
ATOM     23  O   UNL     1       2.015  12.078  20.073  0.00  0.00    +0.000 OA
BRANCH  23  24
ATOM     24  C   UNL     1       2.420  12.829  19.010  0.00  0.00    +0.000 C 
ATOM     25  O   UNL     1       2.437  12.495  17.830  0.00  0.00    +0.000 OA
BRANCH  24  26
ATOM     26  C   UNL     1       2.814  14.202  19.438  0.00  0.00    +0.000 A 
ATOM     27  C   UNL     1       3.558  14.963  18.527  0.00  0.00    +0.000 A 
ATOM     28  C   UNL     1       3.929  16.273  18.830  0.00  0.00    +0.000 A 
ATOM     29  C   UNL     1       3.544  16.849  20.037  0.00  0.00    +0.000 A 
ATOM     30  C   UNL     1       2.830  16.093  20.968  0.00  0.00    +0.000 A 
ATOM     31  C   UNL     1       2.463  14.769  20.672  0.00  0.00    +0.000 A 
BRANCH  29  32
ATOM     32  O   UNL     1       3.956  18.140  20.215  0.00  0.00    +0.000 OA
ATOM     33  C   UNL     1       5.280  18.295  20.714  0.00  0.00    +0.000 C 
ENDBRANCH  29  32
ENDBRANCH  24  26
ENDBRANCH  23  24
ENDBRANCH   3  23
TORSDOF 7
ENDMDL
MODEL 8
REMARK VINA RESULT:      -6.6      0.956      1.277
REMARK  Name = 
REMARK  11 active torsions:
REMARK  status: ('A' for Active; 'I' for Inactive)
REMARK    1  A    between atoms: C_1  and  C_2
REMARK    2  A    between atoms: C_2  and  O_3
REMARK    3  A    between atoms: O_3  and  C_4
REMARK    4  A    between atoms: C_7  and  C_8
REMARK    5  A    between atoms: C_10  and  O_11
REMARK    6  A    between atoms: O_11  and  C_12
REMARK    7  A    between atoms: C_12  and  C_14
REMARK    8  A    between atoms: C_17  and  O_18
REMARK    9  A    between atoms: O_18  and  C_19
REMARK   10  A    between atoms: C_23  and  C_24
REMARK   11  A    between atoms: C_26  and  C_27
REMARK                            x       y       z     vdW  Elec       q    Type
REMARK                         _______ _______ _______ _____ _____    ______ ____
ROOT
ATOM      1  C   UNL     1      -4.108  12.586  20.106  0.00  0.00    +0.000 A 
ATOM      2  C   UNL     1      -3.214  13.649  20.575  0.00  0.00    +0.000 A 
ATOM      3  C   UNL     1      -3.069  13.828  21.909  0.00  0.00    +0.000 A 
ATOM      4  C   UNL     1      -4.086  14.633  22.491  0.00  0.00    +0.000 A 
ATOM      5  C   UNL     1      -3.964  15.708  23.342  0.00  0.00    +0.000 A 
ATOM      6  C   UNL     1      -2.852  16.372  24.051  0.00  0.00    +0.000 C 
ATOM      7  O   UNL     1      -5.196  16.265  23.521  0.00  0.00    +0.000 OA
ATOM      8  C   UNL     1      -6.097  15.506  22.833  0.00  0.00    +0.000 A 
ATOM      9  C   UNL     1      -7.484  16.025  22.809  0.00  0.00    +0.000 C 
ATOM     10  C   UNL     1      -5.475  14.406  22.260  0.00  0.00    +0.000 A 
ATOM     11  C   UNL     1      -6.132  13.308  21.564  0.00  0.00    +0.000 A 
ATOM     12  O   UNL     1      -7.331  13.072  21.701  0.00  0.00    +0.000 OA
ATOM     13  C   UNL     1      -5.353  12.433  20.613  0.00  0.00    +0.000 A 
ENDROOT
BRANCH   1  17
ATOM     14  C   UNL     1      -3.224  10.442  16.485  0.00  0.00    +0.000 A 
ATOM     15  C   UNL     1      -2.371  10.381  17.586  0.00  0.00    +0.000 A 
ATOM     16  C   UNL     1      -2.680  11.076  18.757  0.00  0.00    +0.000 A 
ATOM     17  C   UNL     1      -3.840  11.863  18.840  0.00  0.00    +0.000 A 
ATOM     18  C   UNL     1      -4.679  11.948  17.727  0.00  0.00    +0.000 A 
ATOM     19  C   UNL     1      -4.365  11.247  16.550  0.00  0.00    +0.000 A 
BRANCH  14  20
ATOM     20  O   UNL     1      -2.834   9.687  15.413  0.00  0.00    +0.000 OA
BRANCH  20  22
ATOM     21  C   UNL     1      -4.268   9.576  13.501  0.00  0.00    +0.000 C 
ATOM     22  C   UNL     1      -3.062  10.258  14.124  0.00  0.00    +0.000 C 
ENDBRANCH  20  22
ENDBRANCH  14  20
ENDBRANCH   1  17
BRANCH   3  23
ATOM     23  O   UNL     1      -2.754  12.744  22.748  0.00  0.00    +0.000 OA
BRANCH  23  24
ATOM     24  C   UNL     1      -1.417  12.782  23.013  0.00  0.00    +0.000 C 
ATOM     25  O   UNL     1      -0.812  13.640  23.646  0.00  0.00    +0.000 OA
BRANCH  24  26
ATOM     26  C   UNL     1      -0.725  11.578  22.472  0.00  0.00    +0.000 A 
ATOM     27  C   UNL     1      -0.841  10.393  23.211  0.00  0.00    +0.000 A 
ATOM     28  C   UNL     1      -0.261   9.209  22.753  0.00  0.00    +0.000 A 
ATOM     29  C   UNL     1       0.422   9.187  21.541  0.00  0.00    +0.000 A 
ATOM     30  C   UNL     1       0.573  10.366  20.810  0.00  0.00    +0.000 A 
ATOM     31  C   UNL     1       0.000  11.564  21.272  0.00  0.00    +0.000 A 
BRANCH  29  32
ATOM     32  O   UNL     1       0.934   7.969  21.192  0.00  0.00    +0.000 OA
ATOM     33  C   UNL     1       1.755   7.962  20.029  0.00  0.00    +0.000 C 
ENDBRANCH  29  32
ENDBRANCH  24  26
ENDBRANCH  23  24
ENDBRANCH   3  23
TORSDOF 7
ENDMDL
MODEL 9
REMARK VINA RESULT:      -6.5      2.495      6.313
REMARK  Name = 
REMARK  11 active torsions:
REMARK  status: ('A' for Active; 'I' for Inactive)
REMARK    1  A    between atoms: C_1  and  C_2
REMARK    2  A    between atoms: C_2  and  O_3
REMARK    3  A    between atoms: O_3  and  C_4
REMARK    4  A    between atoms: C_7  and  C_8
REMARK    5  A    between atoms: C_10  and  O_11
REMARK    6  A    between atoms: O_11  and  C_12
REMARK    7  A    between atoms: C_12  and  C_14
REMARK    8  A    between atoms: C_17  and  O_18
REMARK    9  A    between atoms: O_18  and  C_19
REMARK   10  A    between atoms: C_23  and  C_24
REMARK   11  A    between atoms: C_26  and  C_27
REMARK                            x       y       z     vdW  Elec       q    Type
REMARK                         _______ _______ _______ _____ _____    ______ ____
ROOT
ATOM      1  C   UNL     1       0.544  11.471  20.418  0.00  0.00    +0.000 A 
ATOM      2  C   UNL     1      -0.621  11.726  21.270  0.00  0.00    +0.000 A 
ATOM      3  C   UNL     1      -1.396  12.803  20.997  0.00  0.00    +0.000 A 
ATOM      4  C   UNL     1      -0.909  14.015  21.557  0.00  0.00    +0.000 A 
ATOM      5  C   UNL     1      -1.582  14.967  22.288  0.00  0.00    +0.000 A 
ATOM      6  C   UNL     1      -2.984  15.196  22.685  0.00  0.00    +0.000 C 
ATOM      7  O   UNL     1      -0.680  15.882  22.747  0.00  0.00    +0.000 OA
ATOM      8  C   UNL     1       0.546  15.538  22.254  0.00  0.00    +0.000 A 
ATOM      9  C   UNL     1       1.683  16.352  22.744  0.00  0.00    +0.000 C 
ATOM     10  C   UNL     1       0.444  14.441  21.411  0.00  0.00    +0.000 A 
ATOM     11  C   UNL     1       1.514  13.872  20.602  0.00  0.00    +0.000 A 
ATOM     12  O   UNL     1       2.533  14.505  20.328  0.00  0.00    +0.000 OA
ATOM     13  C   UNL     1       1.417  12.453  20.098  0.00  0.00    +0.000 A 
ENDROOT
BRANCH   1  17
ATOM     14  C   UNL     1       1.880   7.433  19.787  0.00  0.00    +0.000 A 
ATOM     15  C   UNL     1       1.388   7.845  21.024  0.00  0.00    +0.000 A 
ATOM     16  C   UNL     1       0.949   9.158  21.207  0.00  0.00    +0.000 A 
ATOM     17  C   UNL     1       1.014  10.090  20.158  0.00  0.00    +0.000 A 
ATOM     18  C   UNL     1       1.536   9.685  18.928  0.00  0.00    +0.000 A 
ATOM     19  C   UNL     1       1.975   8.362  18.747  0.00  0.00    +0.000 A 
BRANCH  14  20
ATOM     20  O   UNL     1       2.241   6.115  19.721  0.00  0.00    +0.000 OA
BRANCH  20  22
ATOM     21  C   UNL     1       1.260   3.970  20.126  0.00  0.00    +0.000 C 
ATOM     22  C   UNL     1       1.735   5.269  20.755  0.00  0.00    +0.000 C 
ENDBRANCH  20  22
ENDBRANCH  14  20
ENDBRANCH   1  17
BRANCH   3  23
ATOM     23  O   UNL     1      -1.890  13.020  19.697  0.00  0.00    +0.000 OA
BRANCH  23  24
ATOM     24  C   UNL     1      -3.015  12.268  19.535  0.00  0.00    +0.000 C 
ATOM     25  O   UNL     1      -4.007  12.254  20.255  0.00  0.00    +0.000 OA
BRANCH  24  26
ATOM     26  C   UNL     1      -2.944  11.451  18.290  0.00  0.00    +0.000 A 
ATOM     27  C   UNL     1      -3.904  11.712  17.304  0.00  0.00    +0.000 A 
ATOM     28  C   UNL     1      -3.882  11.024  16.090  0.00  0.00    +0.000 A 
ATOM     29  C   UNL     1      -2.889  10.083  15.835  0.00  0.00    +0.000 A 
ATOM     30  C   UNL     1      -1.945   9.790  16.820  0.00  0.00    +0.000 A 
ATOM     31  C   UNL     1      -1.968  10.472  18.049  0.00  0.00    +0.000 A 
BRANCH  29  32
ATOM     32  O   UNL     1      -2.965   9.485  14.608  0.00  0.00    +0.000 OA
ATOM     33  C   UNL     1      -4.049   9.910  13.789  0.00  0.00    +0.000 C 
ENDBRANCH  29  32
ENDBRANCH  24  26
ENDBRANCH  23  24
ENDBRANCH   3  23
TORSDOF 7
ENDMDL
