MODEL 1
REMARK VINA RESULT:      -6.2      0.000      0.000
REMARK  Name = 
REMARK  7 active torsions:
REMARK  status: ('A' for Active; 'I' for Inactive)
REMARK    1  A    between atoms: C_1  and  O_2
REMARK    2  A    between atoms: O_2  and  C_3
REMARK    3  A    between atoms: C_5  and  N_6
REMARK    4  A    between atoms: C_7  and  S_8
REMARK    5  A    between atoms: C_13  and  C_14
REMARK    6  A    between atoms: C_16  and  O_17
REMARK    7  A    between atoms: O_17  and  C_18
REMARK                            x       y       z     vdW  Elec       q    Type
REMARK                         _______ _______ _______ _____ _____    ______ ____
ROOT
ATOM      1  C   UNL     1       5.758   4.177  13.732  0.00  0.00    +0.000 A 
ATOM      2  C   UNL     1       5.163   3.927  14.973  0.00  0.00    +0.000 A 
ATOM      3  C   UNL     1       5.700   4.442  16.162  0.00  0.00    +0.000 A 
ATOM      4  C   UNL     1       6.988   5.023  16.115  0.00  0.00    +0.000 A 
ATOM      5  C   UNL     1       7.643   5.176  14.879  0.00  0.00    +0.000 A 
ATOM      6  C   UNL     1       7.008   4.787  13.694  0.00  0.00    +0.000 A 
ATOM      7 CL   UNL     1       7.818   5.091  12.200  0.00  0.00    +0.000 Cl
ENDROOT
BRANCH   3   8
ATOM      8  N   UNL     1       4.988   4.323  17.380  0.00  0.00    +0.000 NA
ATOM      9  C   UNL     1       4.269   5.259  17.948  0.00  0.00    +0.000 C 
ATOM     10  N   UNL     1       3.602   5.035  19.152  0.00  0.00    +0.000 N 
ATOM     11  C   UNL     1       3.074   6.078  20.035  0.00  0.00    +0.000 C 
ATOM     12  C   UNL     1       1.565   5.904  20.151  0.00  0.00    +0.000 C 
ATOM     13  C   UNL     1       1.251   4.535  20.743  0.00  0.00    +0.000 C 
ATOM     14  C   UNL     1       1.927   3.407  19.942  0.00  0.00    +0.000 C 
ATOM     15  C   UNL     1       1.722   2.075  20.658  0.00  0.00    +0.000 C 
ATOM     16  C   UNL     1       3.429   3.684  19.698  0.00  0.00    +0.000 C 
BRANCH   9  17
ATOM     17  S   UNL     1       4.021   6.881  17.251  0.00  0.00    +0.000 S 
ATOM     18  H   UNL     1       4.815   7.567  18.072  0.00  0.00    +0.000 HD
ENDBRANCH   9  17
ENDBRANCH   3   8
BRANCH   1  20
ATOM     19  C   UNL     1       5.606   2.599  11.982  0.00  0.00    +0.000 C 
ATOM     20  O   UNL     1       5.156   3.832  12.547  0.00  0.00    +0.000 OA
ENDBRANCH   1  20
BRANCH   4  21
ATOM     21  O   UNL     1       7.549   5.391  17.316  0.00  0.00    +0.000 OA
ATOM     22  C   UNL     1       7.646   6.781  17.604  0.00  0.00    +0.000 C 
ENDBRANCH   4  21
TORSDOF 4
ENDMDL
MODEL 2
REMARK VINA RESULT:      -5.6      3.874      5.744
REMARK  Name = 
REMARK  7 active torsions:
REMARK  status: ('A' for Active; 'I' for Inactive)
REMARK    1  A    between atoms: C_1  and  O_2
REMARK    2  A    between atoms: O_2  and  C_3
REMARK    3  A    between atoms: C_5  and  N_6
REMARK    4  A    between atoms: C_7  and  S_8
REMARK    5  A    between atoms: C_13  and  C_14
REMARK    6  A    between atoms: C_16  and  O_17
REMARK    7  A    between atoms: O_17  and  C_18
REMARK                            x       y       z     vdW  Elec       q    Type
REMARK                         _______ _______ _______ _____ _____    ______ ____
ROOT
ATOM      1  C   UNL     1       4.374   5.912  17.155  0.00  0.00    +0.000 A 
ATOM      2  C   UNL     1       3.718   6.919  17.870  0.00  0.00    +0.000 A 
ATOM      3  C   UNL     1       2.827   6.619  18.911  0.00  0.00    +0.000 A 
ATOM      4  C   UNL     1       2.418   5.276  19.073  0.00  0.00    +0.000 A 
ATOM      5  C   UNL     1       2.993   4.268  18.276  0.00  0.00    +0.000 A 
ATOM      6  C   UNL     1       3.992   4.587  17.350  0.00  0.00    +0.000 A 
ATOM      7 CL   UNL     1       4.731   3.298  16.473  0.00  0.00    +0.000 Cl
ENDROOT
BRANCH   3   8
ATOM      8  N   UNL     1       2.311   7.651  19.733  0.00  0.00    +0.000 NA
ATOM      9  C   UNL     1       1.681   8.722  19.321  0.00  0.00    +0.000 C 
ATOM     10  N   UNL     1       1.207   9.679  20.218  0.00  0.00    +0.000 N 
ATOM     11  C   UNL     1       0.812  11.046  19.870  0.00  0.00    +0.000 C 
ATOM     12  C   UNL     1      -0.659  11.234  20.214  0.00  0.00    +0.000 C 
ATOM     13  C   UNL     1      -0.868  11.013  21.708  0.00  0.00    +0.000 C 
ATOM     14  C   UNL     1      -0.314   9.649  22.158  0.00  0.00    +0.000 C 
ATOM     15  C   UNL     1      -0.397   9.539  23.678  0.00  0.00    +0.000 C 
ATOM     16  C   UNL     1       1.130   9.413  21.660  0.00  0.00    +0.000 C 
BRANCH   9  17
ATOM     17  S   UNL     1       1.316   9.064  17.610  0.00  0.00    +0.000 S 
ATOM     18  H   UNL     1       0.175   8.382  17.516  0.00  0.00    +0.000 HD
ENDBRANCH   9  17
ENDBRANCH   3   8
BRANCH   1  20
ATOM     19  C   UNL     1       6.679   6.305  16.828  0.00  0.00    +0.000 C 
ATOM     20  O   UNL     1       5.375   6.184  16.255  0.00  0.00    +0.000 OA
ENDBRANCH   1  20
BRANCH   4  21
ATOM     21  O   UNL     1       1.438   5.031  20.007  0.00  0.00    +0.000 OA
ATOM     22  C   UNL     1       0.936   3.703  20.108  0.00  0.00    +0.000 C 
ENDBRANCH   4  21
TORSDOF 4
ENDMDL
MODEL 3
REMARK VINA RESULT:      -5.5      1.560      2.121
REMARK  Name = 
REMARK  7 active torsions:
REMARK  status: ('A' for Active; 'I' for Inactive)
REMARK    1  A    between atoms: C_1  and  O_2
REMARK    2  A    between atoms: O_2  and  C_3
REMARK    3  A    between atoms: C_5  and  N_6
REMARK    4  A    between atoms: C_7  and  S_8
REMARK    5  A    between atoms: C_13  and  C_14
REMARK    6  A    between atoms: C_16  and  O_17
REMARK    7  A    between atoms: O_17  and  C_18
REMARK                            x       y       z     vdW  Elec       q    Type
REMARK                         _______ _______ _______ _____ _____    ______ ____
ROOT
ATOM      1  C   UNL     1       6.059   4.218  13.840  0.00  0.00    +0.000 A 
ATOM      2  C   UNL     1       5.070   4.059  14.817  0.00  0.00    +0.000 A 
ATOM      3  C   UNL     1       5.104   4.780  16.019  0.00  0.00    +0.000 A 
ATOM      4  C   UNL     1       6.280   5.498  16.334  0.00  0.00    +0.000 A 
ATOM      5  C   UNL     1       7.329   5.569  15.398  0.00  0.00    +0.000 A 
ATOM      6  C   UNL     1       7.196   4.961  14.145  0.00  0.00    +0.000 A 
ATOM      7 CL   UNL     1       8.472   5.166  13.001  0.00  0.00    +0.000 Cl
ENDROOT
BRANCH   3   8
ATOM      8  N   UNL     1       4.006   4.734  16.914  0.00  0.00    +0.000 NA
ATOM      9  C   UNL     1       3.565   3.671  17.538  0.00  0.00    +0.000 C 
ATOM     10  N   UNL     1       2.475   3.736  18.406  0.00  0.00    +0.000 N 
ATOM     11  C   UNL     1       1.693   2.588  18.873  0.00  0.00    +0.000 C 
ATOM     12  C   UNL     1       1.807   2.503  20.389  0.00  0.00    +0.000 C 
ATOM     13  C   UNL     1       1.255   3.778  21.017  0.00  0.00    +0.000 C 
ATOM     14  C   UNL     1       1.932   5.031  20.432  0.00  0.00    +0.000 C 
ATOM     15  C   UNL     1       1.241   6.283  20.966  0.00  0.00    +0.000 C 
ATOM     16  C   UNL     1       1.947   5.018  18.886  0.00  0.00    +0.000 C 
BRANCH   9  17
ATOM     17  S   UNL     1       4.309   2.057  17.400  0.00  0.00    +0.000 S 
ATOM     18  H   UNL     1       4.186   1.900  16.083  0.00  0.00    +0.000 HD
ENDBRANCH   9  17
ENDBRANCH   3   8
BRANCH   1  20
ATOM     19  C   UNL     1       4.616   3.382  12.169  0.00  0.00    +0.000 C 
ATOM     20  O   UNL     1       5.952   3.657  12.591  0.00  0.00    +0.000 OA
ENDBRANCH   1  20
BRANCH   4  21
ATOM     21  O   UNL     1       6.341   6.078  17.580  0.00  0.00    +0.000 OA
ATOM     22  C   UNL     1       7.355   5.627  18.472  0.00  0.00    +0.000 C 
ENDBRANCH   4  21
TORSDOF 4
ENDMDL
MODEL 4
REMARK VINA RESULT:      -5.2      4.088      5.726
REMARK  Name = 
REMARK  7 active torsions:
REMARK  status: ('A' for Active; 'I' for Inactive)
REMARK    1  A    between atoms: C_1  and  O_2
REMARK    2  A    between atoms: O_2  and  C_3
REMARK    3  A    between atoms: C_5  and  N_6
REMARK    4  A    between atoms: C_7  and  S_8
REMARK    5  A    between atoms: C_13  and  C_14
REMARK    6  A    between atoms: C_16  and  O_17
REMARK    7  A    between atoms: O_17  and  C_18
REMARK                            x       y       z     vdW  Elec       q    Type
REMARK                         _______ _______ _______ _____ _____    ______ ____
ROOT
ATOM      1  C   UNL     1       2.433   2.685  19.513  0.00  0.00    +0.000 A 
ATOM      2  C   UNL     1       2.082   3.933  20.041  0.00  0.00    +0.000 A 
ATOM      3  C   UNL     1       2.954   5.029  19.977  0.00  0.00    +0.000 A 
ATOM      4  C   UNL     1       4.291   4.795  19.581  0.00  0.00    +0.000 A 
ATOM      5  C   UNL     1       4.681   3.512  19.155  0.00  0.00    +0.000 A 
ATOM      6  C   UNL     1       3.742   2.477  19.088  0.00  0.00    +0.000 A 
ATOM      7 CL   UNL     1       4.254   0.952  18.463  0.00  0.00    +0.000 Cl
ENDROOT
BRANCH   3   8
ATOM      8  N   UNL     1       2.513   6.319  20.358  0.00  0.00    +0.000 NA
ATOM      9  C   UNL     1       2.116   7.269  19.549  0.00  0.00    +0.000 C 
ATOM     10  N   UNL     1       1.695   8.508  20.031  0.00  0.00    +0.000 N 
ATOM     11  C   UNL     1       1.569   9.731  19.233  0.00  0.00    +0.000 C 
ATOM     12  C   UNL     1       0.115  10.184  19.258  0.00  0.00    +0.000 C 
ATOM     13  C   UNL     1      -0.307  10.473  20.694  0.00  0.00    +0.000 C 
ATOM     14  C   UNL     1      -0.037   9.268  21.613  0.00  0.00    +0.000 C 
ATOM     15  C   UNL     1      -0.321   9.655  23.062  0.00  0.00    +0.000 C 
ATOM     16  C   UNL     1       1.402   8.723  21.453  0.00  0.00    +0.000 C 
BRANCH   9  17
ATOM     17  S   UNL     1       2.022   7.090  17.778  0.00  0.00    +0.000 S 
ATOM     18  H   UNL     1       0.706   6.908  17.672  0.00  0.00    +0.000 HD
ENDBRANCH   9  17
ENDBRANCH   3   8
BRANCH   1  20
ATOM     19  C   UNL     1       0.353   1.959  18.664  0.00  0.00    +0.000 C 
ATOM     20  O   UNL     1       1.533   1.653  19.409  0.00  0.00    +0.000 OA
ENDBRANCH   1  20
BRANCH   4  21
ATOM     21  O   UNL     1       5.160   5.858  19.664  0.00  0.00    +0.000 OA
ATOM     22  C   UNL     1       6.437   5.720  19.050  0.00  0.00    +0.000 C 
ENDBRANCH   4  21
TORSDOF 4
ENDMDL
MODEL 5
REMARK VINA RESULT:      -5.2      9.339     11.595
REMARK  Name = 
REMARK  7 active torsions:
REMARK  status: ('A' for Active; 'I' for Inactive)
REMARK    1  A    between atoms: C_1  and  O_2
REMARK    2  A    between atoms: O_2  and  C_3
REMARK    3  A    between atoms: C_5  and  N_6
REMARK    4  A    between atoms: C_7  and  S_8
REMARK    5  A    between atoms: C_13  and  C_14
REMARK    6  A    between atoms: C_16  and  O_17
REMARK    7  A    between atoms: O_17  and  C_18
REMARK                            x       y       z     vdW  Elec       q    Type
REMARK                         _______ _______ _______ _____ _____    ______ ____
ROOT
ATOM      1  C   UNL     1       0.513  10.347  19.265  0.00  0.00    +0.000 A 
ATOM      2  C   UNL     1       0.402  11.710  18.971  0.00  0.00    +0.000 A 
ATOM      3  C   UNL     1       0.408  12.682  19.983  0.00  0.00    +0.000 A 
ATOM      4  C   UNL     1       0.288  12.249  21.324  0.00  0.00    +0.000 A 
ATOM      5  C   UNL     1       0.285  10.873  21.618  0.00  0.00    +0.000 A 
ATOM      6  C   UNL     1       0.434   9.934  20.591  0.00  0.00    +0.000 A 
ATOM      7 CL   UNL     1       0.524   8.265  21.022  0.00  0.00    +0.000 Cl
ENDROOT
BRANCH   3   8
ATOM      8  N   UNL     1       0.471  14.058  19.655  0.00  0.00    +0.000 NA
ATOM      9  C   UNL     1       1.446  14.655  19.016  0.00  0.00    +0.000 C 
ATOM     10  N   UNL     1       1.406  16.020  18.738  0.00  0.00    +0.000 N 
ATOM     11  C   UNL     1       2.558  16.842  18.355  0.00  0.00    +0.000 C 
ATOM     12  C   UNL     1       2.307  17.421  16.968  0.00  0.00    +0.000 C 
ATOM     13  C   UNL     1       1.054  18.289  16.995  0.00  0.00    +0.000 C 
ATOM     14  C   UNL     1      -0.155  17.515  17.552  0.00  0.00    +0.000 C 
ATOM     15  C   UNL     1      -1.340  18.464  17.712  0.00  0.00    +0.000 C 
ATOM     16  C   UNL     1       0.172  16.802  18.884  0.00  0.00    +0.000 C 
BRANCH   9  17
ATOM     17  S   UNL     1       2.888  13.812  18.394  0.00  0.00    +0.000 S 
ATOM     18  H   UNL     1       3.807  14.703  18.762  0.00  0.00    +0.000 HD
ENDBRANCH   9  17
ENDBRANCH   3   8
BRANCH   1  20
ATOM     19  C   UNL     1       2.031   9.236  17.838  0.00  0.00    +0.000 C 
ATOM     20  O   UNL     1       0.684   9.398  18.287  0.00  0.00    +0.000 OA
ENDBRANCH   1  20
BRANCH   4  21
ATOM     21  O   UNL     1       0.153  13.226  22.283  0.00  0.00    +0.000 OA
ATOM     22  C   UNL     1      -1.124  13.384  22.891  0.00  0.00    +0.000 C 
ENDBRANCH   4  21
TORSDOF 4
ENDMDL
MODEL 6
REMARK VINA RESULT:      -5.2      9.041     11.270
REMARK  Name = 
REMARK  7 active torsions:
REMARK  status: ('A' for Active; 'I' for Inactive)
REMARK    1  A    between atoms: C_1  and  O_2
REMARK    2  A    between atoms: O_2  and  C_3
REMARK    3  A    between atoms: C_5  and  N_6
REMARK    4  A    between atoms: C_7  and  S_8
REMARK    5  A    between atoms: C_13  and  C_14
REMARK    6  A    between atoms: C_16  and  O_17
REMARK    7  A    between atoms: O_17  and  C_18
REMARK                            x       y       z     vdW  Elec       q    Type
REMARK                         _______ _______ _______ _____ _____    ______ ____
ROOT
ATOM      1  C   UNL     1      -3.489  11.362  17.361  0.00  0.00    +0.000 A 
ATOM      2  C   UNL     1      -3.151  11.872  18.619  0.00  0.00    +0.000 A 
ATOM      3  C   UNL     1      -1.924  11.570  19.229  0.00  0.00    +0.000 A 
ATOM      4  C   UNL     1      -1.130  10.549  18.658  0.00  0.00    +0.000 A 
ATOM      5  C   UNL     1      -1.522   9.950  17.447  0.00  0.00    +0.000 A 
ATOM      6  C   UNL     1      -2.677  10.386  16.789  0.00  0.00    +0.000 A 
ATOM      7 CL   UNL     1      -3.055   9.684  15.257  0.00  0.00    +0.000 Cl
ENDROOT
BRANCH   3   8
ATOM      8  N   UNL     1      -1.532  12.234  20.417  0.00  0.00    +0.000 NA
ATOM      9  C   UNL     1      -0.710  13.250  20.497  0.00  0.00    +0.000 C 
ATOM     10  N   UNL     1      -0.393  13.836  21.722  0.00  0.00    +0.000 N 
ATOM     11  C   UNL     1       0.749  14.720  21.969  0.00  0.00    +0.000 C 
ATOM     12  C   UNL     1       0.228  16.077  22.423  0.00  0.00    +0.000 C 
ATOM     13  C   UNL     1      -0.571  15.914  23.710  0.00  0.00    +0.000 C 
ATOM     14  C   UNL     1      -1.686  14.864  23.551  0.00  0.00    +0.000 C 
ATOM     15  C   UNL     1      -2.353  14.616  24.901  0.00  0.00    +0.000 C 
ATOM     16  C   UNL     1      -1.162  13.545  22.937  0.00  0.00    +0.000 C 
BRANCH   9  17
ATOM     17  S   UNL     1       0.052  14.025  19.084  0.00  0.00    +0.000 S 
ATOM     18  H   UNL     1      -0.092  15.295  19.458  0.00  0.00    +0.000 HD
ENDBRANCH   9  17
ENDBRANCH   3   8
BRANCH   1  20
ATOM     19  C   UNL     1      -5.776  11.934  17.471  0.00  0.00    +0.000 C 
ATOM     20  O   UNL     1      -4.601  11.782  16.674  0.00  0.00    +0.000 OA
ENDBRANCH   1  20
BRANCH   4  21
ATOM     21  O   UNL     1      -0.003  10.176  19.354  0.00  0.00    +0.000 OA
ATOM     22  C   UNL     1       1.230  10.137  18.646  0.00  0.00    +0.000 C 
ENDBRANCH   4  21
TORSDOF 4
ENDMDL
MODEL 7
REMARK VINA RESULT:      -5.2      4.733      6.956
REMARK  Name = 
REMARK  7 active torsions:
REMARK  status: ('A' for Active; 'I' for Inactive)
REMARK    1  A    between atoms: C_1  and  O_2
REMARK    2  A    between atoms: O_2  and  C_3
REMARK    3  A    between atoms: C_5  and  N_6
REMARK    4  A    between atoms: C_7  and  S_8
REMARK    5  A    between atoms: C_13  and  C_14
REMARK    6  A    between atoms: C_16  and  O_17
REMARK    7  A    between atoms: O_17  and  C_18
REMARK                            x       y       z     vdW  Elec       q    Type
REMARK                         _______ _______ _______ _____ _____    ______ ____
ROOT
ATOM      1  C   UNL     1       2.659   4.706  20.397  0.00  0.00    +0.000 A 
ATOM      2  C   UNL     1       2.263   6.044  20.297  0.00  0.00    +0.000 A 
ATOM      3  C   UNL     1       2.644   6.844  19.210  0.00  0.00    +0.000 A 
ATOM      4  C   UNL     1       3.634   6.347  18.332  0.00  0.00    +0.000 A 
ATOM      5  C   UNL     1       4.122   5.037  18.495  0.00  0.00    +0.000 A 
ATOM      6  C   UNL     1       3.605   4.214  19.501  0.00  0.00    +0.000 A 
ATOM      7 CL   UNL     1       4.168   2.585  19.591  0.00  0.00    +0.000 Cl
ENDROOT
BRANCH   3   8
ATOM      8  N   UNL     1       2.090   8.136  19.042  0.00  0.00    +0.000 NA
ATOM      9  C   UNL     1       1.324   8.764  19.898  0.00  0.00    +0.000 C 
ATOM     10  N   UNL     1       0.834  10.043  19.636  0.00  0.00    +0.000 N 
ATOM     11  C   UNL     1      -0.283  10.683  20.335  0.00  0.00    +0.000 C 
ATOM     12  C   UNL     1       0.226  11.946  21.018  0.00  0.00    +0.000 C 
ATOM     13  C   UNL     1       0.783  12.905  19.972  0.00  0.00    +0.000 C 
ATOM     14  C   UNL     1       1.849  12.224  19.095  0.00  0.00    +0.000 C 
ATOM     15  C   UNL     1       2.260  13.164  17.965  0.00  0.00    +0.000 C 
ATOM     16  C   UNL     1       1.366  10.863  18.541  0.00  0.00    +0.000 C 
BRANCH   9  17
ATOM     17  S   UNL     1       0.859   8.102  21.487  0.00  0.00    +0.000 S 
ATOM     18  H   UNL     1       2.080   7.947  21.996  0.00  0.00    +0.000 HD
ENDBRANCH   9  17
ENDBRANCH   3   8
BRANCH   1  20
ATOM     19  C   UNL     1       1.063   3.049  20.926  0.00  0.00    +0.000 C 
ATOM     20  O   UNL     1       2.156   3.861  21.356  0.00  0.00    +0.000 OA
ENDBRANCH   1  20
BRANCH   4  21
ATOM     21  O   UNL     1       4.091   7.206  17.360  0.00  0.00    +0.000 OA
ATOM     22  C   UNL     1       4.968   6.680  16.370  0.00  0.00    +0.000 C 
ENDBRANCH   4  21
TORSDOF 4
ENDMDL
MODEL 8
REMARK VINA RESULT:      -5.1      3.513      5.500
REMARK  Name = 
REMARK  7 active torsions:
REMARK  status: ('A' for Active; 'I' for Inactive)
REMARK    1  A    between atoms: C_1  and  O_2
REMARK    2  A    between atoms: O_2  and  C_3
REMARK    3  A    between atoms: C_5  and  N_6
REMARK    4  A    between atoms: C_7  and  S_8
REMARK    5  A    between atoms: C_13  and  C_14
REMARK    6  A    between atoms: C_16  and  O_17
REMARK    7  A    between atoms: O_17  and  C_18
REMARK                            x       y       z     vdW  Elec       q    Type
REMARK                         _______ _______ _______ _____ _____    ______ ____
ROOT
ATOM      1  C   UNL     1       5.653   6.456  17.057  0.00  0.00    +0.000 A 
ATOM      2  C   UNL     1       4.641   7.312  17.502  0.00  0.00    +0.000 A 
ATOM      3  C   UNL     1       3.377   6.827  17.868  0.00  0.00    +0.000 A 
ATOM      4  C   UNL     1       3.062   5.484  17.556  0.00  0.00    +0.000 A 
ATOM      5  C   UNL     1       4.046   4.645  17.001  0.00  0.00    +0.000 A 
ATOM      6  C   UNL     1       5.343   5.125  16.791  0.00  0.00    +0.000 A 
ATOM      7 CL   UNL     1       6.534   4.023  16.202  0.00  0.00    +0.000 Cl
ENDROOT
BRANCH   3   8
ATOM      8  N   UNL     1       2.429   7.683  18.479  0.00  0.00    +0.000 NA
ATOM      9  C   UNL     1       1.941   7.558  19.687  0.00  0.00    +0.000 C 
ATOM     10  N   UNL     1       1.012   8.465  20.196  0.00  0.00    +0.000 N 
ATOM     11  C   UNL     1       0.156   8.237  21.364  0.00  0.00    +0.000 C 
ATOM     12  C   UNL     1       0.480   9.286  22.420  0.00  0.00    +0.000 C 
ATOM     13  C   UNL     1       0.210  10.677  21.859  0.00  0.00    +0.000 C 
ATOM     14  C   UNL     1       0.960  10.906  20.534  0.00  0.00    +0.000 C 
ATOM     15  C   UNL     1       0.536  12.242  19.929  0.00  0.00    +0.000 C 
ATOM     16  C   UNL     1       0.743   9.747  19.534  0.00  0.00    +0.000 C 
BRANCH   9  17
ATOM     17  S   UNL     1       2.426   6.274  20.826  0.00  0.00    +0.000 S 
ATOM     18  H   UNL     1       1.924   6.805  21.940  0.00  0.00    +0.000 HD
ENDBRANCH   9  17
ENDBRANCH   3   8
BRANCH   1  20
ATOM     19  C   UNL     1       7.718   7.019  18.055  0.00  0.00    +0.000 C 
ATOM     20  O   UNL     1       6.943   6.885  16.862  0.00  0.00    +0.000 OA
ENDBRANCH   1  20
BRANCH   4  21
ATOM     21  O   UNL     1       1.771   5.075  17.796  0.00  0.00    +0.000 OA
ATOM     22  C   UNL     1       1.559   3.706  18.121  0.00  0.00    +0.000 C 
ENDBRANCH   4  21
TORSDOF 4
ENDMDL
MODEL 9
REMARK VINA RESULT:      -5.0      3.702      5.727
REMARK  Name = 
REMARK  7 active torsions:
REMARK  status: ('A' for Active; 'I' for Inactive)
REMARK    1  A    between atoms: C_1  and  O_2
REMARK    2  A    between atoms: O_2  and  C_3
REMARK    3  A    between atoms: C_5  and  N_6
REMARK    4  A    between atoms: C_7  and  S_8
REMARK    5  A    between atoms: C_13  and  C_14
REMARK    6  A    between atoms: C_16  and  O_17
REMARK    7  A    between atoms: O_17  and  C_18
REMARK                            x       y       z     vdW  Elec       q    Type
REMARK                         _______ _______ _______ _____ _____    ______ ____
ROOT
ATOM      1  C   UNL     1       3.845   4.165  17.658  0.00  0.00    +0.000 A 
ATOM      2  C   UNL     1       3.298   5.331  18.205  0.00  0.00    +0.000 A 
ATOM      3  C   UNL     1       2.659   5.326  19.454  0.00  0.00    +0.000 A 
ATOM      4  C   UNL     1       2.364   4.077  20.047  0.00  0.00    +0.000 A 
ATOM      5  C   UNL     1       2.815   2.890  19.442  0.00  0.00    +0.000 A 
ATOM      6  C   UNL     1       3.583   2.944  18.273  0.00  0.00    +0.000 A 
ATOM      7 CL   UNL     1       4.193   1.462  17.631  0.00  0.00    +0.000 Cl
ENDROOT
BRANCH   3   8
ATOM      8  N   UNL     1       2.269   6.543  20.064  0.00  0.00    +0.000 NA
ATOM      9  C   UNL     1       1.966   7.655  19.443  0.00  0.00    +0.000 C 
ATOM     10  N   UNL     1       1.588   8.801  20.142  0.00  0.00    +0.000 N 
ATOM     11  C   UNL     1       1.569  10.160  19.595  0.00  0.00    +0.000 C 
ATOM     12  C   UNL     1       0.142  10.690  19.652  0.00  0.00    +0.000 C 
ATOM     13  C   UNL     1      -0.336  10.721  21.099  0.00  0.00    +0.000 C 
ATOM     14  C   UNL     1      -0.178   9.346  21.773  0.00  0.00    +0.000 C 
ATOM     15  C   UNL     1      -0.514   9.462  23.258  0.00  0.00    +0.000 C 
ATOM     16  C   UNL     1       1.235   8.754  21.566  0.00  0.00    +0.000 C 
BRANCH   9  17
ATOM     17  S   UNL     1       1.952   7.829  17.668  0.00  0.00    +0.000 S 
ATOM     18  H   UNL     1       2.400   9.082  17.594  0.00  0.00    +0.000 HD
ENDBRANCH   9  17
ENDBRANCH   3   8
BRANCH   1  20
ATOM     19  C   UNL     1       5.994   4.518  16.747  0.00  0.00    +0.000 C 
ATOM     20  O   UNL     1       4.623   4.181  16.527  0.00  0.00    +0.000 OA
ENDBRANCH   1  20
BRANCH   4  21
ATOM     21  O   UNL     1       1.612   4.098  21.199  0.00  0.00    +0.000 OA
ATOM     22  C   UNL     1       1.318   2.851  21.820  0.00  0.00    +0.000 C 
ENDBRANCH   4  21
TORSDOF 4
ENDMDL
