MODEL 1
REMARK VINA RESULT:      -7.4      0.000      0.000
REMARK  Name = 
REMARK  4 active torsions:
REMARK  status: ('A' for Active; 'I' for Inactive)
REMARK    1  A    between atoms: C_1  and  O_2
REMARK    2  A    between atoms: O_2  and  C_3
REMARK    3  A    between atoms: C_13  and  C_14
REMARK    4  A    between atoms: C_14  and  O_16
REMARK                            x       y       z     vdW  Elec       q    Type
REMARK                         _______ _______ _______ _____ _____    ______ ____
ROOT
ATOM      1  C   UNL     1       0.903   9.518  21.783  0.00  0.00    +0.000 A 
ATOM      2  C   UNL     1       0.997  10.424  20.724  0.00  0.00    +0.000 A 
ATOM      3  C   UNL     1       1.343   9.984  19.443  0.00  0.00    +0.000 A 
ATOM      4  C   UNL     1       1.604   8.628  19.198  0.00  0.00    +0.000 A 
ATOM      5  C   UNL     1       1.513   7.724  20.260  0.00  0.00    +0.000 A 
ATOM      6  C   UNL     1       1.156   8.170  21.542  0.00  0.00    +0.000 A 
ATOM      7  C   UNL     1       1.699   6.267  20.099  0.00  0.00    +0.000 C 
ATOM      8  O   UNL     1       0.906   5.529  20.688  0.00  0.00    +0.000 OA
ATOM      9  C   UNL     1       2.831   5.644  19.357  0.00  0.00    +0.000 A 
ATOM     10  C   UNL     1       3.131   4.319  19.758  0.00  0.00    +0.000 A 
ATOM     11  C   UNL     1       4.189   3.608  19.188  0.00  0.00    +0.000 A 
ATOM     12  C   UNL     1       4.985   4.232  18.232  0.00  0.00    +0.000 A 
ATOM     13  C   UNL     1       4.696   5.534  17.822  0.00  0.00    +0.000 A 
ATOM     14  C   UNL     1       3.605   6.255  18.354  0.00  0.00    +0.000 A 
ATOM     15  C   UNL     1       3.397   7.644  17.797  0.00  0.00    +0.000 C 
ATOM     16  C   UNL     1       1.966   8.165  17.819  0.00  0.00    +0.000 C 
ENDROOT
BRANCH   1  18
ATOM     17  C   UNL     1      -0.771  10.578  23.085  0.00  0.00    +0.000 C 
ATOM     18  O   UNL     1       0.553  10.060  22.988  0.00  0.00    +0.000 OA
ENDBRANCH   1  18
BRANCH  11  19
ATOM     19  C   UNL     1       4.553   2.232  19.613  0.00  0.00    +0.000 C 
ATOM     20  O   UNL     1       5.135   2.005  20.660  0.00  0.00    +0.000 OA
BRANCH  19  21
ATOM     21  O   UNL     1       4.229   1.264  18.731  0.00  0.00    +0.000 OA
ATOM     22  H   UNL     1       3.309   0.942  18.762  0.00  0.00    +0.000 HD
ENDBRANCH  19  21
ENDBRANCH  11  19
TORSDOF 3
ENDMDL
MODEL 2
REMARK VINA RESULT:      -7.3      1.238      1.616
REMARK  Name = 
REMARK  4 active torsions:
REMARK  status: ('A' for Active; 'I' for Inactive)
REMARK    1  A    between atoms: C_1  and  O_2
REMARK    2  A    between atoms: O_2  and  C_3
REMARK    3  A    between atoms: C_13  and  C_14
REMARK    4  A    between atoms: C_14  and  O_16
REMARK                            x       y       z     vdW  Elec       q    Type
REMARK                         _______ _______ _______ _____ _____    ______ ____
ROOT
ATOM      1  C   UNL     1       0.314   9.938  21.912  0.00  0.00    +0.000 A 
ATOM      2  C   UNL     1      -0.117  10.771  20.879  0.00  0.00    +0.000 A 
ATOM      3  C   UNL     1       0.109  10.422  19.544  0.00  0.00    +0.000 A 
ATOM      4  C   UNL     1       0.776   9.232  19.219  0.00  0.00    +0.000 A 
ATOM      5  C   UNL     1       1.210   8.401  20.256  0.00  0.00    +0.000 A 
ATOM      6  C   UNL     1       0.971   8.752  21.593  0.00  0.00    +0.000 A 
ATOM      7  C   UNL     1       1.859   7.094  20.025  0.00  0.00    +0.000 C 
ATOM      8  O   UNL     1       1.501   6.153  20.738  0.00  0.00    +0.000 OA
ATOM      9  C   UNL     1       2.974   6.870  19.062  0.00  0.00    +0.000 A 
ATOM     10  C   UNL     1       3.788   5.751  19.364  0.00  0.00    +0.000 A 
ATOM     11  C   UNL     1       4.899   5.427  18.582  0.00  0.00    +0.000 A 
ATOM     12  C   UNL     1       5.229   6.245  17.506  0.00  0.00    +0.000 A 
ATOM     13  C   UNL     1       4.432   7.346  17.192  0.00  0.00    +0.000 A 
ATOM     14  C   UNL     1       3.279   7.666  17.944  0.00  0.00    +0.000 A 
ATOM     15  C   UNL     1       2.499   8.870  17.473  0.00  0.00    +0.000 C 
ATOM     16  C   UNL     1       1.007   8.862  17.785  0.00  0.00    +0.000 C 
ENDROOT
BRANCH   1  18
ATOM     17  C   UNL     1      -1.200  11.071  23.342  0.00  0.00    +0.000 C 
ATOM     18  O   UNL     1       0.033  10.377  23.175  0.00  0.00    +0.000 OA
ENDBRANCH   1  18
BRANCH  11  19
ATOM     19  C   UNL     1       5.794   4.283  18.894  0.00  0.00    +0.000 C 
ATOM     20  O   UNL     1       6.997   4.324  18.695  0.00  0.00    +0.000 OA
BRANCH  19  21
ATOM     21  O   UNL     1       5.168   3.189  19.370  0.00  0.00    +0.000 OA
ATOM     22  H   UNL     1       5.541   2.795  20.180  0.00  0.00    +0.000 HD
ENDBRANCH  19  21
ENDBRANCH  11  19
TORSDOF 3
ENDMDL
MODEL 3
REMARK VINA RESULT:      -7.1      3.279      6.448
REMARK  Name = 
REMARK  4 active torsions:
REMARK  status: ('A' for Active; 'I' for Inactive)
REMARK    1  A    between atoms: C_1  and  O_2
REMARK    2  A    between atoms: O_2  and  C_3
REMARK    3  A    between atoms: C_13  and  C_14
REMARK    4  A    between atoms: C_14  and  O_16
REMARK                            x       y       z     vdW  Elec       q    Type
REMARK                         _______ _______ _______ _____ _____    ______ ____
ROOT
ATOM      1  C   UNL     1       6.086   4.402  14.731  0.00  0.00    +0.000 A 
ATOM      2  C   UNL     1       5.770   5.704  14.338  0.00  0.00    +0.000 A 
ATOM      3  C   UNL     1       5.165   6.589  15.235  0.00  0.00    +0.000 A 
ATOM      4  C   UNL     1       4.861   6.185  16.544  0.00  0.00    +0.000 A 
ATOM      5  C   UNL     1       5.175   4.880  16.934  0.00  0.00    +0.000 A 
ATOM      6  C   UNL     1       5.791   3.999  16.032  0.00  0.00    +0.000 A 
ATOM      7  C   UNL     1       4.962   4.374  18.305  0.00  0.00    +0.000 C 
ATOM      8  O   UNL     1       5.863   3.692  18.800  0.00  0.00    +0.000 OA
ATOM      9  C   UNL     1       3.701   4.553  19.079  0.00  0.00    +0.000 A 
ATOM     10  C   UNL     1       3.495   3.583  20.089  0.00  0.00    +0.000 A 
ATOM     11  C   UNL     1       2.343   3.586  20.878  0.00  0.00    +0.000 A 
ATOM     12  C   UNL     1       1.363   4.545  20.638  0.00  0.00    +0.000 A 
ATOM     13  C   UNL     1       1.556   5.512  19.651  0.00  0.00    +0.000 A 
ATOM     14  C   UNL     1       2.734   5.552  18.871  0.00  0.00    +0.000 A 
ATOM     15  C   UNL     1       2.816   6.670  17.859  0.00  0.00    +0.000 C 
ATOM     16  C   UNL     1       4.219   7.144  17.501  0.00  0.00    +0.000 C 
ENDROOT
BRANCH   1  18
ATOM     17  C   UNL     1       5.957   3.464  12.557  0.00  0.00    +0.000 C 
ATOM     18  O   UNL     1       6.680   3.629  13.774  0.00  0.00    +0.000 OA
ENDBRANCH   1  18
BRANCH  11  19
ATOM     19  C   UNL     1       2.079   2.561  21.920  0.00  0.00    +0.000 C 
ATOM     20  O   UNL     1       2.945   1.804  22.323  0.00  0.00    +0.000 OA
BRANCH  19  21
ATOM     21  O   UNL     1       0.801   2.507  22.349  0.00  0.00    +0.000 OA
ATOM     22  H   UNL     1       0.609   1.864  23.056  0.00  0.00    +0.000 HD
ENDBRANCH  19  21
ENDBRANCH  11  19
TORSDOF 3
ENDMDL
MODEL 4
REMARK VINA RESULT:      -7.1      2.676      3.745
REMARK  Name = 
REMARK  4 active torsions:
REMARK  status: ('A' for Active; 'I' for Inactive)
REMARK    1  A    between atoms: C_1  and  O_2
REMARK    2  A    between atoms: O_2  and  C_3
REMARK    3  A    between atoms: C_13  and  C_14
REMARK    4  A    between atoms: C_14  and  O_16
REMARK                            x       y       z     vdW  Elec       q    Type
REMARK                         _______ _______ _______ _____ _____    ______ ____
ROOT
ATOM      1  C   UNL     1      -1.110  10.827  18.184  0.00  0.00    +0.000 A 
ATOM      2  C   UNL     1      -1.391  11.015  19.538  0.00  0.00    +0.000 A 
ATOM      3  C   UNL     1      -0.590  10.421  20.519  0.00  0.00    +0.000 A 
ATOM      4  C   UNL     1       0.506   9.624  20.160  0.00  0.00    +0.000 A 
ATOM      5  C   UNL     1       0.783   9.434  18.803  0.00  0.00    +0.000 A 
ATOM      6  C   UNL     1      -0.018  10.041  17.824  0.00  0.00    +0.000 A 
ATOM      7  C   UNL     1       1.952   8.672  18.317  0.00  0.00    +0.000 C 
ATOM      8  O   UNL     1       2.584   9.151  17.372  0.00  0.00    +0.000 OA
ATOM      9  C   UNL     1       2.348   7.329  18.827  0.00  0.00    +0.000 A 
ATOM     10  C   UNL     1       3.111   6.561  17.915  0.00  0.00    +0.000 A 
ATOM     11  C   UNL     1       3.529   5.265  18.225  0.00  0.00    +0.000 A 
ATOM     12  C   UNL     1       3.155   4.708  19.444  0.00  0.00    +0.000 A 
ATOM     13  C   UNL     1       2.409   5.456  20.356  0.00  0.00    +0.000 A 
ATOM     14  C   UNL     1       2.014   6.784  20.079  0.00  0.00    +0.000 A 
ATOM     15  C   UNL     1       1.234   7.480  21.170  0.00  0.00    +0.000 C 
ATOM     16  C   UNL     1       1.363   8.997  21.218  0.00  0.00    +0.000 C 
ENDROOT
BRANCH   1  18
ATOM     17  C   UNL     1      -2.499  10.662  16.270  0.00  0.00    +0.000 C 
ATOM     18  O   UNL     1      -1.955  11.460  17.316  0.00  0.00    +0.000 OA
ENDBRANCH   1  18
BRANCH  11  19
ATOM     19  C   UNL     1       4.297   4.420  17.275  0.00  0.00    +0.000 C 
ATOM     20  O   UNL     1       4.752   4.858  16.232  0.00  0.00    +0.000 OA
BRANCH  19  21
ATOM     21  O   UNL     1       4.414   3.126  17.638  0.00  0.00    +0.000 OA
ATOM     22  H   UNL     1       5.142   2.912  18.250  0.00  0.00    +0.000 HD
ENDBRANCH  19  21
ENDBRANCH  11  19
TORSDOF 3
ENDMDL
MODEL 5
REMARK VINA RESULT:      -7.1      2.448      7.201
REMARK  Name = 
REMARK  4 active torsions:
REMARK  status: ('A' for Active; 'I' for Inactive)
REMARK    1  A    between atoms: C_1  and  O_2
REMARK    2  A    between atoms: O_2  and  C_3
REMARK    3  A    between atoms: C_13  and  C_14
REMARK    4  A    between atoms: C_14  and  O_16
REMARK                            x       y       z     vdW  Elec       q    Type
REMARK                         _______ _______ _______ _____ _____    ______ ____
ROOT
ATOM      1  C   UNL     1       5.539   5.884  16.905  0.00  0.00    +0.000 A 
ATOM      2  C   UNL     1       5.272   4.608  17.405  0.00  0.00    +0.000 A 
ATOM      3  C   UNL     1       4.108   4.363  18.140  0.00  0.00    +0.000 A 
ATOM      4  C   UNL     1       3.191   5.393  18.392  0.00  0.00    +0.000 A 
ATOM      5  C   UNL     1       3.462   6.671  17.895  0.00  0.00    +0.000 A 
ATOM      6  C   UNL     1       4.627   6.909  17.149  0.00  0.00    +0.000 A 
ATOM      7  C   UNL     1       2.532   7.809  18.042  0.00  0.00    +0.000 C 
ATOM      8  O   UNL     1       2.362   8.530  17.055  0.00  0.00    +0.000 OA
ATOM      9  C   UNL     1       1.872   8.192  19.322  0.00  0.00    +0.000 A 
ATOM     10  C   UNL     1       1.482   9.551  19.393  0.00  0.00    +0.000 A 
ATOM     11  C   UNL     1       0.886  10.079  20.540  0.00  0.00    +0.000 A 
ATOM     12  C   UNL     1       0.705   9.256  21.647  0.00  0.00    +0.000 A 
ATOM     13  C   UNL     1       1.078   7.912  21.589  0.00  0.00    +0.000 A 
ATOM     14  C   UNL     1       1.644   7.349  20.424  0.00  0.00    +0.000 A 
ATOM     15  C   UNL     1       1.973   5.876  20.497  0.00  0.00    +0.000 C 
ATOM     16  C   UNL     1       1.943   5.119  19.175  0.00  0.00    +0.000 C 
ENDROOT
BRANCH   1  18
ATOM     17  C   UNL     1       7.058   4.896  15.375  0.00  0.00    +0.000 C 
ATOM     18  O   UNL     1       6.701   6.005  16.196  0.00  0.00    +0.000 OA
ENDBRANCH   1  18
BRANCH  11  19
ATOM     19  C   UNL     1       0.500  11.509  20.660  0.00  0.00    +0.000 C 
ATOM     20  O   UNL     1       0.427  12.247  19.693  0.00  0.00    +0.000 OA
BRANCH  19  21
ATOM     21  O   UNL     1       0.280  11.930  21.922  0.00  0.00    +0.000 OA
ATOM     22  H   UNL     1      -0.465  11.514  22.393  0.00  0.00    +0.000 HD
ENDBRANCH  19  21
ENDBRANCH  11  19
TORSDOF 3
ENDMDL
MODEL 6
REMARK VINA RESULT:      -7.0      1.898      6.971
REMARK  Name = 
REMARK  4 active torsions:
REMARK  status: ('A' for Active; 'I' for Inactive)
REMARK    1  A    between atoms: C_1  and  O_2
REMARK    2  A    between atoms: O_2  and  C_3
REMARK    3  A    between atoms: C_13  and  C_14
REMARK    4  A    between atoms: C_14  and  O_16
REMARK                            x       y       z     vdW  Elec       q    Type
REMARK                         _______ _______ _______ _____ _____    ______ ____
ROOT
ATOM      1  C   UNL     1       2.118   4.620  19.792  0.00  0.00    +0.000 A 
ATOM      2  C   UNL     1       2.676   4.740  18.518  0.00  0.00    +0.000 A 
ATOM      3  C   UNL     1       2.856   5.999  17.937  0.00  0.00    +0.000 A 
ATOM      4  C   UNL     1       2.477   7.163  18.622  0.00  0.00    +0.000 A 
ATOM      5  C   UNL     1       1.915   7.040  19.896  0.00  0.00    +0.000 A 
ATOM      6  C   UNL     1       1.746   5.774  20.477  0.00  0.00    +0.000 A 
ATOM      7  C   UNL     1       1.546   8.201  20.732  0.00  0.00    +0.000 C 
ATOM      8  O   UNL     1       1.841   8.151  21.929  0.00  0.00    +0.000 OA
ATOM      9  C   UNL     1       0.763   9.370  20.242  0.00  0.00    +0.000 A 
ATOM     10  C   UNL     1       0.071  10.074  21.257  0.00  0.00    +0.000 A 
ATOM     11  C   UNL     1      -0.740  11.171  20.960  0.00  0.00    +0.000 A 
ATOM     12  C   UNL     1      -0.896  11.555  19.631  0.00  0.00    +0.000 A 
ATOM     13  C   UNL     1      -0.214  10.876  18.621  0.00  0.00    +0.000 A 
ATOM     14  C   UNL     1       0.645   9.791  18.906  0.00  0.00    +0.000 A 
ATOM     15  C   UNL     1       1.337   9.169  17.716  0.00  0.00    +0.000 C 
ATOM     16  C   UNL     1       2.681   8.509  17.995  0.00  0.00    +0.000 C 
ENDROOT
BRANCH   1  18
ATOM     17  C   UNL     1       2.098   3.174  21.671  0.00  0.00    +0.000 C 
ATOM     18  O   UNL     1       1.996   3.341  20.260  0.00  0.00    +0.000 OA
ENDBRANCH   1  18
BRANCH  11  19
ATOM     19  C   UNL     1      -1.509  11.907  21.996  0.00  0.00    +0.000 C 
ATOM     20  O   UNL     1      -2.403  12.686  21.714  0.00  0.00    +0.000 OA
BRANCH  19  21
ATOM     21  O   UNL     1      -1.112  11.676  23.264  0.00  0.00    +0.000 OA
ATOM     22  H   UNL     1      -0.216  11.309  23.377  0.00  0.00    +0.000 HD
ENDBRANCH  19  21
ENDBRANCH  11  19
TORSDOF 3
ENDMDL
MODEL 7
REMARK VINA RESULT:      -6.8      2.069      7.494
REMARK  Name = 
REMARK  4 active torsions:
REMARK  status: ('A' for Active; 'I' for Inactive)
REMARK    1  A    between atoms: C_1  and  O_2
REMARK    2  A    between atoms: O_2  and  C_3
REMARK    3  A    between atoms: C_13  and  C_14
REMARK    4  A    between atoms: C_14  and  O_16
REMARK                            x       y       z     vdW  Elec       q    Type
REMARK                         _______ _______ _______ _____ _____    ______ ____
ROOT
ATOM      1  C   UNL     1       2.137   5.814  20.161  0.00  0.00    +0.000 A 
ATOM      2  C   UNL     1       2.440   6.028  18.815  0.00  0.00    +0.000 A 
ATOM      3  C   UNL     1       2.301   7.298  18.249  0.00  0.00    +0.000 A 
ATOM      4  C   UNL     1       1.852   8.380  19.020  0.00  0.00    +0.000 A 
ATOM      5  C   UNL     1       1.545   8.163  20.367  0.00  0.00    +0.000 A 
ATOM      6  C   UNL     1       1.696   6.887  20.932  0.00  0.00    +0.000 A 
ATOM      7  C   UNL     1       1.131   9.244  21.285  0.00  0.00    +0.000 C 
ATOM      8  O   UNL     1       1.630   9.246  22.413  0.00  0.00    +0.000 OA
ATOM      9  C   UNL     1       0.088  10.259  20.968  0.00  0.00    +0.000 A 
ATOM     10  C   UNL     1      -0.531  10.834  22.105  0.00  0.00    +0.000 A 
ATOM     11  C   UNL     1      -1.555  11.773  21.980  0.00  0.00    +0.000 A 
ATOM     12  C   UNL     1      -1.999  12.123  20.708  0.00  0.00    +0.000 A 
ATOM     13  C   UNL     1      -1.394  11.571  19.578  0.00  0.00    +0.000 A 
ATOM     14  C   UNL     1      -0.327  10.651  19.683  0.00  0.00    +0.000 A 
ATOM     15  C   UNL     1       0.248  10.157  18.376  0.00  0.00    +0.000 C 
ATOM     16  C   UNL     1       1.713   9.740  18.406  0.00  0.00    +0.000 C 
ENDROOT
BRANCH   1  18
ATOM     17  C   UNL     1       1.254   3.621  20.347  0.00  0.00    +0.000 C 
ATOM     18  O   UNL     1       2.317   4.535  20.606  0.00  0.00    +0.000 OA
ENDBRANCH   1  18
BRANCH  11  19
ATOM     19  C   UNL     1      -2.250  12.366  23.151  0.00  0.00    +0.000 C 
ATOM     20  O   UNL     1      -3.229  11.847  23.660  0.00  0.00    +0.000 OA
BRANCH  19  21
ATOM     21  O   UNL     1      -1.739  13.540  23.577  0.00  0.00    +0.000 OA
ATOM     22  H   UNL     1      -0.855  13.774  23.240  0.00  0.00    +0.000 HD
ENDBRANCH  19  21
ENDBRANCH  11  19
TORSDOF 3
ENDMDL
MODEL 8
REMARK VINA RESULT:      -6.8      2.711      8.507
REMARK  Name = 
REMARK  4 active torsions:
REMARK  status: ('A' for Active; 'I' for Inactive)
REMARK    1  A    between atoms: C_1  and  O_2
REMARK    2  A    between atoms: O_2  and  C_3
REMARK    3  A    between atoms: C_13  and  C_14
REMARK    4  A    between atoms: C_14  and  O_16
REMARK                            x       y       z     vdW  Elec       q    Type
REMARK                         _______ _______ _______ _____ _____    ______ ____
ROOT
ATOM      1  C   UNL     1       1.508   7.556  20.415  0.00  0.00    +0.000 A 
ATOM      2  C   UNL     1       1.860   8.110  19.183  0.00  0.00    +0.000 A 
ATOM      3  C   UNL     1       1.568   9.447  18.897  0.00  0.00    +0.000 A 
ATOM      4  C   UNL     1       0.914  10.254  19.839  0.00  0.00    +0.000 A 
ATOM      5  C   UNL     1       0.559   9.696  21.070  0.00  0.00    +0.000 A 
ATOM      6  C   UNL     1       0.863   8.356  21.356  0.00  0.00    +0.000 A 
ATOM      7  C   UNL     1      -0.069  10.473  22.159  0.00  0.00    +0.000 C 
ATOM      8  O   UNL     1       0.352  10.283  23.303  0.00  0.00    +0.000 OA
ATOM      9  C   UNL     1      -1.230  11.388  21.972  0.00  0.00    +0.000 A 
ATOM     10  C   UNL     1      -1.998  11.600  23.143  0.00  0.00    +0.000 A 
ATOM     11  C   UNL     1      -3.142  12.400  23.129  0.00  0.00    +0.000 A 
ATOM     12  C   UNL     1      -3.552  12.971  21.928  0.00  0.00    +0.000 A 
ATOM     13  C   UNL     1      -2.801  12.777  20.768  0.00  0.00    +0.000 A 
ATOM     14  C   UNL     1      -1.617  12.006  20.771  0.00  0.00    +0.000 A 
ATOM     15  C   UNL     1      -0.894  11.905  19.448  0.00  0.00    +0.000 C 
ATOM     16  C   UNL     1       0.612  11.689  19.526  0.00  0.00    +0.000 C 
ENDROOT
BRANCH   1  18
ATOM     17  C   UNL     1       2.936   5.766  19.799  0.00  0.00    +0.000 C 
ATOM     18  O   UNL     1       1.848   6.243  20.586  0.00  0.00    +0.000 OA
ENDBRANCH   1  18
BRANCH  11  19
ATOM     19  C   UNL     1      -3.990  12.612  24.330  0.00  0.00    +0.000 C 
ATOM     20  O   UNL     1      -4.864  11.827  24.658  0.00  0.00    +0.000 OA
BRANCH  19  21
ATOM     21  O   UNL     1      -3.746  13.757  25.000  0.00  0.00    +0.000 OA
ATOM     22  H   UNL     1      -4.443  14.058  25.611  0.00  0.00    +0.000 HD
ENDBRANCH  19  21
ENDBRANCH  11  19
TORSDOF 3
ENDMDL
MODEL 9
REMARK VINA RESULT:      -6.8      2.640      7.065
REMARK  Name = 
REMARK  4 active torsions:
REMARK  status: ('A' for Active; 'I' for Inactive)
REMARK    1  A    between atoms: C_1  and  O_2
REMARK    2  A    between atoms: O_2  and  C_3
REMARK    3  A    between atoms: C_13  and  C_14
REMARK    4  A    between atoms: C_14  and  O_16
REMARK                            x       y       z     vdW  Elec       q    Type
REMARK                         _______ _______ _______ _____ _____    ______ ____
ROOT
ATOM      1  C   UNL     1       6.143   5.415  16.068  0.00  0.00    +0.000 A 
ATOM      2  C   UNL     1       5.808   4.060  16.120  0.00  0.00    +0.000 A 
ATOM      3  C   UNL     1       4.594   3.650  16.681  0.00  0.00    +0.000 A 
ATOM      4  C   UNL     1       3.694   4.590  17.203  0.00  0.00    +0.000 A 
ATOM      5  C   UNL     1       4.033   5.945  17.153  0.00  0.00    +0.000 A 
ATOM      6  C   UNL     1       5.249   6.352  16.581  0.00  0.00    +0.000 A 
ATOM      7  C   UNL     1       3.130   7.021  17.610  0.00  0.00    +0.000 C 
ATOM      8  O   UNL     1       3.043   8.025  16.898  0.00  0.00    +0.000 OA
ATOM      9  C   UNL     1       2.404   7.009  18.911  0.00  0.00    +0.000 A 
ATOM     10  C   UNL     1       2.050   8.293  19.394  0.00  0.00    +0.000 A 
ATOM     11  C   UNL     1       1.400   8.457  20.618  0.00  0.00    +0.000 A 
ATOM     12  C   UNL     1       1.127   7.335  21.394  0.00  0.00    +0.000 A 
ATOM     13  C   UNL     1       1.463   6.063  20.928  0.00  0.00    +0.000 A 
ATOM     14  C   UNL     1       2.082   5.872  19.673  0.00  0.00    +0.000 A 
ATOM     15  C   UNL     1       2.362   4.438  19.289  0.00  0.00    +0.000 C 
ATOM     16  C   UNL     1       2.392   4.142  17.795  0.00  0.00    +0.000 C 
ENDROOT
BRANCH   1  18
ATOM     17  C   UNL     1       7.519   5.280  14.142  0.00  0.00    +0.000 C 
ATOM     18  O   UNL     1       7.350   5.698  15.493  0.00  0.00    +0.000 OA
ENDBRANCH   1  18
BRANCH  11  19
ATOM     19  C   UNL     1       1.049   9.792  21.169  0.00  0.00    +0.000 C 
ATOM     20  O   UNL     1       0.624  10.695  20.469  0.00  0.00    +0.000 OA
BRANCH  19  21
ATOM     21  O   UNL     1       1.280   9.936  22.490  0.00  0.00    +0.000 OA
ATOM     22  H   UNL     1       1.042   9.178  23.055  0.00  0.00    +0.000 HD
ENDBRANCH  19  21
ENDBRANCH  11  19
TORSDOF 3
ENDMDL
