MODEL 1
REMARK VINA RESULT:      -7.5      0.000      0.000
REMARK  Name = 
REMARK  4 active torsions:
REMARK  status: ('A' for Active; 'I' for Inactive)
REMARK    1  A    between atoms: C_1  and  C_2
REMARK    2  A    between atoms: C_7  and  C_8
REMARK    3  A    between atoms: N_19  and  C_20
REMARK    4  A    between atoms: C_20  and  C_21
REMARK                            x       y       z     vdW  Elec       q    Type
REMARK                         _______ _______ _______ _____ _____    ______ ____
ROOT
ATOM      1  C   UNL     1       2.998   2.407  16.699  0.00  0.00    +0.000 C 
ATOM      2  C   UNL     1       2.768   3.791  17.263  0.00  0.00    +0.000 C 
ATOM      3  O   UNL     1       1.657   4.025  17.730  0.00  0.00    +0.000 OA
ATOM      4  N   UNL     1       3.842   4.669  17.308  0.00  0.00    +0.000 N 
ATOM      5  C   UNL     1       4.866   4.734  16.336  0.00  0.00    +0.000 A 
ATOM      6  C   UNL     1       4.930   4.130  15.086  0.00  0.00    +0.000 A 
ATOM      7  C   UNL     1       6.062   4.305  14.281  0.00  0.00    +0.000 A 
ATOM      8  C   UNL     1       7.113   5.124  14.736  0.00  0.00    +0.000 A 
ATOM      9  C   UNL     1       7.017   5.787  15.963  0.00  0.00    +0.000 A 
ATOM     10  C   UNL     1       5.878   5.599  16.735  0.00  0.00    +0.000 A 
ATOM     11  C   UNL     1       5.560   6.214  18.059  0.00  0.00    +0.000 C 
ATOM     12  C   UNL     1       4.043   5.838  18.266  0.00  0.00    +0.000 C 
ATOM     13  C   UNL     1       3.851   5.504  19.759  0.00  0.00    +0.000 C 
ATOM     14  C   UNL     1       2.395   5.456  20.225  0.00  0.00    +0.000 C 
ATOM     15  N   UNL     1       1.566   6.595  19.813  0.00  0.00    +0.000 NA
ATOM     16  C   UNL     1       1.731   6.943  18.397  0.00  0.00    +0.000 C 
ATOM     17  C   UNL     1       3.177   7.070  17.927  0.00  0.00    +0.000 C 
ENDROOT
BRANCH   7  18
ATOM     18  C   UNL     1       6.138   3.624  12.936  0.00  0.00    +0.000 C 
ATOM     19  F   UNL     1       6.416   2.291  13.019  0.00  0.00    +0.000 F 
ATOM     20  F   UNL     1       4.973   3.716  12.237  0.00  0.00    +0.000 F 
ATOM     21  F   UNL     1       7.104   4.152  12.136  0.00  0.00    +0.000 F 
ENDBRANCH   7  18
BRANCH  15  22
ATOM     22  C   UNL     1       1.597   7.704  20.771  0.00  0.00    +0.000 C 
BRANCH  22  23
ATOM     23  C   UNL     1       0.299   8.551  20.816  0.00  0.00    +0.000 C 
ATOM     24  C   UNL     1      -0.362   8.574  22.206  0.00  0.00    +0.000 C 
ATOM     25  C   UNL     1       0.316   9.556  23.150  0.00  0.00    +0.000 C 
ATOM     26  O   UNL     1       0.312  10.863  22.578  0.00  0.00    +0.000 OA
ATOM     27  C   UNL     1       1.089  10.923  21.386  0.00  0.00    +0.000 C 
ATOM     28  C   UNL     1       0.542   9.985  20.316  0.00  0.00    +0.000 C 
ENDBRANCH  22  23
ENDBRANCH  15  22
TORSDOF 3
ENDMDL
MODEL 2
REMARK VINA RESULT:      -7.2      4.710      8.451
REMARK  Name = 
REMARK  4 active torsions:
REMARK  status: ('A' for Active; 'I' for Inactive)
REMARK    1  A    between atoms: C_1  and  C_2
REMARK    2  A    between atoms: C_7  and  C_8
REMARK    3  A    between atoms: N_19  and  C_20
REMARK    4  A    between atoms: C_20  and  C_21
REMARK                            x       y       z     vdW  Elec       q    Type
REMARK                         _______ _______ _______ _____ _____    ______ ____
ROOT
ATOM      1  C   UNL     1       1.632   4.516  20.868  0.00  0.00    +0.000 C 
ATOM      2  C   UNL     1       2.837   4.758  19.989  0.00  0.00    +0.000 C 
ATOM      3  O   UNL     1       3.724   3.910  20.013  0.00  0.00    +0.000 OA
ATOM      4  N   UNL     1       2.824   5.860  19.146  0.00  0.00    +0.000 N 
ATOM      5  C   UNL     1       2.227   7.103  19.458  0.00  0.00    +0.000 A 
ATOM      6  C   UNL     1       1.732   7.558  20.674  0.00  0.00    +0.000 A 
ATOM      7  C   UNL     1       1.148   8.827  20.761  0.00  0.00    +0.000 A 
ATOM      8  C   UNL     1       1.101   9.645  19.617  0.00  0.00    +0.000 A 
ATOM      9  C   UNL     1       1.662   9.214  18.411  0.00  0.00    +0.000 A 
ATOM     10  C   UNL     1       2.239   7.953  18.359  0.00  0.00    +0.000 A 
ATOM     11  C   UNL     1       2.905   7.301  17.191  0.00  0.00    +0.000 C 
ATOM     12  C   UNL     1       3.585   6.033  17.836  0.00  0.00    +0.000 C 
ATOM     13  C   UNL     1       3.440   4.871  16.833  0.00  0.00    +0.000 C 
ATOM     14  C   UNL     1       4.331   3.661  17.117  0.00  0.00    +0.000 C 
ATOM     15  N   UNL     1       5.740   3.970  17.388  0.00  0.00    +0.000 NA
ATOM     16  C   UNL     1       5.913   5.077  18.335  0.00  0.00    +0.000 C 
ATOM     17  C   UNL     1       5.089   6.324  18.029  0.00  0.00    +0.000 C 
ENDROOT
BRANCH   7  18
ATOM     18  C   UNL     1       0.587   9.306  22.079  0.00  0.00    +0.000 C 
ATOM     19  F   UNL     1      -0.496   8.591  22.498  0.00  0.00    +0.000 F 
ATOM     20  F   UNL     1       1.495   9.231  23.092  0.00  0.00    +0.000 F 
ATOM     21  F   UNL     1       0.177  10.603  22.032  0.00  0.00    +0.000 F 
ENDBRANCH   7  18
BRANCH  15  22
ATOM     22  C   UNL     1       6.564   4.005  16.178  0.00  0.00    +0.000 C 
BRANCH  22  23
ATOM     23  C   UNL     1       5.988   4.874  15.031  0.00  0.00    +0.000 C 
ATOM     24  C   UNL     1       7.027   5.823  14.407  0.00  0.00    +0.000 C 
ATOM     25  C   UNL     1       7.935   5.111  13.416  0.00  0.00    +0.000 C 
ATOM     26  O   UNL     1       7.153   4.495  12.394  0.00  0.00    +0.000 OA
ATOM     27  C   UNL     1       6.319   3.464  12.915  0.00  0.00    +0.000 C 
ATOM     28  C   UNL     1       5.332   4.009  13.941  0.00  0.00    +0.000 C 
ENDBRANCH  22  23
ENDBRANCH  15  22
TORSDOF 3
ENDMDL
MODEL 3
REMARK VINA RESULT:      -6.8      4.821      7.576
REMARK  Name = 
REMARK  4 active torsions:
REMARK  status: ('A' for Active; 'I' for Inactive)
REMARK    1  A    between atoms: C_1  and  C_2
REMARK    2  A    between atoms: C_7  and  C_8
REMARK    3  A    between atoms: N_19  and  C_20
REMARK    4  A    between atoms: C_20  and  C_21
REMARK                            x       y       z     vdW  Elec       q    Type
REMARK                         _______ _______ _______ _____ _____    ______ ____
ROOT
ATOM      1  C   UNL     1       1.493   9.132  23.034  0.00  0.00    +0.000 C 
ATOM      2  C   UNL     1       0.732   9.996  22.055  0.00  0.00    +0.000 C 
ATOM      3  O   UNL     1      -0.074  10.793  22.525  0.00  0.00    +0.000 OA
ATOM      4  N   UNL     1       1.057   9.907  20.709  0.00  0.00    +0.000 N 
ATOM      5  C   UNL     1       1.456   8.718  20.057  0.00  0.00    +0.000 A 
ATOM      6  C   UNL     1       1.418   7.408  20.519  0.00  0.00    +0.000 A 
ATOM      7  C   UNL     1       1.893   6.367  19.713  0.00  0.00    +0.000 A 
ATOM      8  C   UNL     1       2.376   6.658  18.423  0.00  0.00    +0.000 A 
ATOM      9  C   UNL     1       2.349   7.967  17.933  0.00  0.00    +0.000 A 
ATOM     10  C   UNL     1       1.865   8.976  18.754  0.00  0.00    +0.000 A 
ATOM     11  C   UNL     1       1.732  10.429  18.434  0.00  0.00    +0.000 C 
ATOM     12  C   UNL     1       0.877  10.978  19.639  0.00  0.00    +0.000 C 
ATOM     13  C   UNL     1       1.432  12.370  20.003  0.00  0.00    +0.000 C 
ATOM     14  C   UNL     1       0.526  13.208  20.905  0.00  0.00    +0.000 C 
ATOM     15  N   UNL     1      -0.880  13.277  20.492  0.00  0.00    +0.000 NA
ATOM     16  C   UNL     1      -1.438  11.968  20.132  0.00  0.00    +0.000 C 
ATOM     17  C   UNL     1      -0.585  11.144  19.172  0.00  0.00    +0.000 C 
ENDROOT
BRANCH   7  18
ATOM     18  C   UNL     1       1.874   4.949  20.231  0.00  0.00    +0.000 C 
ATOM     19  F   UNL     1       2.570   4.076  19.447  0.00  0.00    +0.000 F 
ATOM     20  F   UNL     1       2.416   4.840  21.476  0.00  0.00    +0.000 F 
ATOM     21  F   UNL     1       0.615   4.440  20.320  0.00  0.00    +0.000 F 
ENDBRANCH   7  18
BRANCH  15  22
ATOM     22  C   UNL     1      -1.156  14.384  19.572  0.00  0.00    +0.000 C 
BRANCH  22  23
ATOM     23  C   UNL     1      -0.516  15.735  19.980  0.00  0.00    +0.000 C 
ATOM     24  C   UNL     1       0.266  16.407  18.837  0.00  0.00    +0.000 C 
ATOM     25  C   UNL     1      -0.649  17.132  17.862  0.00  0.00    +0.000 C 
ATOM     26  O   UNL     1      -1.435  18.098  18.558  0.00  0.00    +0.000 OA
ATOM     27  C   UNL     1      -2.322  17.488  19.490  0.00  0.00    +0.000 C 
ATOM     28  C   UNL     1      -1.562  16.706  20.555  0.00  0.00    +0.000 C 
ENDBRANCH  22  23
ENDBRANCH  15  22
TORSDOF 3
ENDMDL
MODEL 4
REMARK VINA RESULT:      -6.5      9.382     10.432
REMARK  Name = 
REMARK  4 active torsions:
REMARK  status: ('A' for Active; 'I' for Inactive)
REMARK    1  A    between atoms: C_1  and  C_2
REMARK    2  A    between atoms: C_7  and  C_8
REMARK    3  A    between atoms: N_19  and  C_20
REMARK    4  A    between atoms: C_20  and  C_21
REMARK                            x       y       z     vdW  Elec       q    Type
REMARK                         _______ _______ _______ _____ _____    ______ ____
ROOT
ATOM      1  C   UNL     1       7.808  13.778  22.597  0.00  0.00    +0.000 C 
ATOM      2  C   UNL     1       6.772  14.261  21.608  0.00  0.00    +0.000 C 
ATOM      3  O   UNL     1       5.602  14.255  21.978  0.00  0.00    +0.000 OA
ATOM      4  N   UNL     1       7.211  14.769  20.394  0.00  0.00    +0.000 N 
ATOM      5  C   UNL     1       8.336  14.290  19.683  0.00  0.00    +0.000 A 
ATOM      6  C   UNL     1       9.092  13.146  19.904  0.00  0.00    +0.000 A 
ATOM      7  C   UNL     1      10.196  12.868  19.090  0.00  0.00    +0.000 A 
ATOM      8  C   UNL     1      10.508  13.740  18.030  0.00  0.00    +0.000 A 
ATOM      9  C   UNL     1       9.706  14.853  17.765  0.00  0.00    +0.000 A 
ATOM     10  C   UNL     1       8.613  15.098  18.586  0.00  0.00    +0.000 A 
ATOM     11  C   UNL     1       7.621  16.209  18.479  0.00  0.00    +0.000 C 
ATOM     12  C   UNL     1       6.498  15.777  19.499  0.00  0.00    +0.000 C 
ATOM     13  C   UNL     1       6.005  17.053  20.210  0.00  0.00    +0.000 C 
ATOM     14  C   UNL     1       4.689  16.896  20.973  0.00  0.00    +0.000 C 
ATOM     15  N   UNL     1       3.608  16.237  20.231  0.00  0.00    +0.000 NA
ATOM     16  C   UNL     1       4.046  15.021  19.537  0.00  0.00    +0.000 C 
ATOM     17  C   UNL     1       5.318  15.174  18.707  0.00  0.00    +0.000 C 
ENDROOT
BRANCH   7  18
ATOM     18  C   UNL     1      11.030  11.638  19.352  0.00  0.00    +0.000 C 
ATOM     19  F   UNL     1      11.734  11.699  20.519  0.00  0.00    +0.000 F 
ATOM     20  F   UNL     1      10.280  10.504  19.432  0.00  0.00    +0.000 F 
ATOM     21  F   UNL     1      11.953  11.414  18.377  0.00  0.00    +0.000 F 
ENDBRANCH   7  18
BRANCH  15  22
ATOM     22  C   UNL     1       2.785  17.173  19.462  0.00  0.00    +0.000 C 
BRANCH  22  23
ATOM     23  C   UNL     1       2.021  16.534  18.274  0.00  0.00    +0.000 C 
ATOM     24  C   UNL     1       0.566  16.166  18.614  0.00  0.00    +0.000 C 
ATOM     25  C   UNL     1      -0.359  17.372  18.563  0.00  0.00    +0.000 C 
ATOM     26  O   UNL     1      -0.292  17.984  17.276  0.00  0.00    +0.000 OA
ATOM     27  C   UNL     1       1.001  18.518  17.010  0.00  0.00    +0.000 C 
ATOM     28  C   UNL     1       2.068  17.429  17.024  0.00  0.00    +0.000 C 
ENDBRANCH  22  23
ENDBRANCH  15  22
TORSDOF 3
ENDMDL
MODEL 5
REMARK VINA RESULT:      -6.5      7.949     10.418
REMARK  Name = 
REMARK  4 active torsions:
REMARK  status: ('A' for Active; 'I' for Inactive)
REMARK    1  A    between atoms: C_1  and  C_2
REMARK    2  A    between atoms: C_7  and  C_8
REMARK    3  A    between atoms: N_19  and  C_20
REMARK    4  A    between atoms: C_20  and  C_21
REMARK                            x       y       z     vdW  Elec       q    Type
REMARK                         _______ _______ _______ _____ _____    ______ ____
ROOT
ATOM      1  C   UNL     1      -5.416  12.239  20.083  0.00  0.00    +0.000 C 
ATOM      2  C   UNL     1      -4.254  12.993  20.686  0.00  0.00    +0.000 C 
ATOM      3  O   UNL     1      -4.516  14.021  21.303  0.00  0.00    +0.000 OA
ATOM      4  N   UNL     1      -2.988  12.433  20.592  0.00  0.00    +0.000 N 
ATOM      5  C   UNL     1      -2.523  11.680  19.489  0.00  0.00    +0.000 A 
ATOM      6  C   UNL     1      -3.100  11.510  18.237  0.00  0.00    +0.000 A 
ATOM      7  C   UNL     1      -2.482  10.690  17.286  0.00  0.00    +0.000 A 
ATOM      8  C   UNL     1      -1.257  10.071  17.601  0.00  0.00    +0.000 A 
ATOM      9  C   UNL     1      -0.642  10.299  18.835  0.00  0.00    +0.000 A 
ATOM     10  C   UNL     1      -1.278  11.123  19.754  0.00  0.00    +0.000 A 
ATOM     11  C   UNL     1      -0.800  11.513  21.115  0.00  0.00    +0.000 C 
ATOM     12  C   UNL     1      -1.803  12.659  21.524  0.00  0.00    +0.000 C 
ATOM     13  C   UNL     1      -2.107  12.490  23.027  0.00  0.00    +0.000 C 
ATOM     14  C   UNL     1      -2.776  13.696  23.687  0.00  0.00    +0.000 C 
ATOM     15  N   UNL     1      -2.151  14.993  23.404  0.00  0.00    +0.000 NA
ATOM     16  C   UNL     1      -1.841  15.184  21.982  0.00  0.00    +0.000 C 
ATOM     17  C   UNL     1      -1.107  14.022  21.320  0.00  0.00    +0.000 C 
ENDROOT
BRANCH   7  18
ATOM     18  C   UNL     1      -3.127  10.487  15.937  0.00  0.00    +0.000 C 
ATOM     19  F   UNL     1      -2.611  11.289  14.962  0.00  0.00    +0.000 F 
ATOM     20  F   UNL     1      -2.988   9.212  15.478  0.00  0.00    +0.000 F 
ATOM     21  F   UNL     1      -4.464  10.741  15.953  0.00  0.00    +0.000 F 
ENDBRANCH   7  18
BRANCH  15  22
ATOM     22  C   UNL     1      -1.096  15.344  24.358  0.00  0.00    +0.000 C 
BRANCH  22  23
ATOM     23  C   UNL     1      -1.608  15.943  25.693  0.00  0.00    +0.000 C 
ATOM     24  C   UNL     1      -0.480  16.251  26.694  0.00  0.00    +0.000 C 
ATOM     25  C   UNL     1       0.231  17.557  26.376  0.00  0.00    +0.000 C 
ATOM     26  O   UNL     1      -0.710  18.629  26.348  0.00  0.00    +0.000 OA
ATOM     27  C   UNL     1      -1.656  18.476  25.295  0.00  0.00    +0.000 C 
ATOM     28  C   UNL     1      -2.469  17.196  25.456  0.00  0.00    +0.000 C 
ENDBRANCH  22  23
ENDBRANCH  15  22
TORSDOF 3
ENDMDL
MODEL 6
REMARK VINA RESULT:      -6.5      4.832      7.472
REMARK  Name = 
REMARK  4 active torsions:
REMARK  status: ('A' for Active; 'I' for Inactive)
REMARK    1  A    between atoms: C_1  and  C_2
REMARK    2  A    between atoms: C_7  and  C_8
REMARK    3  A    between atoms: N_19  and  C_20
REMARK    4  A    between atoms: C_20  and  C_21
REMARK                            x       y       z     vdW  Elec       q    Type
REMARK                         _______ _______ _______ _____ _____    ______ ____
ROOT
ATOM      1  C   UNL     1       1.277   9.207  22.670  0.00  0.00    +0.000 C 
ATOM      2  C   UNL     1       0.687  10.110  21.611  0.00  0.00    +0.000 C 
ATOM      3  O   UNL     1      -0.135  10.942  21.983  0.00  0.00    +0.000 OA
ATOM      4  N   UNL     1       1.178  10.012  20.317  0.00  0.00    +0.000 N 
ATOM      5  C   UNL     1       1.602   8.808  19.708  0.00  0.00    +0.000 A 
ATOM      6  C   UNL     1       1.445   7.500  20.148  0.00  0.00    +0.000 A 
ATOM      7  C   UNL     1       1.971   6.441  19.398  0.00  0.00    +0.000 A 
ATOM      8  C   UNL     1       2.627   6.715  18.183  0.00  0.00    +0.000 A 
ATOM      9  C   UNL     1       2.723   8.026  17.707  0.00  0.00    +0.000 A 
ATOM     10  C   UNL     1       2.185   9.053  18.471  0.00  0.00    +0.000 A 
ATOM     11  C   UNL     1       2.160  10.512  18.151  0.00  0.00    +0.000 C 
ATOM     12  C   UNL     1       1.184  11.095  19.244  0.00  0.00    +0.000 C 
ATOM     13  C   UNL     1       1.751  12.458  19.689  0.00  0.00    +0.000 C 
ATOM     14  C   UNL     1       0.777  13.334  20.477  0.00  0.00    +0.000 C 
ATOM     15  N   UNL     1      -0.561  13.470  19.890  0.00  0.00    +0.000 NA
ATOM     16  C   UNL     1      -1.127  12.190  19.448  0.00  0.00    +0.000 C 
ATOM     17  C   UNL     1      -0.197  11.332  18.596  0.00  0.00    +0.000 C 
ENDROOT
BRANCH   7  18
ATOM     18  C   UNL     1       1.821   5.023  19.895  0.00  0.00    +0.000 C 
ATOM     19  F   UNL     1       1.669   4.112  18.892  0.00  0.00    +0.000 F 
ATOM     20  F   UNL     1       2.900   4.605  20.613  0.00  0.00    +0.000 F 
ATOM     21  F   UNL     1       0.740   4.864  20.705  0.00  0.00    +0.000 F 
ENDBRANCH   7  18
BRANCH  15  22
ATOM     22  C   UNL     1      -0.666  14.593  18.954  0.00  0.00    +0.000 C 
BRANCH  22  23
ATOM     23  C   UNL     1      -0.376  15.981  19.579  0.00  0.00    +0.000 C 
ATOM     24  C   UNL     1       1.114  16.366  19.539  0.00  0.00    +0.000 C 
ATOM     25  C   UNL     1       1.537  16.888  18.175  0.00  0.00    +0.000 C 
ATOM     26  O   UNL     1       0.729  18.005  17.807  0.00  0.00    +0.000 OA
ATOM     27  C   UNL     1      -0.637  17.637  17.638  0.00  0.00    +0.000 C 
ATOM     28  C   UNL     1      -1.230  17.083  18.929  0.00  0.00    +0.000 C 
ENDBRANCH  22  23
ENDBRANCH  15  22
TORSDOF 3
ENDMDL
MODEL 7
REMARK VINA RESULT:      -6.5      7.941     10.301
REMARK  Name = 
REMARK  4 active torsions:
REMARK  status: ('A' for Active; 'I' for Inactive)
REMARK    1  A    between atoms: C_1  and  C_2
REMARK    2  A    between atoms: C_7  and  C_8
REMARK    3  A    between atoms: N_19  and  C_20
REMARK    4  A    between atoms: C_20  and  C_21
REMARK                            x       y       z     vdW  Elec       q    Type
REMARK                         _______ _______ _______ _____ _____    ______ ____
ROOT
ATOM      1  C   UNL     1      -2.217  14.150  20.629  0.00  0.00    +0.000 C 
ATOM      2  C   UNL     1      -0.819  14.276  20.066  0.00  0.00    +0.000 C 
ATOM      3  O   UNL     1      -0.258  15.358  20.204  0.00  0.00    +0.000 OA
ATOM      4  N   UNL     1      -0.227  13.144  19.523  0.00  0.00    +0.000 N 
ATOM      5  C   UNL     1      -0.919  12.138  18.811  0.00  0.00    +0.000 A 
ATOM      6  C   UNL     1      -2.225  12.141  18.335  0.00  0.00    +0.000 A 
ATOM      7  C   UNL     1      -2.730  11.017  17.671  0.00  0.00    +0.000 A 
ATOM      8  C   UNL     1      -1.893   9.904  17.463  0.00  0.00    +0.000 A 
ATOM      9  C   UNL     1      -0.559   9.930  17.881  0.00  0.00    +0.000 A 
ATOM     10  C   UNL     1      -0.086  11.062  18.530  0.00  0.00    +0.000 A 
ATOM     11  C   UNL     1       1.294  11.311  19.044  0.00  0.00    +0.000 C 
ATOM     12  C   UNL     1       1.264  12.845  19.406  0.00  0.00    +0.000 C 
ATOM     13  C   UNL     1       2.075  13.029  20.705  0.00  0.00    +0.000 C 
ATOM     14  C   UNL     1       2.455  14.474  21.027  0.00  0.00    +0.000 C 
ATOM     15  N   UNL     1       3.037  15.233  19.913  0.00  0.00    +0.000 NA
ATOM     16  C   UNL     1       2.292  15.074  18.659  0.00  0.00    +0.000 C 
ATOM     17  C   UNL     1       1.966  13.633  18.279  0.00  0.00    +0.000 C 
ENDROOT
BRANCH   7  18
ATOM     18  C   UNL     1      -4.157  11.014  17.180  0.00  0.00    +0.000 C 
ATOM     19  F   UNL     1      -4.711  12.259  17.118  0.00  0.00    +0.000 F 
ATOM     20  F   UNL     1      -4.278  10.493  15.927  0.00  0.00    +0.000 F 
ATOM     21  F   UNL     1      -4.983  10.282  17.976  0.00  0.00    +0.000 F 
ENDBRANCH   7  18
BRANCH  15  22
ATOM     22  C   UNL     1       4.494  15.109  19.832  0.00  0.00    +0.000 C 
BRANCH  22  23
ATOM     23  C   UNL     1       5.121  15.705  18.546  0.00  0.00    +0.000 C 
ATOM     24  C   UNL     1       5.954  16.973  18.808  0.00  0.00    +0.000 C 
ATOM     25  C   UNL     1       7.343  16.650  19.338  0.00  0.00    +0.000 C 
ATOM     26  O   UNL     1       8.025  15.790  18.427  0.00  0.00    +0.000 OA
ATOM     27  C   UNL     1       7.384  14.523  18.314  0.00  0.00    +0.000 C 
ATOM     28  C   UNL     1       5.960  14.661  17.789  0.00  0.00    +0.000 C 
ENDBRANCH  22  23
ENDBRANCH  15  22
TORSDOF 3
ENDMDL
MODEL 8
REMARK VINA RESULT:      -6.5      4.689      7.250
REMARK  Name = 
REMARK  4 active torsions:
REMARK  status: ('A' for Active; 'I' for Inactive)
REMARK    1  A    between atoms: C_1  and  C_2
REMARK    2  A    between atoms: C_7  and  C_8
REMARK    3  A    between atoms: N_19  and  C_20
REMARK    4  A    between atoms: C_20  and  C_21
REMARK                            x       y       z     vdW  Elec       q    Type
REMARK                         _______ _______ _______ _____ _____    ______ ____
ROOT
ATOM      1  C   UNL     1       1.480   9.133  22.744  0.00  0.00    +0.000 C 
ATOM      2  C   UNL     1       0.880   9.972  21.640  0.00  0.00    +0.000 C 
ATOM      3  O   UNL     1       0.122  10.877  21.976  0.00  0.00    +0.000 OA
ATOM      4  N   UNL     1       1.293   9.734  20.337  0.00  0.00    +0.000 N 
ATOM      5  C   UNL     1       1.622   8.461  19.818  0.00  0.00    +0.000 A 
ATOM      6  C   UNL     1       1.423   7.206  20.381  0.00  0.00    +0.000 A 
ATOM      7  C   UNL     1       1.854   6.059  19.704  0.00  0.00    +0.000 A 
ATOM      8  C   UNL     1       2.456   6.190  18.438  0.00  0.00    +0.000 A 
ATOM      9  C   UNL     1       2.592   7.447  17.842  0.00  0.00    +0.000 A 
ATOM     10  C   UNL     1       2.148   8.565  18.536  0.00  0.00    +0.000 A 
ATOM     11  C   UNL     1       2.180   9.990  18.089  0.00  0.00    +0.000 C 
ATOM     12  C   UNL     1       1.296  10.718  19.172  0.00  0.00    +0.000 C 
ATOM     13  C   UNL     1       1.955  12.082  19.464  0.00  0.00    +0.000 C 
ATOM     14  C   UNL     1       1.070  13.075  20.218  0.00  0.00    +0.000 C 
ATOM     15  N   UNL     1      -0.289  13.233  19.688  0.00  0.00    +0.000 NA
ATOM     16  C   UNL     1      -0.943  11.953  19.392  0.00  0.00    +0.000 C 
ATOM     17  C   UNL     1      -0.105  10.973  18.575  0.00  0.00    +0.000 C 
ENDROOT
BRANCH   7  18
ATOM     18  C   UNL     1       1.660   4.700  20.333  0.00  0.00    +0.000 C 
ATOM     19  F   UNL     1       2.176   4.608  21.592  0.00  0.00    +0.000 F 
ATOM     20  F   UNL     1       0.347   4.359  20.445  0.00  0.00    +0.000 F 
ATOM     21  F   UNL     1       2.252   3.705  19.618  0.00  0.00    +0.000 F 
ENDBRANCH   7  18
BRANCH  15  22
ATOM     22  C   UNL     1      -0.388  14.274  18.662  0.00  0.00    +0.000 C 
BRANCH  22  23
ATOM     23  C   UNL     1      -0.802  15.669  19.197  0.00  0.00    +0.000 C 
ATOM     24  C   UNL     1      -0.155  16.017  20.549  0.00  0.00    +0.000 C 
ATOM     25  C   UNL     1       1.279  16.498  20.395  0.00  0.00    +0.000 C 
ATOM     26  O   UNL     1       1.323  17.625  19.522  0.00  0.00    +0.000 OA
ATOM     27  C   UNL     1       0.918  17.287  18.199  0.00  0.00    +0.000 C 
ATOM     28  C   UNL     1      -0.518  16.776  18.168  0.00  0.00    +0.000 C 
ENDBRANCH  22  23
ENDBRANCH  15  22
TORSDOF 3
ENDMDL
MODEL 9
REMARK VINA RESULT:      -6.4      4.710      7.697
REMARK  Name = 
REMARK  4 active torsions:
REMARK  status: ('A' for Active; 'I' for Inactive)
REMARK    1  A    between atoms: C_1  and  C_2
REMARK    2  A    between atoms: C_7  and  C_8
REMARK    3  A    between atoms: N_19  and  C_20
REMARK    4  A    between atoms: C_20  and  C_21
REMARK                            x       y       z     vdW  Elec       q    Type
REMARK                         _______ _______ _______ _____ _____    ______ ____
ROOT
ATOM      1  C   UNL     1       1.444   9.252  23.074  0.00  0.00    +0.000 C 
ATOM      2  C   UNL     1       0.365  10.119  22.468  0.00  0.00    +0.000 C 
ATOM      3  O   UNL     1      -0.535  10.493  23.214  0.00  0.00    +0.000 OA
ATOM      4  N   UNL     1       0.508  10.517  21.146  0.00  0.00    +0.000 N 
ATOM      5  C   UNL     1       1.085   9.725  20.127  0.00  0.00    +0.000 A 
ATOM      6  C   UNL     1       1.431   8.379  20.151  0.00  0.00    +0.000 A 
ATOM      7  C   UNL     1       2.024   7.788  19.030  0.00  0.00    +0.000 A 
ATOM      8  C   UNL     1       2.234   8.561  17.872  0.00  0.00    +0.000 A 
ATOM      9  C   UNL     1       1.821   9.896  17.824  0.00  0.00    +0.000 A 
ATOM     10  C   UNL     1       1.230  10.451  18.951  0.00  0.00    +0.000 A 
ATOM     11  C   UNL     1       0.705  11.840  19.117  0.00  0.00    +0.000 C 
ATOM     12  C   UNL     1      -0.078  11.759  20.484  0.00  0.00    +0.000 C 
ATOM     13  C   UNL     1       0.170  13.083  21.235  0.00  0.00    +0.000 C 
ATOM     14  C   UNL     1      -0.774  13.342  22.410  0.00  0.00    +0.000 C 
ATOM     15  N   UNL     1      -2.199  13.139  22.126  0.00  0.00    +0.000 NA
ATOM     16  C   UNL     1      -2.469  11.890  21.404  0.00  0.00    +0.000 C 
ATOM     17  C   UNL     1      -1.588  11.646  20.183  0.00  0.00    +0.000 C 
ENDROOT
BRANCH   7  18
ATOM     18  C   UNL     1       2.424   6.333  19.071  0.00  0.00    +0.000 C 
ATOM     19  F   UNL     1       1.951   5.673  20.167  0.00  0.00    +0.000 F 
ATOM     20  F   UNL     1       1.967   5.635  17.994  0.00  0.00    +0.000 F 
ATOM     21  F   UNL     1       3.773   6.161  19.091  0.00  0.00    +0.000 F 
ENDBRANCH   7  18
BRANCH  15  22
ATOM     22  C   UNL     1      -2.863  14.345  21.623  0.00  0.00    +0.000 C 
BRANCH  22  23
ATOM     23  C   UNL     1      -3.978  14.898  22.547  0.00  0.00    +0.000 C 
ATOM     24  C   UNL     1      -5.396  14.659  21.997  0.00  0.00    +0.000 C 
ATOM     25  C   UNL     1      -5.881  13.241  22.256  0.00  0.00    +0.000 C 
ATOM     26  O   UNL     1      -5.839  12.958  23.653  0.00  0.00    +0.000 OA
ATOM     27  C   UNL     1      -4.507  12.974  24.156  0.00  0.00    +0.000 C 
ATOM     28  C   UNL     1      -3.857  14.341  23.975  0.00  0.00    +0.000 C 
ENDBRANCH  22  23
ENDBRANCH  15  22
TORSDOF 3
ENDMDL
