MODEL 1
REMARK VINA RESULT:      -8.2      0.000      0.000
REMARK  Name = 
REMARK  5 active torsions:
REMARK  status: ('A' for Active; 'I' for Inactive)
REMARK    1  A    between atoms: C_1  and  O_2
REMARK    2  A    between atoms: O_2  and  C_3
REMARK    3  A    between atoms: C_6  and  C_7
REMARK    4  A    between atoms: N_13  and  C_14
REMARK    5  A    between atoms: C_17  and  C_18
REMARK                            x       y       z     vdW  Elec       q    Type
REMARK                         _______ _______ _______ _____ _____    ______ ____
ROOT
ATOM      1  C   UNL     1       3.058   5.109  18.784  0.00  0.00    +0.000 A 
ATOM      2  N   UNL     1       2.618   3.928  19.188  0.00  0.00    +0.000 NA
ATOM      3  C   UNL     1       1.838   4.012  20.259  0.00  0.00    +0.000 A 
ATOM      4 CL   UNL     1       1.208   2.530  20.837  0.00  0.00    +0.000 Cl
ATOM      5  N   UNL     1       1.467   5.097  20.931  0.00  0.00    +0.000 NA
ATOM      6  C   UNL     1       1.941   6.220  20.419  0.00  0.00    +0.000 A 
ATOM      7  N   UNL     1       1.599   7.425  21.040  0.00  0.00    +0.000 N 
ATOM      8  N   UNL     1       2.736   6.263  19.359  0.00  0.00    +0.000 NA
ATOM      9  H   UNL     1       0.998   7.254  21.834  0.00  0.00    +0.000 HD
ENDROOT
BRANCH   7  10
ATOM     10  C   UNL     1       1.368   8.660  20.405  0.00  0.00    +0.000 A 
ATOM     11  C   UNL     1       1.580   8.861  19.034  0.00  0.00    +0.000 A 
ATOM     12  C   UNL     1       1.304  10.090  18.431  0.00  0.00    +0.000 A 
ATOM     13  C   UNL     1       0.818  11.155  19.190  0.00  0.00    +0.000 A 
ATOM     14  C   UNL     1       0.470  12.463  18.545  0.00  0.00    +0.000 C 
ATOM     15  C   UNL     1       0.638  10.977  20.566  0.00  0.00    +0.000 A 
ATOM     16  C   UNL     1       0.902   9.739  21.164  0.00  0.00    +0.000 A 
ENDBRANCH   7  10
BRANCH   1  20
ATOM     17  C   UNL     1       5.718   5.411  15.401  0.00  0.00    +0.000 A 
ATOM     18  C   UNL     1       5.298   4.161  15.855  0.00  0.00    +0.000 A 
ATOM     19  C   UNL     1       4.426   4.051  16.947  0.00  0.00    +0.000 A 
ATOM     20  C   UNL     1       3.965   5.191  17.623  0.00  0.00    +0.000 A 
ATOM     21  C   UNL     1       4.419   6.442  17.154  0.00  0.00    +0.000 A 
ATOM     22  C   UNL     1       5.285   6.555  16.062  0.00  0.00    +0.000 A 
BRANCH  17  24
ATOM     23  C   UNL     1       6.599   4.182  13.587  0.00  0.00    +0.000 C 
ATOM     24  O   UNL     1       6.573   5.394  14.334  0.00  0.00    +0.000 OA
ENDBRANCH  17  24
ENDBRANCH   1  20
TORSDOF 3
ENDMDL
MODEL 2
REMARK VINA RESULT:      -8.1      0.130      1.007
REMARK  Name = 
REMARK  5 active torsions:
REMARK  status: ('A' for Active; 'I' for Inactive)
REMARK    1  A    between atoms: C_1  and  O_2
REMARK    2  A    between atoms: O_2  and  C_3
REMARK    3  A    between atoms: C_6  and  C_7
REMARK    4  A    between atoms: N_13  and  C_14
REMARK    5  A    between atoms: C_17  and  C_18
REMARK                            x       y       z     vdW  Elec       q    Type
REMARK                         _______ _______ _______ _____ _____    ______ ____
ROOT
ATOM      1  C   UNL     1       3.124   5.049  18.776  0.00  0.00    +0.000 A 
ATOM      2  N   UNL     1       2.676   3.865  19.165  0.00  0.00    +0.000 NA
ATOM      3  C   UNL     1       1.875   3.944  20.221  0.00  0.00    +0.000 A 
ATOM      4 CL   UNL     1       1.233   2.459  20.779  0.00  0.00    +0.000 Cl
ATOM      5  N   UNL     1       1.491   5.025  20.892  0.00  0.00    +0.000 NA
ATOM      6  C   UNL     1       1.975   6.151  20.395  0.00  0.00    +0.000 A 
ATOM      7  N   UNL     1       1.622   7.353  21.016  0.00  0.00    +0.000 N 
ATOM      8  N   UNL     1       2.791   6.200  19.351  0.00  0.00    +0.000 NA
ATOM      9  H   UNL     1       1.006   7.178  21.798  0.00  0.00    +0.000 HD
ENDROOT
BRANCH   7  10
ATOM     10  C   UNL     1       1.403   8.592  20.384  0.00  0.00    +0.000 A 
ATOM     11  C   UNL     1       1.621   8.793  19.014  0.00  0.00    +0.000 A 
ATOM     12  C   UNL     1       1.358  10.027  18.413  0.00  0.00    +0.000 A 
ATOM     13  C   UNL     1       0.878  11.094  19.173  0.00  0.00    +0.000 A 
ATOM     14  C   UNL     1       0.543  12.406  18.530  0.00  0.00    +0.000 C 
ATOM     15  C   UNL     1       0.692  10.913  20.548  0.00  0.00    +0.000 A 
ATOM     16  C   UNL     1       0.943   9.672  21.144  0.00  0.00    +0.000 A 
ENDBRANCH   7  10
BRANCH   1  20
ATOM     17  C   UNL     1       5.836   5.238  15.426  0.00  0.00    +0.000 A 
ATOM     18  C   UNL     1       5.302   6.409  15.965  0.00  0.00    +0.000 A 
ATOM     19  C   UNL     1       4.428   6.360  17.060  0.00  0.00    +0.000 A 
ATOM     20  C   UNL     1       4.053   5.136  17.633  0.00  0.00    +0.000 A 
ATOM     21  C   UNL     1       4.592   3.966  17.057  0.00  0.00    +0.000 A 
ATOM     22  C   UNL     1       5.469   4.012  15.968  0.00  0.00    +0.000 A 
BRANCH  17  24
ATOM     23  C   UNL     1       6.763   4.300  13.467  0.00  0.00    +0.000 C 
ATOM     24  O   UNL     1       6.671   5.408  14.357  0.00  0.00    +0.000 OA
ENDBRANCH  17  24
ENDBRANCH   1  20
TORSDOF 3
ENDMDL
MODEL 3
REMARK VINA RESULT:      -8.1      0.172      1.016
REMARK  Name = 
REMARK  5 active torsions:
REMARK  status: ('A' for Active; 'I' for Inactive)
REMARK    1  A    between atoms: C_1  and  O_2
REMARK    2  A    between atoms: O_2  and  C_3
REMARK    3  A    between atoms: C_6  and  C_7
REMARK    4  A    between atoms: N_13  and  C_14
REMARK    5  A    between atoms: C_17  and  C_18
REMARK                            x       y       z     vdW  Elec       q    Type
REMARK                         _______ _______ _______ _____ _____    ______ ____
ROOT
ATOM      1  C   UNL     1       3.107   5.022  18.762  0.00  0.00    +0.000 A 
ATOM      2  N   UNL     1       2.661   3.837  19.149  0.00  0.00    +0.000 NA
ATOM      3  C   UNL     1       1.872   3.910  20.214  0.00  0.00    +0.000 A 
ATOM      4 CL   UNL     1       1.232   2.423  20.769  0.00  0.00    +0.000 Cl
ATOM      5  N   UNL     1       1.498   4.988  20.896  0.00  0.00    +0.000 NA
ATOM      6  C   UNL     1       1.979   6.116  20.401  0.00  0.00    +0.000 A 
ATOM      7  N   UNL     1       1.636   7.314  21.034  0.00  0.00    +0.000 N 
ATOM      8  N   UNL     1       2.784   6.170  19.348  0.00  0.00    +0.000 NA
ATOM      9  H   UNL     1       1.028   7.136  21.821  0.00  0.00    +0.000 HD
ENDROOT
BRANCH   7  10
ATOM     10  C   UNL     1       1.414   8.558  20.412  0.00  0.00    +0.000 A 
ATOM     11  C   UNL     1       0.911   9.671  21.100  0.00  0.00    +0.000 A 
ATOM     12  C   UNL     1       0.738  10.901  20.460  0.00  0.00    +0.000 A 
ATOM     13  C   UNL     1       1.055  11.044  19.109  0.00  0.00    +0.000 A 
ATOM     14  C   UNL     1       0.923  12.371  18.424  0.00  0.00    +0.000 C 
ATOM     15  C   UNL     1       1.523   9.929  18.404  0.00  0.00    +0.000 A 
ATOM     16  C   UNL     1       1.709   8.702  19.053  0.00  0.00    +0.000 A 
ENDBRANCH   7  10
BRANCH   1  20
ATOM     17  C   UNL     1       5.791   5.358  15.401  0.00  0.00    +0.000 A 
ATOM     18  C   UNL     1       5.449   4.103  15.905  0.00  0.00    +0.000 A 
ATOM     19  C   UNL     1       4.570   3.981  16.990  0.00  0.00    +0.000 A 
ATOM     20  C   UNL     1       4.024   5.114  17.609  0.00  0.00    +0.000 A 
ATOM     21  C   UNL     1       4.400   6.373  17.092  0.00  0.00    +0.000 A 
ATOM     22  C   UNL     1       5.273   6.497  16.006  0.00  0.00    +0.000 A 
BRANCH  17  24
ATOM     23  C   UNL     1       6.580   4.219  13.489  0.00  0.00    +0.000 C 
ATOM     24  O   UNL     1       6.661   5.353  14.346  0.00  0.00    +0.000 OA
ENDBRANCH  17  24
ENDBRANCH   1  20
TORSDOF 3
ENDMDL
MODEL 4
REMARK VINA RESULT:      -8.0      0.164      1.425
REMARK  Name = 
REMARK  5 active torsions:
REMARK  status: ('A' for Active; 'I' for Inactive)
REMARK    1  A    between atoms: C_1  and  O_2
REMARK    2  A    between atoms: O_2  and  C_3
REMARK    3  A    between atoms: C_6  and  C_7
REMARK    4  A    between atoms: N_13  and  C_14
REMARK    5  A    between atoms: C_17  and  C_18
REMARK                            x       y       z     vdW  Elec       q    Type
REMARK                         _______ _______ _______ _____ _____    ______ ____
ROOT
ATOM      1  C   UNL     1       3.079   5.090  18.768  0.00  0.00    +0.000 A 
ATOM      2  N   UNL     1       2.619   3.907  19.143  0.00  0.00    +0.000 NA
ATOM      3  C   UNL     1       1.812   3.981  20.194  0.00  0.00    +0.000 A 
ATOM      4 CL   UNL     1       1.154   2.497  20.732  0.00  0.00    +0.000 Cl
ATOM      5  N   UNL     1       1.434   5.059  20.874  0.00  0.00    +0.000 NA
ATOM      6  C   UNL     1       1.930   6.186  20.392  0.00  0.00    +0.000 A 
ATOM      7  N   UNL     1       1.584   7.384  21.022  0.00  0.00    +0.000 N 
ATOM      8  N   UNL     1       2.753   6.238  19.353  0.00  0.00    +0.000 NA
ATOM      9  H   UNL     1       0.961   7.207  21.798  0.00  0.00    +0.000 HD
ENDROOT
BRANCH   7  10
ATOM     10  C   UNL     1       1.380   8.631  20.402  0.00  0.00    +0.000 A 
ATOM     11  C   UNL     1       0.919   9.758  21.096  0.00  0.00    +0.000 A 
ATOM     12  C   UNL     1       0.764  10.990  20.456  0.00  0.00    +0.000 A 
ATOM     13  C   UNL     1       1.057  11.122  19.098  0.00  0.00    +0.000 A 
ATOM     14  C   UNL     1       0.944  12.450  18.412  0.00  0.00    +0.000 C 
ATOM     15  C   UNL     1       1.482   9.994  18.388  0.00  0.00    +0.000 A 
ATOM     16  C   UNL     1       1.651   8.765  19.036  0.00  0.00    +0.000 A 
ENDBRANCH   7  10
BRANCH   1  20
ATOM     17  C   UNL     1       5.813   5.290  15.436  0.00  0.00    +0.000 A 
ATOM     18  C   UNL     1       5.300   6.460  15.996  0.00  0.00    +0.000 A 
ATOM     19  C   UNL     1       4.419   6.408  17.085  0.00  0.00    +0.000 A 
ATOM     20  C   UNL     1       4.016   5.181  17.632  0.00  0.00    +0.000 A 
ATOM     21  C   UNL     1       4.535   4.011  17.036  0.00  0.00    +0.000 A 
ATOM     22  C   UNL     1       5.418   4.061  15.952  0.00  0.00    +0.000 A 
BRANCH  17  24
ATOM     23  C   UNL     1       6.763   4.356  13.486  0.00  0.00    +0.000 C 
ATOM     24  O   UNL     1       6.657   5.464  14.375  0.00  0.00    +0.000 OA
ENDBRANCH  17  24
ENDBRANCH   1  20
TORSDOF 3
ENDMDL
MODEL 5
REMARK VINA RESULT:      -7.9      4.798      7.992
REMARK  Name = 
REMARK  5 active torsions:
REMARK  status: ('A' for Active; 'I' for Inactive)
REMARK    1  A    between atoms: C_1  and  O_2
REMARK    2  A    between atoms: O_2  and  C_3
REMARK    3  A    between atoms: C_6  and  C_7
REMARK    4  A    between atoms: N_13  and  C_14
REMARK    5  A    between atoms: C_17  and  C_18
REMARK                            x       y       z     vdW  Elec       q    Type
REMARK                         _______ _______ _______ _____ _____    ______ ____
ROOT
ATOM      1  C   UNL     1       5.558   5.765  17.610  0.00  0.00    +0.000 A 
ATOM      2  N   UNL     1       6.164   6.813  18.147  0.00  0.00    +0.000 NA
ATOM      3  C   UNL     1       7.256   7.169  17.481  0.00  0.00    +0.000 A 
ATOM      4 CL   UNL     1       8.090   8.530  18.097  0.00  0.00    +0.000 Cl
ATOM      5  N   UNL     1       7.777   6.619  16.390  0.00  0.00    +0.000 NA
ATOM      6  C   UNL     1       7.072   5.601  15.926  0.00  0.00    +0.000 A 
ATOM      7  N   UNL     1       7.523   4.957  14.770  0.00  0.00    +0.000 N 
ATOM      8  N   UNL     1       5.970   5.148  16.508  0.00  0.00    +0.000 NA
ATOM      9  H   UNL     1       8.370   5.392  14.431  0.00  0.00    +0.000 HD
ENDROOT
BRANCH   7  10
ATOM     10  C   UNL     1       6.724   4.399  13.754  0.00  0.00    +0.000 A 
ATOM     11  C   UNL     1       7.256   3.911  12.552  0.00  0.00    +0.000 A 
ATOM     12  C   UNL     1       6.437   3.329  11.581  0.00  0.00    +0.000 A 
ATOM     13  C   UNL     1       5.060   3.230  11.786  0.00  0.00    +0.000 A 
ATOM     14  C   UNL     1       4.178   2.561  10.775  0.00  0.00    +0.000 C 
ATOM     15  C   UNL     1       4.515   3.747  12.967  0.00  0.00    +0.000 A 
ATOM     16  C   UNL     1       5.341   4.316  13.944  0.00  0.00    +0.000 A 
ENDBRANCH   7  10
BRANCH   1  20
ATOM     17  C   UNL     1       1.991   4.143  19.415  0.00  0.00    +0.000 A 
ATOM     18  C   UNL     1       2.965   4.753  20.207  0.00  0.00    +0.000 A 
ATOM     19  C   UNL     1       4.122   5.293  19.630  0.00  0.00    +0.000 A 
ATOM     20  C   UNL     1       4.344   5.220  18.247  0.00  0.00    +0.000 A 
ATOM     21  C   UNL     1       3.353   4.581  17.471  0.00  0.00    +0.000 A 
ATOM     22  C   UNL     1       2.194   4.047  18.043  0.00  0.00    +0.000 A 
BRANCH  17  24
ATOM     23  C   UNL     1       1.206   2.903  21.265  0.00  0.00    +0.000 C 
ATOM     24  O   UNL     1       0.909   3.647  20.088  0.00  0.00    +0.000 OA
ENDBRANCH  17  24
ENDBRANCH   1  20
TORSDOF 3
ENDMDL
MODEL 6
REMARK VINA RESULT:      -7.8      2.370      6.737
REMARK  Name = 
REMARK  5 active torsions:
REMARK  status: ('A' for Active; 'I' for Inactive)
REMARK    1  A    between atoms: C_1  and  O_2
REMARK    2  A    between atoms: O_2  and  C_3
REMARK    3  A    between atoms: C_6  and  C_7
REMARK    4  A    between atoms: N_13  and  C_14
REMARK    5  A    between atoms: C_17  and  C_18
REMARK                            x       y       z     vdW  Elec       q    Type
REMARK                         _______ _______ _______ _____ _____    ______ ____
ROOT
ATOM      1  C   UNL     1       2.525   5.715  19.432  0.00  0.00    +0.000 A 
ATOM      2  N   UNL     1       2.254   5.100  20.573  0.00  0.00    +0.000 NA
ATOM      3  C   UNL     1       2.621   3.825  20.567  0.00  0.00    +0.000 A 
ATOM      4 CL   UNL     1       2.326   2.959  22.013  0.00  0.00    +0.000 Cl
ATOM      5  N   UNL     1       3.205   3.135  19.592  0.00  0.00    +0.000 NA
ATOM      6  C   UNL     1       3.455   3.859  18.513  0.00  0.00    +0.000 A 
ATOM      7  N   UNL     1       4.082   3.236  17.431  0.00  0.00    +0.000 N 
ATOM      8  N   UNL     1       3.127   5.139  18.398  0.00  0.00    +0.000 NA
ATOM      9  H   UNL     1       4.271   2.266  17.643  0.00  0.00    +0.000 HD
ENDROOT
BRANCH   7  10
ATOM     10  C   UNL     1       5.014   3.819  16.551  0.00  0.00    +0.000 A 
ATOM     11  C   UNL     1       6.220   4.383  16.989  0.00  0.00    +0.000 A 
ATOM     12  C   UNL     1       7.139   4.919  16.083  0.00  0.00    +0.000 A 
ATOM     13  C   UNL     1       6.868   4.913  14.715  0.00  0.00    +0.000 A 
ATOM     14  C   UNL     1       7.868   5.439  13.730  0.00  0.00    +0.000 C 
ATOM     15  C   UNL     1       5.650   4.385  14.271  0.00  0.00    +0.000 A 
ATOM     16  C   UNL     1       4.738   3.835  15.180  0.00  0.00    +0.000 A 
ENDBRANCH   7  10
BRANCH   1  20
ATOM     17  C   UNL     1       1.443   9.854  18.869  0.00  0.00    +0.000 A 
ATOM     18  C   UNL     1       1.221   9.230  20.097  0.00  0.00    +0.000 A 
ATOM     19  C   UNL     1       1.578   7.889  20.295  0.00  0.00    +0.000 A 
ATOM     20  C   UNL     1       2.151   7.133  19.262  0.00  0.00    +0.000 A 
ATOM     21  C   UNL     1       2.348   7.782  18.024  0.00  0.00    +0.000 A 
ATOM     22  C   UNL     1       1.997   9.121  17.826  0.00  0.00    +0.000 A 
BRANCH  17  24
ATOM     23  C   UNL     1       1.050  11.876  20.022  0.00  0.00    +0.000 C 
ATOM     24  O   UNL     1       1.048  11.160  18.791  0.00  0.00    +0.000 OA
ENDBRANCH  17  24
ENDBRANCH   1  20
TORSDOF 3
ENDMDL
MODEL 7
REMARK VINA RESULT:      -7.8      2.381      6.640
REMARK  Name = 
REMARK  5 active torsions:
REMARK  status: ('A' for Active; 'I' for Inactive)
REMARK    1  A    between atoms: C_1  and  O_2
REMARK    2  A    between atoms: O_2  and  C_3
REMARK    3  A    between atoms: C_6  and  C_7
REMARK    4  A    between atoms: N_13  and  C_14
REMARK    5  A    between atoms: C_17  and  C_18
REMARK                            x       y       z     vdW  Elec       q    Type
REMARK                         _______ _______ _______ _____ _____    ______ ____
ROOT
ATOM      1  C   UNL     1       2.518   5.828  19.377  0.00  0.00    +0.000 A 
ATOM      2  N   UNL     1       2.238   5.236  20.528  0.00  0.00    +0.000 NA
ATOM      3  C   UNL     1       2.598   3.958  20.547  0.00  0.00    +0.000 A 
ATOM      4 CL   UNL     1       2.291   3.121  22.007  0.00  0.00    +0.000 Cl
ATOM      5  N   UNL     1       3.181   3.248  19.587  0.00  0.00    +0.000 NA
ATOM      6  C   UNL     1       3.440   3.949  18.497  0.00  0.00    +0.000 A 
ATOM      7  N   UNL     1       4.068   3.303  17.428  0.00  0.00    +0.000 N 
ATOM      8  N   UNL     1       3.121   5.229  18.356  0.00  0.00    +0.000 NA
ATOM      9  H   UNL     1       4.250   2.336  17.659  0.00  0.00    +0.000 HD
ENDROOT
BRANCH   7  10
ATOM     10  C   UNL     1       5.007   3.864  16.542  0.00  0.00    +0.000 A 
ATOM     11  C   UNL     1       6.225   4.407  16.972  0.00  0.00    +0.000 A 
ATOM     12  C   UNL     1       7.151   4.922  16.061  0.00  0.00    +0.000 A 
ATOM     13  C   UNL     1       6.874   4.914  14.693  0.00  0.00    +0.000 A 
ATOM     14  C   UNL     1       7.880   5.415  13.702  0.00  0.00    +0.000 C 
ATOM     15  C   UNL     1       5.645   4.407  14.257  0.00  0.00    +0.000 A 
ATOM     16  C   UNL     1       4.726   3.879  15.172  0.00  0.00    +0.000 A 
ENDBRANCH   7  10
BRANCH   1  20
ATOM     17  C   UNL     1       1.438   9.973  18.863  0.00  0.00    +0.000 A 
ATOM     18  C   UNL     1       2.068   9.277  17.831  0.00  0.00    +0.000 A 
ATOM     19  C   UNL     1       2.414   7.928  17.983  0.00  0.00    +0.000 A 
ATOM     20  C   UNL     1       2.153   7.244  19.179  0.00  0.00    +0.000 A 
ATOM     21  C   UNL     1       1.532   7.975  20.214  0.00  0.00    +0.000 A 
ATOM     22  C   UNL     1       1.180   9.321  20.063  0.00  0.00    +0.000 A 
BRANCH  17  24
ATOM     23  C   UNL     1       2.273  12.100  18.266  0.00  0.00    +0.000 C 
ATOM     24  O   UNL     1       1.154  11.285  18.603  0.00  0.00    +0.000 OA
ENDBRANCH  17  24
ENDBRANCH   1  20
TORSDOF 3
ENDMDL
MODEL 8
REMARK VINA RESULT:      -7.8      4.519      7.971
REMARK  Name = 
REMARK  5 active torsions:
REMARK  status: ('A' for Active; 'I' for Inactive)
REMARK    1  A    between atoms: C_1  and  O_2
REMARK    2  A    between atoms: O_2  and  C_3
REMARK    3  A    between atoms: C_6  and  C_7
REMARK    4  A    between atoms: N_13  and  C_14
REMARK    5  A    between atoms: C_17  and  C_18
REMARK                            x       y       z     vdW  Elec       q    Type
REMARK                         _______ _______ _______ _____ _____    ______ ____
ROOT
ATOM      1  C   UNL     1       5.703   5.702  17.850  0.00  0.00    +0.000 A 
ATOM      2  N   UNL     1       6.311   6.762  18.361  0.00  0.00    +0.000 NA
ATOM      3  C   UNL     1       7.346   7.159  17.631  0.00  0.00    +0.000 A 
ATOM      4 CL   UNL     1       8.178   8.538  18.210  0.00  0.00    +0.000 Cl
ATOM      5  N   UNL     1       7.812   6.638  16.501  0.00  0.00    +0.000 NA
ATOM      6  C   UNL     1       7.109   5.605  16.069  0.00  0.00    +0.000 A 
ATOM      7  N   UNL     1       7.502   4.989  14.878  0.00  0.00    +0.000 N 
ATOM      8  N   UNL     1       6.061   5.111  16.715  0.00  0.00    +0.000 NA
ATOM      9  H   UNL     1       8.312   5.454  14.491  0.00  0.00    +0.000 HD
ENDROOT
BRANCH   7  10
ATOM     10  C   UNL     1       6.656   4.418  13.908  0.00  0.00    +0.000 A 
ATOM     11  C   UNL     1       5.287   4.209  14.125  0.00  0.00    +0.000 A 
ATOM     12  C   UNL     1       4.469   3.675  13.126  0.00  0.00    +0.000 A 
ATOM     13  C   UNL     1       5.006   3.326  11.886  0.00  0.00    +0.000 A 
ATOM     14  C   UNL     1       4.129   2.800  10.789  0.00  0.00    +0.000 C 
ATOM     15  C   UNL     1       6.378   3.497  11.673  0.00  0.00    +0.000 A 
ATOM     16  C   UNL     1       7.191   4.046  12.671  0.00  0.00    +0.000 A 
ENDBRANCH   7  10
BRANCH   1  20
ATOM     17  C   UNL     1       2.302   4.039  19.919  0.00  0.00    +0.000 A 
ATOM     18  C   UNL     1       3.261   3.198  19.353  0.00  0.00    +0.000 A 
ATOM     19  C   UNL     1       4.375   3.727  18.688  0.00  0.00    +0.000 A 
ATOM     20  C   UNL     1       4.550   5.113  18.557  0.00  0.00    +0.000 A 
ATOM     21  C   UNL     1       3.556   5.941  19.121  0.00  0.00    +0.000 A 
ATOM     22  C   UNL     1       2.445   5.416  19.791  0.00  0.00    +0.000 A 
BRANCH  17  24
ATOM     23  C   UNL     1       1.593   2.654  21.695  0.00  0.00    +0.000 C 
ATOM     24  O   UNL     1       1.257   3.410  20.536  0.00  0.00    +0.000 OA
ENDBRANCH  17  24
ENDBRANCH   1  20
TORSDOF 3
ENDMDL
MODEL 9
REMARK VINA RESULT:      -7.6      2.355      6.673
REMARK  Name = 
REMARK  5 active torsions:
REMARK  status: ('A' for Active; 'I' for Inactive)
REMARK    1  A    between atoms: C_1  and  O_2
REMARK    2  A    between atoms: O_2  and  C_3
REMARK    3  A    between atoms: C_6  and  C_7
REMARK    4  A    between atoms: N_13  and  C_14
REMARK    5  A    between atoms: C_17  and  C_18
REMARK                            x       y       z     vdW  Elec       q    Type
REMARK                         _______ _______ _______ _____ _____    ______ ____
ROOT
ATOM      1  C   UNL     1       2.607   5.597  19.386  0.00  0.00    +0.000 A 
ATOM      2  N   UNL     1       2.339   4.988  20.531  0.00  0.00    +0.000 NA
ATOM      3  C   UNL     1       2.709   3.713  20.531  0.00  0.00    +0.000 A 
ATOM      4 CL   UNL     1       2.418   2.855  21.982  0.00  0.00    +0.000 Cl
ATOM      5  N   UNL     1       3.292   3.020  19.558  0.00  0.00    +0.000 NA
ATOM      6  C   UNL     1       3.539   3.737  18.476  0.00  0.00    +0.000 A 
ATOM      7  N   UNL     1       4.165   3.110  17.395  0.00  0.00    +0.000 N 
ATOM      8  N   UNL     1       3.209   5.016  18.354  0.00  0.00    +0.000 NA
ATOM      9  H   UNL     1       4.356   2.141  17.612  0.00  0.00    +0.000 HD
ENDROOT
BRANCH   7  10
ATOM     10  C   UNL     1       5.094   3.689  16.510  0.00  0.00    +0.000 A 
ATOM     11  C   UNL     1       4.923   3.683  15.119  0.00  0.00    +0.000 A 
ATOM     12  C   UNL     1       5.848   4.301  14.273  0.00  0.00    +0.000 A 
ATOM     13  C   UNL     1       6.974   4.933  14.800  0.00  0.00    +0.000 A 
ATOM     14  C   UNL     1       7.946   5.644  13.907  0.00  0.00    +0.000 C 
ATOM     15  C   UNL     1       7.172   4.913  16.185  0.00  0.00    +0.000 A 
ATOM     16  C   UNL     1       6.236   4.306  17.031  0.00  0.00    +0.000 A 
ENDBRANCH   7  10
BRANCH   1  20
ATOM     17  C   UNL     1       1.517   9.731  18.802  0.00  0.00    +0.000 A 
ATOM     18  C   UNL     1       1.280   9.107  20.027  0.00  0.00    +0.000 A 
ATOM     19  C   UNL     1       1.639   7.768  20.232  0.00  0.00    +0.000 A 
ATOM     20  C   UNL     1       2.231   7.013  19.209  0.00  0.00    +0.000 A 
ATOM     21  C   UNL     1       2.443   7.661  17.973  0.00  0.00    +0.000 A 
ATOM     22  C   UNL     1       2.090   9.000  17.768  0.00  0.00    +0.000 A 
BRANCH  17  24
ATOM     23  C   UNL     1       1.085  11.749  19.949  0.00  0.00    +0.000 C 
ATOM     24  O   UNL     1       1.119  11.036  18.717  0.00  0.00    +0.000 OA
ENDBRANCH  17  24
ENDBRANCH   1  20
TORSDOF 3
ENDMDL
