MODEL 1
REMARK VINA RESULT:      -8.1      0.000      0.000
REMARK  Name = 
REMARK  7 active torsions:
REMARK  status: ('A' for Active; 'I' for Inactive)
REMARK    1  A    between atoms: C_1  and  C_2
REMARK    2  A    between atoms: C_4  and  C_5
REMARK    3  A    between atoms: C_6  and  C_7
REMARK    4  A    between atoms: C_9  and  N_10
REMARK    5  A    between atoms: C_17  and  C_18
REMARK    6  A    between atoms: C_17  and  C_19
REMARK    7  A    between atoms: C_21  and  C_22
REMARK                            x       y       z     vdW  Elec       q    Type
REMARK                         _______ _______ _______ _____ _____    ______ ____
ROOT
ATOM      1  C   UNL     1       3.384   5.971  19.372  0.00  0.00    +0.000 C 
ATOM      2  C   UNL     1       2.601   7.261  19.176  0.00  0.00    +0.000 C 
ATOM      3  C   UNL     1       2.771   8.033  18.079  0.00  0.00    +0.000 C 
ATOM      4  O   UNL     1       3.657   7.682  17.076  0.00  0.00    +0.000 OA
ATOM      5  C   UNL     1       4.460   6.562  17.199  0.00  0.00    +0.000 C 
ATOM      6  C   UNL     1       4.352   5.716  18.238  0.00  0.00    +0.000 C 
ATOM      7  C   UNL     1       5.331   4.596  18.346  0.00  0.00    +0.000 C 
ATOM      8  O   UNL     1       5.284   3.800  19.279  0.00  0.00    +0.000 OA
ATOM      9  C   UNL     1       6.475   4.537  17.352  0.00  0.00    +0.000 C 
ATOM     10  C   UNL     1       6.090   5.044  15.956  0.00  0.00    +0.000 C 
ATOM     11  C   UNL     1       7.357   5.126  15.085  0.00  0.00    +0.000 C 
ATOM     12  C   UNL     1       5.100   4.077  15.277  0.00  0.00    +0.000 C 
ATOM     13  C   UNL     1       5.469   6.445  16.088  0.00  0.00    +0.000 C 
ENDROOT
BRANCH   1  17
ATOM     14  C   UNL     1       1.312   2.308  22.369  0.00  0.00    +0.000 C 
ATOM     15  C   UNL     1       1.581   3.151  21.169  0.00  0.00    +0.000 A 
ATOM     16  C   UNL     1       2.398   4.254  21.057  0.00  0.00    +0.000 A 
ATOM     17  C   UNL     1       2.487   4.778  19.710  0.00  0.00    +0.000 A 
ATOM     18  C   UNL     1       1.671   4.042  18.860  0.00  0.00    +0.000 A 
ATOM     19  C   UNL     1       1.420   4.182  17.396  0.00  0.00    +0.000 C 
ATOM     20  S   UNL     1       0.848   2.776  19.681  0.00  0.00    +0.000 S 
ENDBRANCH   1  17
BRANCH   3  21
ATOM     21  N   UNL     1       2.142   9.234  17.821  0.00  0.00    +0.000 N 
ATOM     22  H   UNL     1       1.158   9.277  18.063  0.00  0.00    +0.000 HD
ATOM     23  H   UNL     1       2.675  10.026  18.172  0.00  0.00    +0.000 HD
ENDBRANCH   3  21
BRANCH   2  24
ATOM     24  C   UNL     1       1.722   7.677  20.216  0.00  0.00    +0.000 C 
ATOM     25  N   UNL     1       1.046   8.022  21.095  0.00  0.00    +0.000 NA
ENDBRANCH   2  24
TORSDOF 3
ENDMDL
MODEL 2
REMARK VINA RESULT:      -5.9      0.735      1.620
REMARK  Name = 
REMARK  7 active torsions:
REMARK  status: ('A' for Active; 'I' for Inactive)
REMARK    1  A    between atoms: C_1  and  C_2
REMARK    2  A    between atoms: C_4  and  C_5
REMARK    3  A    between atoms: C_6  and  C_7
REMARK    4  A    between atoms: C_9  and  N_10
REMARK    5  A    between atoms: C_17  and  C_18
REMARK    6  A    between atoms: C_17  and  C_19
REMARK    7  A    between atoms: C_21  and  C_22
REMARK                            x       y       z     vdW  Elec       q    Type
REMARK                         _______ _______ _______ _____ _____    ______ ____
ROOT
ATOM      1  C   UNL     1       3.479   5.843  19.269  0.00  0.00    +0.000 C 
ATOM      2  C   UNL     1       2.658   7.113  19.103  0.00  0.00    +0.000 C 
ATOM      3  C   UNL     1       2.792   7.906  18.016  0.00  0.00    +0.000 C 
ATOM      4  O   UNL     1       3.676   7.597  16.997  0.00  0.00    +0.000 OA
ATOM      5  C   UNL     1       4.511   6.498  17.093  0.00  0.00    +0.000 C 
ATOM      6  C   UNL     1       4.440   5.633  18.119  0.00  0.00    +0.000 C 
ATOM      7  C   UNL     1       5.452   4.540  18.198  0.00  0.00    +0.000 C 
ATOM      8  O   UNL     1       5.439   3.729  19.118  0.00  0.00    +0.000 OA
ATOM      9  C   UNL     1       6.584   4.529  17.190  0.00  0.00    +0.000 C 
ATOM     10  C   UNL     1       6.168   5.047  15.807  0.00  0.00    +0.000 C 
ATOM     11  C   UNL     1       7.421   5.178  14.922  0.00  0.00    +0.000 C 
ATOM     12  C   UNL     1       5.198   4.063  15.124  0.00  0.00    +0.000 C 
ATOM     13  C   UNL     1       5.509   6.427  15.968  0.00  0.00    +0.000 C 
ENDROOT
BRANCH   1  17
ATOM     14  C   UNL     1       0.393   1.820  18.274  0.00  0.00    +0.000 C 
ATOM     15  C   UNL     1       1.230   2.790  19.038  0.00  0.00    +0.000 A 
ATOM     16  C   UNL     1       2.006   3.823  18.559  0.00  0.00    +0.000 A 
ATOM     17  C   UNL     1       2.621   4.620  19.599  0.00  0.00    +0.000 A 
ATOM     18  C   UNL     1       2.299   4.102  20.847  0.00  0.00    +0.000 A 
ATOM     19  C   UNL     1       2.679   4.560  22.214  0.00  0.00    +0.000 C 
ATOM     20  S   UNL     1       1.293   2.713  20.736  0.00  0.00    +0.000 S 
ENDBRANCH   1  17
BRANCH   3  21
ATOM     21  N   UNL     1       2.126   9.093  17.785  0.00  0.00    +0.000 N 
ATOM     22  H   UNL     1       1.913   9.298  16.816  0.00  0.00    +0.000 HD
ATOM     23  H   UNL     1       1.326   9.206  18.403  0.00  0.00    +0.000 HD
ENDBRANCH   3  21
BRANCH   2  24
ATOM     24  C   UNL     1       1.780   7.488  20.159  0.00  0.00    +0.000 C 
ATOM     25  N   UNL     1       1.102   7.824  21.041  0.00  0.00    +0.000 NA
ENDBRANCH   2  24
TORSDOF 3
ENDMDL
MODEL 3
REMARK VINA RESULT:      -5.6      6.787     10.300
REMARK  Name = 
REMARK  7 active torsions:
REMARK  status: ('A' for Active; 'I' for Inactive)
REMARK    1  A    between atoms: C_1  and  C_2
REMARK    2  A    between atoms: C_4  and  C_5
REMARK    3  A    between atoms: C_6  and  C_7
REMARK    4  A    between atoms: C_9  and  N_10
REMARK    5  A    between atoms: C_17  and  C_18
REMARK    6  A    between atoms: C_17  and  C_19
REMARK    7  A    between atoms: C_21  and  C_22
REMARK                            x       y       z     vdW  Elec       q    Type
REMARK                         _______ _______ _______ _____ _____    ______ ____
ROOT
ATOM      1  C   UNL     1      -1.456  11.436  19.641  0.00  0.00    +0.000 C 
ATOM      2  C   UNL     1      -2.517  11.440  18.550  0.00  0.00    +0.000 C 
ATOM      3  C   UNL     1      -3.706  12.061  18.721  0.00  0.00    +0.000 C 
ATOM      4  O   UNL     1      -4.012  12.732  19.892  0.00  0.00    +0.000 OA
ATOM      5  C   UNL     1      -3.136  12.725  20.963  0.00  0.00    +0.000 C 
ATOM      6  C   UNL     1      -1.919  12.158  20.887  0.00  0.00    +0.000 C 
ATOM      7  C   UNL     1      -1.086  12.100  22.122  0.00  0.00    +0.000 C 
ATOM      8  O   UNL     1       0.029  11.586  22.112  0.00  0.00    +0.000 OA
ATOM      9  C   UNL     1      -1.695  12.569  23.429  0.00  0.00    +0.000 C 
ATOM     10  C   UNL     1      -2.671  13.740  23.256  0.00  0.00    +0.000 C 
ATOM     11  C   UNL     1      -3.375  14.009  24.598  0.00  0.00    +0.000 C 
ATOM     12  C   UNL     1      -1.919  15.020  22.841  0.00  0.00    +0.000 C 
ATOM     13  C   UNL     1      -3.719  13.364  22.195  0.00  0.00    +0.000 C 
ENDROOT
BRANCH   1  17
ATOM     14  C   UNL     1       2.201  14.794  18.211  0.00  0.00    +0.000 C 
ATOM     15  C   UNL     1       1.532  13.498  18.521  0.00  0.00    +0.000 A 
ATOM     16  C   UNL     1       0.275  13.280  19.042  0.00  0.00    +0.000 A 
ATOM     17  C   UNL     1      -0.082  11.881  19.134  0.00  0.00    +0.000 A 
ATOM     18  C   UNL     1       0.976  11.091  18.702  0.00  0.00    +0.000 A 
ATOM     19  C   UNL     1       1.102   9.608  18.602  0.00  0.00    +0.000 C 
ATOM     20  S   UNL     1       2.330  12.029  18.210  0.00  0.00    +0.000 S 
ENDBRANCH   1  17
BRANCH   3  21
ATOM     21  N   UNL     1      -4.746  12.094  17.815  0.00  0.00    +0.000 N 
ATOM     22  H   UNL     1      -5.215  11.211  17.650  0.00  0.00    +0.000 HD
ATOM     23  H   UNL     1      -5.389  12.860  18.001  0.00  0.00    +0.000 HD
ENDBRANCH   3  21
BRANCH   2  24
ATOM     24  C   UNL     1      -2.254  10.712  17.355  0.00  0.00    +0.000 C 
ATOM     25  N   UNL     1      -2.079  10.087  16.392  0.00  0.00    +0.000 NA
ENDBRANCH   2  24
TORSDOF 3
ENDMDL
MODEL 4
REMARK VINA RESULT:      -5.5      6.378      8.616
REMARK  Name = 
REMARK  7 active torsions:
REMARK  status: ('A' for Active; 'I' for Inactive)
REMARK    1  A    between atoms: C_1  and  C_2
REMARK    2  A    between atoms: C_4  and  C_5
REMARK    3  A    between atoms: C_6  and  C_7
REMARK    4  A    between atoms: C_9  and  N_10
REMARK    5  A    between atoms: C_17  and  C_18
REMARK    6  A    between atoms: C_17  and  C_19
REMARK    7  A    between atoms: C_21  and  C_22
REMARK                            x       y       z     vdW  Elec       q    Type
REMARK                         _______ _______ _______ _____ _____    ______ ____
ROOT
ATOM      1  C   UNL     1      -0.087  12.756  21.822  0.00  0.00    +0.000 C 
ATOM      2  C   UNL     1       0.446  14.156  21.552  0.00  0.00    +0.000 C 
ATOM      3  C   UNL     1       1.186  14.431  20.454  0.00  0.00    +0.000 C 
ATOM      4  O   UNL     1       1.488  13.457  19.519  0.00  0.00    +0.000 OA
ATOM      5  C   UNL     1       1.102  12.143  19.715  0.00  0.00    +0.000 C 
ATOM      6  C   UNL     1       0.343  11.768  20.760  0.00  0.00    +0.000 C 
ATOM      7  C   UNL     1       0.069  10.315  20.953  0.00  0.00    +0.000 C 
ATOM      8  O   UNL     1      -0.611   9.918  21.895  0.00  0.00    +0.000 OA
ATOM      9  C   UNL     1       0.758   9.321  20.039  0.00  0.00    +0.000 C 
ATOM     10  C   UNL     1       0.955   9.847  18.611  0.00  0.00    +0.000 C 
ATOM     11  C   UNL     1       1.827   8.852  17.825  0.00  0.00    +0.000 C 
ATOM     12  C   UNL     1      -0.399   9.980  17.885  0.00  0.00    +0.000 C 
ATOM     13  C   UNL     1       1.666  11.210  18.676  0.00  0.00    +0.000 C 
ENDROOT
BRANCH   1  17
ATOM     14  C   UNL     1      -4.322  12.441  24.764  0.00  0.00    +0.000 C 
ATOM     15  C   UNL     1      -3.463  12.605  23.556  0.00  0.00    +0.000 A 
ATOM     16  C   UNL     1      -2.089  12.656  23.477  0.00  0.00    +0.000 A 
ATOM     17  C   UNL     1      -1.588  12.740  22.121  0.00  0.00    +0.000 A 
ATOM     18  C   UNL     1      -2.647  12.791  21.225  0.00  0.00    +0.000 A 
ATOM     19  C   UNL     1      -2.655  12.878  19.736  0.00  0.00    +0.000 C 
ATOM     20  S   UNL     1      -4.173  12.736  22.016  0.00  0.00    +0.000 S 
ENDBRANCH   1  17
BRANCH   3  21
ATOM     21  N   UNL     1       1.746  15.651  20.134  0.00  0.00    +0.000 N 
ATOM     22  H   UNL     1       1.570  16.403  20.790  0.00  0.00    +0.000 HD
ATOM     23  H   UNL     1       2.727  15.565  19.877  0.00  0.00    +0.000 HD
ENDBRANCH   3  21
BRANCH   2  24
ATOM     24  C   UNL     1       0.200  15.167  22.523  0.00  0.00    +0.000 C 
ATOM     25  N   UNL     1       0.048  15.986  23.332  0.00  0.00    +0.000 NA
ENDBRANCH   2  24
TORSDOF 3
ENDMDL
MODEL 5
REMARK VINA RESULT:      -5.4     10.108     12.338
REMARK  Name = 
REMARK  7 active torsions:
REMARK  status: ('A' for Active; 'I' for Inactive)
REMARK    1  A    between atoms: C_1  and  C_2
REMARK    2  A    between atoms: C_4  and  C_5
REMARK    3  A    between atoms: C_6  and  C_7
REMARK    4  A    between atoms: C_9  and  N_10
REMARK    5  A    between atoms: C_17  and  C_18
REMARK    6  A    between atoms: C_17  and  C_19
REMARK    7  A    between atoms: C_21  and  C_22
REMARK                            x       y       z     vdW  Elec       q    Type
REMARK                         _______ _______ _______ _____ _____    ______ ____
ROOT
ATOM      1  C   UNL     1      10.403  13.577  20.584  0.00  0.00    +0.000 C 
ATOM      2  C   UNL     1      10.314  12.214  19.914  0.00  0.00    +0.000 C 
ATOM      3  C   UNL     1       9.511  11.239  20.397  0.00  0.00    +0.000 C 
ATOM      4  O   UNL     1       8.724  11.436  21.517  0.00  0.00    +0.000 OA
ATOM      5  C   UNL     1       8.790  12.620  22.230  0.00  0.00    +0.000 C 
ATOM      6  C   UNL     1       9.537  13.660  21.822  0.00  0.00    +0.000 C 
ATOM      7  C   UNL     1       9.635  14.855  22.709  0.00  0.00    +0.000 C 
ATOM      8  O   UNL     1      10.311  15.828  22.389  0.00  0.00    +0.000 OA
ATOM      9  C   UNL     1       8.993  14.792  24.080  0.00  0.00    +0.000 C 
ATOM     10  C   UNL     1       7.703  13.963  24.107  0.00  0.00    +0.000 C 
ATOM     11  C   UNL     1       7.240  13.800  25.566  0.00  0.00    +0.000 C 
ATOM     12  C   UNL     1       6.581  14.671  23.322  0.00  0.00    +0.000 C 
ATOM     13  C   UNL     1       7.988  12.576  23.504  0.00  0.00    +0.000 C 
ENDROOT
BRANCH   1  17
ATOM     14  C   UNL     1      11.808  17.624  17.695  0.00  0.00    +0.000 C 
ATOM     15  C   UNL     1      10.953  16.562  18.300  0.00  0.00    +0.000 A 
ATOM     16  C   UNL     1      11.320  15.535  19.140  0.00  0.00    +0.000 A 
ATOM     17  C   UNL     1      10.206  14.735  19.603  0.00  0.00    +0.000 A 
ATOM     18  C   UNL     1       9.025  15.193  19.034  0.00  0.00    +0.000 A 
ATOM     19  C   UNL     1       7.622  14.712  19.194  0.00  0.00    +0.000 C 
ATOM     20  S   UNL     1       9.281  16.534  17.990  0.00  0.00    +0.000 S 
ENDBRANCH   1  17
BRANCH   3  21
ATOM     21  N   UNL     1       9.384   9.962  19.889  0.00  0.00    +0.000 N 
ATOM     22  H   UNL     1       8.438   9.603  19.828  0.00  0.00    +0.000 HD
ATOM     23  H   UNL     1       9.914   9.840  19.029  0.00  0.00    +0.000 HD
ENDBRANCH   3  21
BRANCH   2  24
ATOM     24  C   UNL     1      11.153  11.962  18.791  0.00  0.00    +0.000 C 
ATOM     25  N   UNL     1      11.797  11.768  17.844  0.00  0.00    +0.000 NA
ENDBRANCH   2  24
TORSDOF 3
ENDMDL
MODEL 6
REMARK VINA RESULT:      -5.4      9.540     11.748
REMARK  Name = 
REMARK  7 active torsions:
REMARK  status: ('A' for Active; 'I' for Inactive)
REMARK    1  A    between atoms: C_1  and  C_2
REMARK    2  A    between atoms: C_4  and  C_5
REMARK    3  A    between atoms: C_6  and  C_7
REMARK    4  A    between atoms: C_9  and  N_10
REMARK    5  A    between atoms: C_17  and  C_18
REMARK    6  A    between atoms: C_17  and  C_19
REMARK    7  A    between atoms: C_21  and  C_22
REMARK                            x       y       z     vdW  Elec       q    Type
REMARK                         _______ _______ _______ _____ _____    ______ ____
ROOT
ATOM      1  C   UNL     1       9.547  13.694  20.736  0.00  0.00    +0.000 C 
ATOM      2  C   UNL     1       9.715  12.448  19.877  0.00  0.00    +0.000 C 
ATOM      3  C   UNL     1       9.327  11.229  20.316  0.00  0.00    +0.000 C 
ATOM      4  O   UNL     1       8.751  11.055  21.561  0.00  0.00    +0.000 OA
ATOM      5  C   UNL     1       8.620  12.119  22.436  0.00  0.00    +0.000 C 
ATOM      6  C   UNL     1       8.951  13.375  22.090  0.00  0.00    +0.000 C 
ATOM      7  C   UNL     1       8.881  14.440  23.131  0.00  0.00    +0.000 C 
ATOM      8  O   UNL     1       9.181  15.602  22.871  0.00  0.00    +0.000 OA
ATOM      9  C   UNL     1       8.561  14.038  24.557  0.00  0.00    +0.000 C 
ATOM     10  C   UNL     1       7.586  12.857  24.649  0.00  0.00    +0.000 C 
ATOM     11  C   UNL     1       7.481  12.405  26.117  0.00  0.00    +0.000 C 
ATOM     12  C   UNL     1       6.181  13.270  24.170  0.00  0.00    +0.000 C 
ATOM     13  C   UNL     1       8.126  11.697  23.794  0.00  0.00    +0.000 C 
ENDROOT
BRANCH   1  17
ATOM     14  C   UNL     1       5.557  16.263  18.693  0.00  0.00    +0.000 C 
ATOM     15  C   UNL     1       6.952  15.943  19.112  0.00  0.00    +0.000 A 
ATOM     16  C   UNL     1       7.407  14.870  19.846  0.00  0.00    +0.000 A 
ATOM     17  C   UNL     1       8.846  14.835  19.996  0.00  0.00    +0.000 A 
ATOM     18  C   UNL     1       9.414  15.943  19.382  0.00  0.00    +0.000 A 
ATOM     19  C   UNL     1      10.842  16.357  19.257  0.00  0.00    +0.000 C 
ATOM     20  S   UNL     1       8.235  16.965  18.661  0.00  0.00    +0.000 S 
ENDBRANCH   1  17
BRANCH   3  21
ATOM     21  N   UNL     1       9.467  10.037  19.635  0.00  0.00    +0.000 N 
ATOM     22  H   UNL     1       9.111   9.214  20.109  0.00  0.00    +0.000 HD
ATOM     23  H   UNL     1       9.153  10.110  18.670  0.00  0.00    +0.000 HD
ENDBRANCH   3  21
BRANCH   2  24
ATOM     24  C   UNL     1      10.355  12.586  18.614  0.00  0.00    +0.000 C 
ATOM     25  N   UNL     1      10.831  12.704  17.561  0.00  0.00    +0.000 NA
ENDBRANCH   2  24
TORSDOF 3
ENDMDL
MODEL 7
REMARK VINA RESULT:      -5.4      7.051      9.854
REMARK  Name = 
REMARK  7 active torsions:
REMARK  status: ('A' for Active; 'I' for Inactive)
REMARK    1  A    between atoms: C_1  and  C_2
REMARK    2  A    between atoms: C_4  and  C_5
REMARK    3  A    between atoms: C_6  and  C_7
REMARK    4  A    between atoms: C_9  and  N_10
REMARK    5  A    between atoms: C_17  and  C_18
REMARK    6  A    between atoms: C_17  and  C_19
REMARK    7  A    between atoms: C_21  and  C_22
REMARK                            x       y       z     vdW  Elec       q    Type
REMARK                         _______ _______ _______ _____ _____    ______ ____
ROOT
ATOM      1  C   UNL     1      -0.006  12.718  20.677  0.00  0.00    +0.000 C 
ATOM      2  C   UNL     1      -0.635  12.714  22.063  0.00  0.00    +0.000 C 
ATOM      3  C   UNL     1      -0.887  13.864  22.729  0.00  0.00    +0.000 C 
ATOM      4  O   UNL     1      -0.594  15.100  22.179  0.00  0.00    +0.000 OA
ATOM      5  C   UNL     1       0.040  15.198  20.953  0.00  0.00    +0.000 C 
ATOM      6  C   UNL     1       0.311  14.118  20.200  0.00  0.00    +0.000 C 
ATOM      7  C   UNL     1       1.094  14.308  18.945  0.00  0.00    +0.000 C 
ATOM      8  O   UNL     1       1.378  13.355  18.225  0.00  0.00    +0.000 OA
ATOM      9  C   UNL     1       1.653  15.684  18.641  0.00  0.00    +0.000 C 
ATOM     10  C   UNL     1       0.745  16.824  19.119  0.00  0.00    +0.000 C 
ATOM     11  C   UNL     1       1.484  18.163  18.942  0.00  0.00    +0.000 C 
ATOM     12  C   UNL     1      -0.551  16.876  18.286  0.00  0.00    +0.000 C 
ATOM     13  C   UNL     1       0.419  16.613  20.607  0.00  0.00    +0.000 C 
ENDROOT
BRANCH   1  17
ATOM     14  C   UNL     1      -4.005  11.454  17.660  0.00  0.00    +0.000 C 
ATOM     15  C   UNL     1      -2.662  11.395  18.305  0.00  0.00    +0.000 A 
ATOM     16  C   UNL     1      -2.080  12.297  19.167  0.00  0.00    +0.000 A 
ATOM     17  C   UNL     1      -0.789  11.875  19.668  0.00  0.00    +0.000 A 
ATOM     18  C   UNL     1      -0.437  10.656  19.103  0.00  0.00    +0.000 A 
ATOM     19  C   UNL     1       0.779   9.813  19.296  0.00  0.00    +0.000 C 
ATOM     20  S   UNL     1      -1.636  10.068  18.020  0.00  0.00    +0.000 S 
ENDBRANCH   1  17
BRANCH   3  21
ATOM     21  N   UNL     1      -1.417  13.971  23.998  0.00  0.00    +0.000 N 
ATOM     22  H   UNL     1      -0.844  14.460  24.676  0.00  0.00    +0.000 HD
ATOM     23  H   UNL     1      -2.382  14.295  23.982  0.00  0.00    +0.000 HD
ENDBRANCH   3  21
BRANCH   2  24
ATOM     24  C   UNL     1      -0.896  11.458  22.678  0.00  0.00    +0.000 C 
ATOM     25  N   UNL     1      -1.060  10.431  23.195  0.00  0.00    +0.000 NA
ENDBRANCH   2  24
TORSDOF 3
ENDMDL
MODEL 8
REMARK VINA RESULT:      -5.4      7.923     10.357
REMARK  Name = 
REMARK  7 active torsions:
REMARK  status: ('A' for Active; 'I' for Inactive)
REMARK    1  A    between atoms: C_1  and  C_2
REMARK    2  A    between atoms: C_4  and  C_5
REMARK    3  A    between atoms: C_6  and  C_7
REMARK    4  A    between atoms: C_9  and  N_10
REMARK    5  A    between atoms: C_17  and  C_18
REMARK    6  A    between atoms: C_17  and  C_19
REMARK    7  A    between atoms: C_21  and  C_22
REMARK                            x       y       z     vdW  Elec       q    Type
REMARK                         _______ _______ _______ _____ _____    ______ ____
ROOT
ATOM      1  C   UNL     1      -3.755  13.184  19.716  0.00  0.00    +0.000 C 
ATOM      2  C   UNL     1      -5.071  12.663  19.156  0.00  0.00    +0.000 C 
ATOM      3  C   UNL     1      -5.136  11.501  18.469  0.00  0.00    +0.000 C 
ATOM      4  O   UNL     1      -4.013  10.723  18.249  0.00  0.00    +0.000 OA
ATOM      5  C   UNL     1      -2.764  11.150  18.663  0.00  0.00    +0.000 C 
ATOM      6  C   UNL     1      -2.593  12.277  19.375  0.00  0.00    +0.000 C 
ATOM      7  C   UNL     1      -1.202  12.717  19.684  0.00  0.00    +0.000 C 
ATOM      8  O   UNL     1      -0.988  13.743  20.323  0.00  0.00    +0.000 OA
ATOM      9  C   UNL     1      -0.047  11.945  19.077  0.00  0.00    +0.000 C 
ATOM     10  C   UNL     1      -0.328  10.443  18.941  0.00  0.00    +0.000 C 
ATOM     11  C   UNL     1       0.814   9.788  18.144  0.00  0.00    +0.000 C 
ATOM     12  C   UNL     1      -0.395   9.772  20.328  0.00  0.00    +0.000 C 
ATOM     13  C   UNL     1      -1.655  10.250  18.187  0.00  0.00    +0.000 C 
ENDROOT
BRANCH   1  17
ATOM     14  C   UNL     1      -4.357  12.338  24.778  0.00  0.00    +0.000 C 
ATOM     15  C   UNL     1      -4.113  13.061  23.496  0.00  0.00    +0.000 A 
ATOM     16  C   UNL     1      -4.000  12.545  22.224  0.00  0.00    +0.000 A 
ATOM     17  C   UNL     1      -3.846  13.555  21.198  0.00  0.00    +0.000 A 
ATOM     18  C   UNL     1      -3.807  14.817  21.777  0.00  0.00    +0.000 A 
ATOM     19  C   UNL     1      -3.667  16.165  21.154  0.00  0.00    +0.000 C 
ATOM     20  S   UNL     1      -3.955  14.755  23.488  0.00  0.00    +0.000 S 
ENDBRANCH   1  17
BRANCH   3  21
ATOM     21  N   UNL     1      -6.266  10.959  17.890  0.00  0.00    +0.000 N 
ATOM     22  H   UNL     1      -6.151  10.044  17.469  0.00  0.00    +0.000 HD
ATOM     23  H   UNL     1      -7.074  11.017  18.505  0.00  0.00    +0.000 HD
ENDBRANCH   3  21
BRANCH   2  24
ATOM     24  C   UNL     1      -6.234  13.467  19.318  0.00  0.00    +0.000 C 
ATOM     25  N   UNL     1      -7.154  14.158  19.475  0.00  0.00    +0.000 NA
ENDBRANCH   2  24
TORSDOF 3
ENDMDL
MODEL 9
REMARK VINA RESULT:      -5.3      9.826     11.987
REMARK  Name = 
REMARK  7 active torsions:
REMARK  status: ('A' for Active; 'I' for Inactive)
REMARK    1  A    between atoms: C_1  and  C_2
REMARK    2  A    between atoms: C_4  and  C_5
REMARK    3  A    between atoms: C_6  and  C_7
REMARK    4  A    between atoms: C_9  and  N_10
REMARK    5  A    between atoms: C_17  and  C_18
REMARK    6  A    between atoms: C_17  and  C_19
REMARK    7  A    between atoms: C_21  and  C_22
REMARK                            x       y       z     vdW  Elec       q    Type
REMARK                         _______ _______ _______ _____ _____    ______ ____
ROOT
ATOM      1  C   UNL     1       9.314  14.577  18.111  0.00  0.00    +0.000 C 
ATOM      2  C   UNL     1      10.722  15.108  17.878  0.00  0.00    +0.000 C 
ATOM      3  C   UNL     1      11.099  16.330  18.319  0.00  0.00    +0.000 C 
ATOM      4  O   UNL     1      10.228  17.152  19.012  0.00  0.00    +0.000 OA
ATOM      5  C   UNL     1       8.911  16.781  19.212  0.00  0.00    +0.000 C 
ATOM      6  C   UNL     1       8.441  15.579  18.835  0.00  0.00    +0.000 C 
ATOM      7  C   UNL     1       6.983  15.306  18.990  0.00  0.00    +0.000 C 
ATOM      8  O   UNL     1       6.500  14.229  18.653  0.00  0.00    +0.000 OA
ATOM      9  C   UNL     1       6.080  16.435  19.446  0.00  0.00    +0.000 C 
ATOM     10  C   UNL     1       6.758  17.388  20.439  0.00  0.00    +0.000 C 
ATOM     11  C   UNL     1       5.835  18.595  20.686  0.00  0.00    +0.000 C 
ATOM     12  C   UNL     1       7.005  16.686  21.789  0.00  0.00    +0.000 C 
ATOM     13  C   UNL     1       8.087  17.876  19.835  0.00  0.00    +0.000 C 
ENDROOT
BRANCH   1  17
ATOM     14  C   UNL     1       8.567   9.466  18.229  0.00  0.00    +0.000 C 
ATOM     15  C   UNL     1       8.948  10.838  18.673  0.00  0.00    +0.000 A 
ATOM     16  C   UNL     1       8.952  12.008  17.946  0.00  0.00    +0.000 A 
ATOM     17  C   UNL     1       9.303  13.176  18.727  0.00  0.00    +0.000 A 
ATOM     18  C   UNL     1       9.595  12.804  20.032  0.00  0.00    +0.000 A 
ATOM     19  C   UNL     1      10.002  13.628  21.207  0.00  0.00    +0.000 C 
ATOM     20  S   UNL     1       9.442  11.110  20.278  0.00  0.00    +0.000 S 
ENDBRANCH   1  17
BRANCH   3  21
ATOM     21  N   UNL     1      12.333  16.918  18.131  0.00  0.00    +0.000 N 
ATOM     22  H   UNL     1      12.689  16.902  17.182  0.00  0.00    +0.000 HD
ATOM     23  H   UNL     1      12.386  17.839  18.562  0.00  0.00    +0.000 HD
ENDBRANCH   3  21
BRANCH   2  24
ATOM     24  C   UNL     1      11.624  14.309  17.121  0.00  0.00    +0.000 C 
ATOM     25  N   UNL     1      12.319  13.634  16.481  0.00  0.00    +0.000 NA
ENDBRANCH   2  24
TORSDOF 3
ENDMDL
