MODEL 1
REMARK VINA RESULT:      -8.1      0.000      0.000
REMARK  Name = 
REMARK  6 active torsions:
REMARK  status: ('A' for Active; 'I' for Inactive)
REMARK    1  A    between atoms: C_1  and  N_2
REMARK    2  A    between atoms: N_2  and  C_3
REMARK    3  A    between atoms: N_2  and  C_4
REMARK    4  A    between atoms: C_7  and  C_8
REMARK    5  A    between atoms: C_9  and  C_10
REMARK    6  A    between atoms: C_11  and  C_12
REMARK                            x       y       z     vdW  Elec       q    Type
REMARK                         _______ _______ _______ _____ _____    ______ ____
ROOT
ATOM      1  C   UNL     1       5.337   5.946  18.010  0.00  0.00    +0.000 C 
ATOM      2  C   UNL     1       5.347   4.701  18.589  0.00  0.00    +0.000 C 
ENDROOT
BRANCH   2   3
ATOM      3  C   UNL     1       4.446   3.433  18.660  0.00  0.00    +0.000 A 
ATOM      4  C   UNL     1       4.038   3.075  17.399  0.00  0.00    +0.000 A 
ATOM      5  C   UNL     1       2.759   3.464  17.060  0.00  0.00    +0.000 A 
ATOM      6  N   UNL     1       1.852   3.968  17.928  0.00  0.00    +0.000 NA
ATOM      7  C   UNL     1       2.115   3.796  19.224  0.00  0.00    +0.000 A 
ATOM      8  C   UNL     1       1.030   3.850  20.103  0.00  0.00    +0.000 A 
ATOM      9  C   UNL     1       1.063   3.203  21.336  0.00  0.00    +0.000 A 
ATOM     10  C   UNL     1       2.213   2.511  21.683  0.00  0.00    +0.000 A 
ATOM     11  C   UNL     1       3.374   2.626  20.880  0.00  0.00    +0.000 A 
ATOM     12  C   UNL     1       3.385   3.361  19.644  0.00  0.00    +0.000 A 
ENDBRANCH   2   3
BRANCH   1  14
ATOM     13  C   UNL     1       3.400   7.500  17.223  0.00  0.00    +0.000 C 
ATOM     14  C   UNL     1       4.486   6.691  17.067  0.00  0.00    +0.000 C 
BRANCH  13  18
ATOM     15  C   UNL     1       0.787   9.218  20.415  0.00  0.00    +0.000 A 
ATOM     16  C   UNL     1       1.488   8.012  20.569  0.00  0.00    +0.000 A 
ATOM     17  C   UNL     1       2.324   7.447  19.577  0.00  0.00    +0.000 A 
ATOM     18  C   UNL     1       2.528   8.046  18.328  0.00  0.00    +0.000 A 
ATOM     19  C   UNL     1       1.856   9.281  18.178  0.00  0.00    +0.000 A 
ATOM     20  C   UNL     1       1.014   9.848  19.186  0.00  0.00    +0.000 A 
BRANCH  15  22
ATOM     21  C   UNL     1      -0.721  11.030  21.209  0.00  0.00    +0.000 C 
ATOM     22  N   UNL     1      -0.035   9.752  21.411  0.00  0.00    +0.000 N 
ATOM     23  C   UNL     1       0.052   9.291  22.796  0.00  0.00    +0.000 C 
ENDBRANCH  15  22
ENDBRANCH  13  18
ENDBRANCH   1  14
TORSDOF 4
ENDMDL
MODEL 2
REMARK VINA RESULT:      -8.0      0.187      1.223
REMARK  Name = 
REMARK  6 active torsions:
REMARK  status: ('A' for Active; 'I' for Inactive)
REMARK    1  A    between atoms: C_1  and  N_2
REMARK    2  A    between atoms: N_2  and  C_3
REMARK    3  A    between atoms: N_2  and  C_4
REMARK    4  A    between atoms: C_7  and  C_8
REMARK    5  A    between atoms: C_9  and  C_10
REMARK    6  A    between atoms: C_11  and  C_12
REMARK                            x       y       z     vdW  Elec       q    Type
REMARK                         _______ _______ _______ _____ _____    ______ ____
ROOT
ATOM      1  C   UNL     1       5.347   5.971  17.980  0.00  0.00    +0.000 C 
ATOM      2  C   UNL     1       5.345   4.737  18.585  0.00  0.00    +0.000 C 
ENDROOT
BRANCH   2   3
ATOM      3  C   UNL     1       4.451   3.464  18.649  0.00  0.00    +0.000 A 
ATOM      4  C   UNL     1       4.039   3.115  17.387  0.00  0.00    +0.000 A 
ATOM      5  C   UNL     1       2.757   3.500  17.058  0.00  0.00    +0.000 A 
ATOM      6  N   UNL     1       1.851   3.990  17.935  0.00  0.00    +0.000 NA
ATOM      7  C   UNL     1       2.121   3.808  19.228  0.00  0.00    +0.000 A 
ATOM      8  C   UNL     1       1.041   3.848  20.113  0.00  0.00    +0.000 A 
ATOM      9  C   UNL     1       1.084   3.189  21.340  0.00  0.00    +0.000 A 
ATOM     10  C   UNL     1       2.240   2.501  21.675  0.00  0.00    +0.000 A 
ATOM     11  C   UNL     1       3.396   2.630  20.867  0.00  0.00    +0.000 A 
ATOM     12  C   UNL     1       3.396   3.376  19.638  0.00  0.00    +0.000 A 
ENDBRANCH   2   3
BRANCH   1  14
ATOM     13  C   UNL     1       3.452   7.521  17.091  0.00  0.00    +0.000 C 
ATOM     14  C   UNL     1       4.527   6.689  16.990  0.00  0.00    +0.000 C 
BRANCH  13  18
ATOM     15  C   UNL     1       0.876   9.221  20.323  0.00  0.00    +0.000 A 
ATOM     16  C   UNL     1       1.042   9.840  19.074  0.00  0.00    +0.000 A 
ATOM     17  C   UNL     1       1.849   9.323  18.033  0.00  0.00    +0.000 A 
ATOM     18  C   UNL     1       2.570   8.129  18.155  0.00  0.00    +0.000 A 
ATOM     19  C   UNL     1       2.378   7.479  19.396  0.00  0.00    +0.000 A 
ATOM     20  C   UNL     1       1.560   8.006  20.444  0.00  0.00    +0.000 A 
BRANCH  15  22
ATOM     21  C   UNL     1      -0.462   8.900  22.395  0.00  0.00    +0.000 C 
ATOM     22  N   UNL     1       0.076   9.756  21.335  0.00  0.00    +0.000 N 
ATOM     23  C   UNL     1      -0.570  11.060  21.185  0.00  0.00    +0.000 C 
ENDBRANCH  15  22
ENDBRANCH  13  18
ENDBRANCH   1  14
TORSDOF 4
ENDMDL
MODEL 3
REMARK VINA RESULT:      -7.9      3.427      6.922
REMARK  Name = 
REMARK  6 active torsions:
REMARK  status: ('A' for Active; 'I' for Inactive)
REMARK    1  A    between atoms: C_1  and  N_2
REMARK    2  A    between atoms: N_2  and  C_3
REMARK    3  A    between atoms: N_2  and  C_4
REMARK    4  A    between atoms: C_7  and  C_8
REMARK    5  A    between atoms: C_9  and  C_10
REMARK    6  A    between atoms: C_11  and  C_12
REMARK                            x       y       z     vdW  Elec       q    Type
REMARK                         _______ _______ _______ _____ _____    ______ ____
ROOT
ATOM      1  C   UNL     1       6.593   5.226  18.734  0.00  0.00    +0.000 C 
ATOM      2  C   UNL     1       5.313   4.774  18.940  0.00  0.00    +0.000 C 
ENDROOT
BRANCH   2   3
ATOM      3  C   UNL     1       3.898   4.933  18.311  0.00  0.00    +0.000 A 
ATOM      4  C   UNL     1       3.582   6.264  18.195  0.00  0.00    +0.000 A 
ATOM      5  C   UNL     1       2.752   6.760  19.179  0.00  0.00    +0.000 A 
ATOM      6  N   UNL     1       2.093   6.002  20.085  0.00  0.00    +0.000 NA
ATOM      7  C   UNL     1       2.013   4.699  19.819  0.00  0.00    +0.000 A 
ATOM      8  C   UNL     1       0.975   3.989  20.429  0.00  0.00    +0.000 A 
ATOM      9  C   UNL     1       0.470   2.818  19.871  0.00  0.00    +0.000 A 
ATOM     10  C   UNL     1       1.037   2.355  18.693  0.00  0.00    +0.000 A 
ATOM     11  C   UNL     1       2.212   2.965  18.190  0.00  0.00    +0.000 A 
ATOM     12  C   UNL     1       2.798   4.127  18.801  0.00  0.00    +0.000 A 
ENDBRANCH   2   3
BRANCH   1  14
ATOM     13  C   UNL     1       7.371   5.999  16.371  0.00  0.00    +0.000 C 
ATOM     14  C   UNL     1       7.304   6.039  17.732  0.00  0.00    +0.000 C 
BRANCH  13  18
ATOM     15  C   UNL     1       5.845   3.642  12.894  0.00  0.00    +0.000 A 
ATOM     16  C   UNL     1       5.156   3.737  14.113  0.00  0.00    +0.000 A 
ATOM     17  C   UNL     1       5.615   4.478  15.229  0.00  0.00    +0.000 A 
ATOM     18  C   UNL     1       6.819   5.193  15.220  0.00  0.00    +0.000 A 
ATOM     19  C   UNL     1       7.501   5.134  13.983  0.00  0.00    +0.000 A 
ATOM     20  C   UNL     1       7.032   4.385  12.858  0.00  0.00    +0.000 A 
BRANCH  15  22
ATOM     21  C   UNL     1       4.049   3.166  11.242  0.00  0.00    +0.000 C 
ATOM     22  N   UNL     1       5.372   2.900  11.810  0.00  0.00    +0.000 N 
ATOM     23  C   UNL     1       5.969   1.614  11.451  0.00  0.00    +0.000 C 
ENDBRANCH  15  22
ENDBRANCH  13  18
ENDBRANCH   1  14
TORSDOF 4
ENDMDL
MODEL 4
REMARK VINA RESULT:      -7.8      1.649      3.930
REMARK  Name = 
REMARK  6 active torsions:
REMARK  status: ('A' for Active; 'I' for Inactive)
REMARK    1  A    between atoms: C_1  and  N_2
REMARK    2  A    between atoms: N_2  and  C_3
REMARK    3  A    between atoms: N_2  and  C_4
REMARK    4  A    between atoms: C_7  and  C_8
REMARK    5  A    between atoms: C_9  and  C_10
REMARK    6  A    between atoms: C_11  and  C_12
REMARK                            x       y       z     vdW  Elec       q    Type
REMARK                         _______ _______ _______ _____ _____    ______ ____
ROOT
ATOM      1  C   UNL     1       0.988   3.270  19.549  0.00  0.00    +0.000 C 
ATOM      2  C   UNL     1       1.590   2.709  18.450  0.00  0.00    +0.000 C 
ENDROOT
BRANCH   2   3
ATOM      3  C   UNL     1       3.016   2.556  17.843  0.00  0.00    +0.000 A 
ATOM      4  C   UNL     1       3.645   1.465  18.390  0.00  0.00    +0.000 A 
ATOM      5  C   UNL     1       4.547   1.747  19.394  0.00  0.00    +0.000 A 
ATOM      6  N   UNL     1       4.984   2.987  19.712  0.00  0.00    +0.000 NA
ATOM      7  C   UNL     1       4.755   3.943  18.811  0.00  0.00    +0.000 A 
ATOM      8  C   UNL     1       5.578   5.071  18.860  0.00  0.00    +0.000 A 
ATOM      9  C   UNL     1       5.799   5.858  17.733  0.00  0.00    +0.000 A 
ATOM     10  C   UNL     1       5.165   5.505  16.552  0.00  0.00    +0.000 A 
ATOM     11  C   UNL     1       4.182   4.484  16.558  0.00  0.00    +0.000 A 
ATOM     12  C   UNL     1       3.878   3.716  17.734  0.00  0.00    +0.000 A 
ENDBRANCH   2   3
BRANCH   1  14
ATOM     13  C   UNL     1       1.648   5.253  21.105  0.00  0.00    +0.000 C 
ATOM     14  C   UNL     1       1.414   3.948  20.785  0.00  0.00    +0.000 C 
BRANCH  13  18
ATOM     15  C   UNL     1       1.472   9.332  19.288  0.00  0.00    +0.000 A 
ATOM     16  C   UNL     1       2.128   8.252  18.677  0.00  0.00    +0.000 A 
ATOM     17  C   UNL     1       2.197   6.950  19.229  0.00  0.00    +0.000 A 
ATOM     18  C   UNL     1       1.611   6.615  20.456  0.00  0.00    +0.000 A 
ATOM     19  C   UNL     1       0.915   7.688  21.060  0.00  0.00    +0.000 A 
ATOM     20  C   UNL     1       0.848   9.001  20.497  0.00  0.00    +0.000 A 
BRANCH  15  22
ATOM     21  C   UNL     1       2.491  11.077  17.838  0.00  0.00    +0.000 C 
ATOM     22  N   UNL     1       1.423  10.608  18.724  0.00  0.00    +0.000 N 
ATOM     23  C   UNL     1       0.552  11.649  19.271  0.00  0.00    +0.000 C 
ENDBRANCH  15  22
ENDBRANCH  13  18
ENDBRANCH   1  14
TORSDOF 4
ENDMDL
MODEL 5
REMARK VINA RESULT:      -7.6      1.792      3.925
REMARK  Name = 
REMARK  6 active torsions:
REMARK  status: ('A' for Active; 'I' for Inactive)
REMARK    1  A    between atoms: C_1  and  N_2
REMARK    2  A    between atoms: N_2  and  C_3
REMARK    3  A    between atoms: N_2  and  C_4
REMARK    4  A    between atoms: C_7  and  C_8
REMARK    5  A    between atoms: C_9  and  C_10
REMARK    6  A    between atoms: C_11  and  C_12
REMARK                            x       y       z     vdW  Elec       q    Type
REMARK                         _______ _______ _______ _____ _____    ______ ____
ROOT
ATOM      1  C   UNL     1       1.303   4.332  18.974  0.00  0.00    +0.000 C 
ATOM      2  C   UNL     1       1.848   3.561  17.976  0.00  0.00    +0.000 C 
ENDROOT
BRANCH   2   3
ATOM      3  C   UNL     1       3.224   2.941  17.593  0.00  0.00    +0.000 A 
ATOM      4  C   UNL     1       3.496   1.865  18.400  0.00  0.00    +0.000 A 
ATOM      5  C   UNL     1       4.361   2.115  19.445  0.00  0.00    +0.000 A 
ATOM      6  N   UNL     1       5.087   3.247  19.588  0.00  0.00    +0.000 NA
ATOM      7  C   UNL     1       5.190   4.024  18.510  0.00  0.00    +0.000 A 
ATOM      8  C   UNL     1       6.278   4.900  18.461  0.00  0.00    +0.000 A 
ATOM      9  C   UNL     1       6.786   5.360  17.248  0.00  0.00    +0.000 A 
ATOM     10  C   UNL     1       6.172   4.939  16.079  0.00  0.00    +0.000 A 
ATOM     11  C   UNL     1       4.955   4.216  16.142  0.00  0.00    +0.000 A 
ATOM     12  C   UNL     1       4.369   3.804  17.389  0.00  0.00    +0.000 A 
ENDBRANCH   2   3
BRANCH   1  14
ATOM     13  C   UNL     1       1.823   6.168  20.748  0.00  0.00    +0.000 C 
ATOM     14  C   UNL     1       1.739   4.896  20.262  0.00  0.00    +0.000 C 
BRANCH  13  18
ATOM     15  C   UNL     1       1.061  10.329  19.309  0.00  0.00    +0.000 A 
ATOM     16  C   UNL     1       0.752   9.902  20.610  0.00  0.00    +0.000 A 
ATOM     17  C   UNL     1       0.985   8.592  21.092  0.00  0.00    +0.000 A 
ATOM     18  C   UNL     1       1.550   7.584  20.303  0.00  0.00    +0.000 A 
ATOM     19  C   UNL     1       1.901   8.015  19.002  0.00  0.00    +0.000 A 
ATOM     20  C   UNL     1       1.664   9.341  18.521  0.00  0.00    +0.000 A 
BRANCH  15  22
ATOM     21  C   UNL     1       1.789  12.697  19.089  0.00  0.00    +0.000 C 
ATOM     22  N   UNL     1       0.816  11.628  18.857  0.00  0.00    +0.000 N 
ATOM     23  C   UNL     1      -0.532  12.066  18.497  0.00  0.00    +0.000 C 
ENDBRANCH  15  22
ENDBRANCH  13  18
ENDBRANCH   1  14
TORSDOF 4
ENDMDL
MODEL 6
REMARK VINA RESULT:      -7.5      1.936      3.990
REMARK  Name = 
REMARK  6 active torsions:
REMARK  status: ('A' for Active; 'I' for Inactive)
REMARK    1  A    between atoms: C_1  and  N_2
REMARK    2  A    between atoms: N_2  and  C_3
REMARK    3  A    between atoms: N_2  and  C_4
REMARK    4  A    between atoms: C_7  and  C_8
REMARK    5  A    between atoms: C_9  and  C_10
REMARK    6  A    between atoms: C_11  and  C_12
REMARK                            x       y       z     vdW  Elec       q    Type
REMARK                         _______ _______ _______ _____ _____    ______ ____
ROOT
ATOM      1  C   UNL     1       1.515   4.777  18.733  0.00  0.00    +0.000 C 
ATOM      2  C   UNL     1       1.934   3.844  17.816  0.00  0.00    +0.000 C 
ENDROOT
BRANCH   2   3
ATOM      3  C   UNL     1       3.230   3.064  17.445  0.00  0.00    +0.000 A 
ATOM      4  C   UNL     1       3.382   1.983  18.276  0.00  0.00    +0.000 A 
ATOM      5  C   UNL     1       4.274   2.157  19.314  0.00  0.00    +0.000 A 
ATOM      6  N   UNL     1       5.123   3.204  19.430  0.00  0.00    +0.000 NA
ATOM      7  C   UNL     1       5.309   3.940  18.335  0.00  0.00    +0.000 A 
ATOM      8  C   UNL     1       6.488   4.687  18.264  0.00  0.00    +0.000 A 
ATOM      9  C   UNL     1       7.040   5.059  17.041  0.00  0.00    +0.000 A 
ATOM     10  C   UNL     1       6.378   4.684  15.882  0.00  0.00    +0.000 A 
ATOM     11  C   UNL     1       5.088   4.104  15.963  0.00  0.00    +0.000 A 
ATOM     12  C   UNL     1       4.464   3.789  17.220  0.00  0.00    +0.000 A 
ENDBRANCH   2   3
BRANCH   1  14
ATOM     13  C   UNL     1       2.083   6.756  20.329  0.00  0.00    +0.000 C 
ATOM     14  C   UNL     1       2.073   5.457  19.913  0.00  0.00    +0.000 C 
BRANCH  13  18
ATOM     15  C   UNL     1       0.550  10.773  19.111  0.00  0.00    +0.000 A 
ATOM     16  C   UNL     1       1.287   9.944  18.251  0.00  0.00    +0.000 A 
ATOM     17  C   UNL     1       1.782   8.668  18.610  0.00  0.00    +0.000 A 
ATOM     18  C   UNL     1       1.582   8.107  19.877  0.00  0.00    +0.000 A 
ATOM     19  C   UNL     1       0.808   8.918  20.738  0.00  0.00    +0.000 A 
ATOM     20  C   UNL     1       0.309  10.207  20.369  0.00  0.00    +0.000 A 
BRANCH  15  22
ATOM     21  C   UNL     1      -1.251  12.184  18.136  0.00  0.00    +0.000 C 
ATOM     22  N   UNL     1       0.078  12.032  18.733  0.00  0.00    +0.000 N 
ATOM     23  C   UNL     1       0.988  13.162  18.549  0.00  0.00    +0.000 C 
ENDBRANCH  15  22
ENDBRANCH  13  18
ENDBRANCH   1  14
TORSDOF 4
ENDMDL
MODEL 7
REMARK VINA RESULT:      -7.5      1.778      3.709
REMARK  Name = 
REMARK  6 active torsions:
REMARK  status: ('A' for Active; 'I' for Inactive)
REMARK    1  A    between atoms: C_1  and  N_2
REMARK    2  A    between atoms: N_2  and  C_3
REMARK    3  A    between atoms: N_2  and  C_4
REMARK    4  A    between atoms: C_7  and  C_8
REMARK    5  A    between atoms: C_9  and  C_10
REMARK    6  A    between atoms: C_11  and  C_12
REMARK                            x       y       z     vdW  Elec       q    Type
REMARK                         _______ _______ _______ _____ _____    ______ ____
ROOT
ATOM      1  C   UNL     1       1.851   5.701  17.916  0.00  0.00    +0.000 C 
ATOM      2  C   UNL     1       2.087   4.348  17.881  0.00  0.00    +0.000 C 
ENDROOT
BRANCH   2   3
ATOM      3  C   UNL     1       3.259   3.369  17.577  0.00  0.00    +0.000 A 
ATOM      4  C   UNL     1       3.348   2.421  18.565  0.00  0.00    +0.000 A 
ATOM      5  C   UNL     1       4.324   2.647  19.513  0.00  0.00    +0.000 A 
ATOM      6  N   UNL     1       5.290   3.589  19.413  0.00  0.00    +0.000 NA
ATOM      7  C   UNL     1       5.480   4.116  18.204  0.00  0.00    +0.000 A 
ATOM      8  C   UNL     1       6.726   4.695  17.953  0.00  0.00    +0.000 A 
ATOM      9  C   UNL     1       7.229   4.801  16.658  0.00  0.00    +0.000 A 
ATOM     10  C   UNL     1       6.451   4.332  15.611  0.00  0.00    +0.000 A 
ATOM     11  C   UNL     1       5.113   3.932  15.852  0.00  0.00    +0.000 A 
ATOM     12  C   UNL     1       4.548   3.895  17.173  0.00  0.00    +0.000 A 
ENDBRANCH   2   3
BRANCH   1  14
ATOM     13  C   UNL     1       2.478   8.209  18.234  0.00  0.00    +0.000 C 
ATOM     14  C   UNL     1       2.637   6.938  17.768  0.00  0.00    +0.000 C 
BRANCH  13  18
ATOM     15  C   UNL     1      -0.333  10.500  20.844  0.00  0.00    +0.000 A 
ATOM     16  C   UNL     1      -0.174  10.766  19.475  0.00  0.00    +0.000 A 
ATOM     17  C   UNL     1       0.706  10.055  18.626  0.00  0.00    +0.000 A 
ATOM     18  C   UNL     1       1.516   9.007  19.080  0.00  0.00    +0.000 A 
ATOM     19  C   UNL     1       1.334   8.707  20.450  0.00  0.00    +0.000 A 
ATOM     20  C   UNL     1       0.441   9.428  21.303  0.00  0.00    +0.000 A 
BRANCH  15  22
ATOM     21  C   UNL     1      -1.780  12.490  21.209  0.00  0.00    +0.000 C 
ATOM     22  N   UNL     1      -1.207  11.221  21.662  0.00  0.00    +0.000 N 
ATOM     23  C   UNL     1      -1.285  10.968  23.100  0.00  0.00    +0.000 C 
ENDBRANCH  15  22
ENDBRANCH  13  18
ENDBRANCH   1  14
TORSDOF 4
ENDMDL
MODEL 8
REMARK VINA RESULT:      -7.5      5.659      6.640
REMARK  Name = 
REMARK  6 active torsions:
REMARK  status: ('A' for Active; 'I' for Inactive)
REMARK    1  A    between atoms: C_1  and  N_2
REMARK    2  A    between atoms: N_2  and  C_3
REMARK    3  A    between atoms: N_2  and  C_4
REMARK    4  A    between atoms: C_7  and  C_8
REMARK    5  A    between atoms: C_9  and  C_10
REMARK    6  A    between atoms: C_11  and  C_12
REMARK                            x       y       z     vdW  Elec       q    Type
REMARK                         _______ _______ _______ _____ _____    ______ ____
ROOT
ATOM      1  C   UNL     1       8.071   7.124  18.656  0.00  0.00    +0.000 C 
ATOM      2  C   UNL     1       7.721   5.819  18.904  0.00  0.00    +0.000 C 
ENDROOT
BRANCH   2   3
ATOM      3  C   UNL     1       6.897   4.679  18.236  0.00  0.00    +0.000 A 
ATOM      4  C   UNL     1       7.251   4.553  16.916  0.00  0.00    +0.000 A 
ATOM      5  C   UNL     1       6.391   5.146  16.016  0.00  0.00    +0.000 A 
ATOM      6  N   UNL     1       5.169   5.636  16.327  0.00  0.00    +0.000 NA
ATOM      7  C   UNL     1       4.659   5.254  17.498  0.00  0.00    +0.000 A 
ATOM      8  C   UNL     1       3.271   5.324  17.639  0.00  0.00    +0.000 A 
ATOM      9  C   UNL     1       2.592   4.513  18.545  0.00  0.00    +0.000 A 
ATOM     10  C   UNL     1       3.332   3.639  19.326  0.00  0.00    +0.000 A 
ATOM     11  C   UNL     1       4.747   3.715  19.321  0.00  0.00    +0.000 A 
ATOM     12  C   UNL     1       5.466   4.607  18.452  0.00  0.00    +0.000 A 
ENDBRANCH   2   3
BRANCH   1  14
ATOM     13  C   UNL     1       8.189   9.425  17.440  0.00  0.00    +0.000 C 
ATOM     14  C   UNL     1       7.912   8.095  17.560  0.00  0.00    +0.000 C 
BRANCH  13  18
ATOM     15  C   UNL     1       9.907  12.684  19.969  0.00  0.00    +0.000 A 
ATOM     16  C   UNL     1       9.315  12.919  18.718  0.00  0.00    +0.000 A 
ATOM     17  C   UNL     1       8.761  11.907  17.898  0.00  0.00    +0.000 A 
ATOM     18  C   UNL     1       8.756  10.556  18.263  0.00  0.00    +0.000 A 
ATOM     19  C   UNL     1       9.316  10.313  19.539  0.00  0.00    +0.000 A 
ATOM     20  C   UNL     1       9.872  11.341  20.364  0.00  0.00    +0.000 A 
BRANCH  15  22
ATOM     21  C   UNL     1       9.763  14.160  21.965  0.00  0.00    +0.000 C 
ATOM     22  N   UNL     1      10.450  13.702  20.756  0.00  0.00    +0.000 N 
ATOM     23  C   UNL     1      11.479  14.600  20.233  0.00  0.00    +0.000 C 
ENDBRANCH  15  22
ENDBRANCH  13  18
ENDBRANCH   1  14
TORSDOF 4
ENDMDL
MODEL 9
REMARK VINA RESULT:      -7.4      2.143      4.030
REMARK  Name = 
REMARK  6 active torsions:
REMARK  status: ('A' for Active; 'I' for Inactive)
REMARK    1  A    between atoms: C_1  and  N_2
REMARK    2  A    between atoms: N_2  and  C_3
REMARK    3  A    between atoms: N_2  and  C_4
REMARK    4  A    between atoms: C_7  and  C_8
REMARK    5  A    between atoms: C_9  and  C_10
REMARK    6  A    between atoms: C_11  and  C_12
REMARK                            x       y       z     vdW  Elec       q    Type
REMARK                         _______ _______ _______ _____ _____    ______ ____
ROOT
ATOM      1  C   UNL     1       1.866   5.953  18.054  0.00  0.00    +0.000 C 
ATOM      2  C   UNL     1       2.079   4.609  17.871  0.00  0.00    +0.000 C 
ENDROOT
BRANCH   2   3
ATOM      3  C   UNL     1       3.244   3.647  17.492  0.00  0.00    +0.000 A 
ATOM      4  C   UNL     1       3.294   2.598  18.376  0.00  0.00    +0.000 A 
ATOM      5  C   UNL     1       4.249   2.706  19.365  0.00  0.00    +0.000 A 
ATOM      6  N   UNL     1       5.231   3.636  19.389  0.00  0.00    +0.000 NA
ATOM      7  C   UNL     1       5.459   4.285  18.247  0.00  0.00    +0.000 A 
ATOM      8  C   UNL     1       6.720   4.864  18.087  0.00  0.00    +0.000 A 
ATOM      9  C   UNL     1       7.257   5.099  16.824  0.00  0.00    +0.000 A 
ATOM     10  C   UNL     1       6.498   4.757  15.715  0.00  0.00    +0.000 A 
ATOM     11  C   UNL     1       5.149   4.357  15.881  0.00  0.00    +0.000 A 
ATOM     12  C   UNL     1       4.550   4.190  17.177  0.00  0.00    +0.000 A 
ENDBRANCH   2   3
BRANCH   1  14
ATOM     13  C   UNL     1       2.376   8.500  18.255  0.00  0.00    +0.000 C 
ATOM     14  C   UNL     1       2.676   7.182  18.075  0.00  0.00    +0.000 C 
BRANCH  13  18
ATOM     15  C   UNL     1      -1.245  11.035  18.909  0.00  0.00    +0.000 A 
ATOM     16  C   UNL     1      -0.117  11.086  19.742  0.00  0.00    +0.000 A 
ATOM     17  C   UNL     1       1.043  10.297  19.556  0.00  0.00    +0.000 A 
ATOM     18  C   UNL     1       1.173   9.375  18.511  0.00  0.00    +0.000 A 
ATOM     19  C   UNL     1       0.056   9.345  17.644  0.00  0.00    +0.000 A 
ATOM     20  C   UNL     1      -1.113  10.146  17.835  0.00  0.00    +0.000 A 
BRANCH  15  22
ATOM     21  C   UNL     1      -2.523  12.620  20.337  0.00  0.00    +0.000 C 
ATOM     22  N   UNL     1      -2.380  11.823  19.117  0.00  0.00    +0.000 N 
ATOM     23  C   UNL     1      -3.610  11.599  18.358  0.00  0.00    +0.000 C 
ENDBRANCH  15  22
ENDBRANCH  13  18
ENDBRANCH   1  14
TORSDOF 4
ENDMDL
