MODEL 1
REMARK VINA RESULT:      -8.5      0.000      0.000
REMARK  Name = 
REMARK  11 active torsions:
REMARK  status: ('A' for Active; 'I' for Inactive)
REMARK    1  A    between atoms: CD1_1  and  CG_2
REMARK    2  A    between atoms: CG_2  and  CD2_3
REMARK    3  A    between atoms: CG_2  and  CB_4
REMARK    4  A    between atoms: CB_4  and  CA_5
REMARK    5  A    between atoms: CA_5  and  C_6
REMARK    6  A    between atoms: CA_5  and  N_8
REMARK    7  A    between atoms: C_6  and  O_7
REMARK    8  A    between atoms: C_9  and  C_11
REMARK    9  A    between atoms: C_13  and  C_14
REMARK   10  A    between atoms: C_14  and  C_15
REMARK   11  A    between atoms: C_16  and  C_17
REMARK                            x       y       z     vdW  Elec       q    Type
REMARK                         _______ _______ _______ _____ _____    ______ ____
ROOT
ATOM      1  C   UNK A   0       3.457   4.556  18.333  0.00  0.00    +0.000 A 
ATOM      2  C   UNK A   0       4.639   4.012  17.821  0.00  0.00    +0.000 A 
ATOM      3  N   UNK A   0       4.979   2.974  18.668  0.00  0.00    +0.000 N 
ATOM      4  C   UNK A   0       4.089   2.849  19.703  0.00  0.00    +0.000 A 
ATOM      5  C   UNK A   0       4.076   1.962  20.784  0.00  0.00    +0.000 A 
ATOM      6  F   UNK A   0       5.053   1.061  20.941  0.00  0.00    +0.000 F 
ATOM      7  C   UNK A   0       3.034   2.028  21.700  0.00  0.00    +0.000 A 
ATOM      8  C   UNK A   0       2.032   2.967  21.522  0.00  0.00    +0.000 A 
ATOM      9  F   UNK A   0       1.015   3.013  22.395  0.00  0.00    +0.000 F 
ATOM     10  C   UNK A   0       2.050   3.870  20.455  0.00  0.00    +0.000 A 
ATOM     11  C   UNK A   0       3.107   3.813  19.517  0.00  0.00    +0.000 A 
ATOM     12  H   UNK A   0       5.781   2.371  18.549  0.00  0.00    +0.000 HD
ENDROOT
BRANCH   2  13
ATOM     13  C   UNK A   0       5.471   4.351  16.649  0.00  0.00    +0.000 A 
ATOM     14  C   UNK A   0       5.102   3.947  15.358  0.00  0.00    +0.000 A 
ATOM     15  C   UNK A   0       5.879   4.293  14.245  0.00  0.00    +0.000 A 
ATOM     16  C   UNK A   0       7.038   5.040  14.412  0.00  0.00    +0.000 A 
ATOM     17  F   UNK A   0       7.777   5.374  13.348  0.00  0.00    +0.000 F 
ATOM     18  C   UNK A   0       7.435   5.445  15.671  0.00  0.00    +0.000 A 
ATOM     19  C   UNK A   0       6.649   5.102  16.774  0.00  0.00    +0.000 A 
ENDBRANCH   2  13
BRANCH   1  20
ATOM     20  C   UNK A   0       2.686   5.735  17.815  0.00  0.00    +0.000 C 
BRANCH  20  23
ATOM     21  C   UNK A   0       1.646   8.541  18.195  0.00  0.00    +0.000 C 
ATOM     22  C   UNK A   0       3.038   8.347  17.542  0.00  0.00    +0.000 C 
ATOM     23  C   UNK A   0       3.180   7.064  18.389  0.00  0.00    +0.000 C 
ATOM     24  C   UNK A   0       2.200   7.723  19.391  0.00  0.00    +0.000 C 
BRANCH  21  26
ATOM     25  N   LEU A   1      -0.077  10.070  18.950  0.00  0.00    +0.000 N 
ATOM     26  C   UNK A   0       1.200   9.984  18.449  0.00  0.00    +0.000 C 
ATOM     27  O   UNK A   0       1.869  10.988  18.198  0.00  0.00    +0.000 OA
ATOM     28  H   LEU A   1      -0.644   9.231  18.966  0.00  0.00    +0.000 HD
BRANCH  25  29
ATOM     29  CA  LEU A   1      -0.727  11.354  19.164  0.00  0.00    +0.000 C 
BRANCH  29  30
ATOM     30  CB  LEU A   1      -1.256  11.425  20.604  0.00  0.00    +0.000 C 
BRANCH  30  32
ATOM     31  CD1 LEU A   1       0.732  12.998  20.962  0.00  0.00    +0.000 C 
ATOM     32  CG  LEU A   1      -0.255  12.031  21.617  0.00  0.00    +0.000 C 
ATOM     33  CD2 LEU A   1      -1.019  12.733  22.740  0.00  0.00    +0.000 C 
ENDBRANCH  30  32
ENDBRANCH  29  30
BRANCH  29  34
ATOM     34  C   LEU A   1      -1.856  11.569  18.133  0.00  0.00    +0.000 C 
BRANCH  34  35
ATOM     35  O   LEU A   1      -1.463  12.403  17.043  0.00  0.00    +0.000 OA
ATOM     36  H   LEU A   1      -0.832  13.074  17.378  0.00  0.00    +0.000 HD
ENDBRANCH  34  35
ENDBRANCH  29  34
ENDBRANCH  25  29
ENDBRANCH  21  26
ENDBRANCH  20  23
ENDBRANCH   1  20
TORSDOF 9
ENDMDL
MODEL 2
REMARK VINA RESULT:      -8.4      0.669      1.225
REMARK  Name = 
REMARK  11 active torsions:
REMARK  status: ('A' for Active; 'I' for Inactive)
REMARK    1  A    between atoms: CD1_1  and  CG_2
REMARK    2  A    between atoms: CG_2  and  CD2_3
REMARK    3  A    between atoms: CG_2  and  CB_4
REMARK    4  A    between atoms: CB_4  and  CA_5
REMARK    5  A    between atoms: CA_5  and  C_6
REMARK    6  A    between atoms: CA_5  and  N_8
REMARK    7  A    between atoms: C_6  and  O_7
REMARK    8  A    between atoms: C_9  and  C_11
REMARK    9  A    between atoms: C_13  and  C_14
REMARK   10  A    between atoms: C_14  and  C_15
REMARK   11  A    between atoms: C_16  and  C_17
REMARK                            x       y       z     vdW  Elec       q    Type
REMARK                         _______ _______ _______ _____ _____    ______ ____
ROOT
ATOM      1  C   UNK A   0       3.451   4.567  18.301  0.00  0.00    +0.000 A 
ATOM      2  C   UNK A   0       4.658   4.059  17.813  0.00  0.00    +0.000 A 
ATOM      3  N   UNK A   0       5.019   3.038  18.672  0.00  0.00    +0.000 N 
ATOM      4  C   UNK A   0       4.117   2.890  19.693  0.00  0.00    +0.000 A 
ATOM      5  C   UNK A   0       4.116   2.010  20.779  0.00  0.00    +0.000 A 
ATOM      6  F   UNK A   0       5.119   1.143  20.959  0.00  0.00    +0.000 F 
ATOM      7  C   UNK A   0       3.057   2.047  21.678  0.00  0.00    +0.000 A 
ATOM      8  C   UNK A   0       2.027   2.951  21.478  0.00  0.00    +0.000 A 
ATOM      9  F   UNK A   0       0.995   2.969  22.334  0.00  0.00    +0.000 F 
ATOM     10  C   UNK A   0       2.033   3.847  20.405  0.00  0.00    +0.000 A 
ATOM     11  C   UNK A   0       3.106   3.820  19.485  0.00  0.00    +0.000 A 
ATOM     12  H   UNK A   0       5.842   2.461  18.570  0.00  0.00    +0.000 HD
ENDROOT
BRANCH   2  13
ATOM     13  C   UNK A   0       5.499   4.419  16.652  0.00  0.00    +0.000 A 
ATOM     14  C   UNK A   0       6.653   5.200  16.810  0.00  0.00    +0.000 A 
ATOM     15  C   UNK A   0       7.464   5.516  15.711  0.00  0.00    +0.000 A 
ATOM     16  C   UNK A   0       7.124   5.062  14.443  0.00  0.00    +0.000 A 
ATOM     17  F   UNK A   0       7.901   5.362  13.396  0.00  0.00    +0.000 F 
ATOM     18  C   UNK A   0       5.988   4.300  14.253  0.00  0.00    +0.000 A 
ATOM     19  C   UNK A   0       5.191   3.983  15.356  0.00  0.00    +0.000 A 
ENDBRANCH   2  13
BRANCH   1  20
ATOM     20  C   UNK A   0       2.651   5.716  17.763  0.00  0.00    +0.000 C 
BRANCH  20  23
ATOM     21  C   UNK A   0       1.561   8.520  17.992  0.00  0.00    +0.000 C 
ATOM     22  C   UNK A   0       3.000   8.324  17.451  0.00  0.00    +0.000 C 
ATOM     23  C   UNK A   0       3.089   7.064  18.339  0.00  0.00    +0.000 C 
ATOM     24  C   UNK A   0       2.029   7.738  19.246  0.00  0.00    +0.000 C 
BRANCH  21  26
ATOM     25  N   LEU A   1      -0.284  10.080  18.186  0.00  0.00    +0.000 N 
ATOM     26  C   UNK A   0       1.086   9.964  18.174  0.00  0.00    +0.000 C 
ATOM     27  O   UNK A   0       1.822  10.949  18.256  0.00  0.00    +0.000 OA
ATOM     28  H   LEU A   1      -0.837   9.269  17.935  0.00  0.00    +0.000 HD
BRANCH  25  29
ATOM     29  CA  LEU A   1      -0.939  11.378  18.247  0.00  0.00    +0.000 C 
BRANCH  29  30
ATOM     30  CB  LEU A   1      -1.242  11.730  19.710  0.00  0.00    +0.000 C 
BRANCH  30  32
ATOM     31  CD1 LEU A   1       0.690  12.684  21.092  0.00  0.00    +0.000 C 
ATOM     32  CG  LEU A   1      -0.523  13.003  20.217  0.00  0.00    +0.000 C 
ATOM     33  CD2 LEU A   1      -0.105  13.868  19.026  0.00  0.00    +0.000 C 
ENDBRANCH  30  32
ENDBRANCH  29  30
BRANCH  29  34
ATOM     34  C   LEU A   1      -2.220  11.378  17.385  0.00  0.00    +0.000 C 
BRANCH  34  35
ATOM     35  O   LEU A   1      -2.051  10.710  16.135  0.00  0.00    +0.000 OA
ATOM     36  H   LEU A   1      -1.215  11.023  15.728  0.00  0.00    +0.000 HD
ENDBRANCH  34  35
ENDBRANCH  29  34
ENDBRANCH  25  29
ENDBRANCH  21  26
ENDBRANCH  20  23
ENDBRANCH   1  20
TORSDOF 9
ENDMDL
MODEL 3
REMARK VINA RESULT:      -8.4      1.354      2.334
REMARK  Name = 
REMARK  11 active torsions:
REMARK  status: ('A' for Active; 'I' for Inactive)
REMARK    1  A    between atoms: CD1_1  and  CG_2
REMARK    2  A    between atoms: CG_2  and  CD2_3
REMARK    3  A    between atoms: CG_2  and  CB_4
REMARK    4  A    between atoms: CB_4  and  CA_5
REMARK    5  A    between atoms: CA_5  and  C_6
REMARK    6  A    between atoms: CA_5  and  N_8
REMARK    7  A    between atoms: C_6  and  O_7
REMARK    8  A    between atoms: C_9  and  C_11
REMARK    9  A    between atoms: C_13  and  C_14
REMARK   10  A    between atoms: C_14  and  C_15
REMARK   11  A    between atoms: C_16  and  C_17
REMARK                            x       y       z     vdW  Elec       q    Type
REMARK                         _______ _______ _______ _____ _____    ______ ____
ROOT
ATOM      1  C   UNK A   0       3.515   4.685  18.151  0.00  0.00    +0.000 A 
ATOM      2  C   UNK A   0       4.694   4.140  17.635  0.00  0.00    +0.000 A 
ATOM      3  N   UNK A   0       5.038   3.103  18.481  0.00  0.00    +0.000 N 
ATOM      4  C   UNK A   0       4.153   2.980  19.521  0.00  0.00    +0.000 A 
ATOM      5  C   UNK A   0       4.145   2.094  20.602  0.00  0.00    +0.000 A 
ATOM      6  F   UNK A   0       5.122   1.193  20.756  0.00  0.00    +0.000 F 
ATOM      7  C   UNK A   0       3.108   2.161  21.524  0.00  0.00    +0.000 A 
ATOM      8  C   UNK A   0       2.105   3.101  21.350  0.00  0.00    +0.000 A 
ATOM      9  F   UNK A   0       1.092   3.148  22.228  0.00  0.00    +0.000 F 
ATOM     10  C   UNK A   0       2.118   4.002  20.282  0.00  0.00    +0.000 A 
ATOM     11  C   UNK A   0       3.170   3.943  19.338  0.00  0.00    +0.000 A 
ATOM     12  H   UNK A   0       5.839   2.499  18.359  0.00  0.00    +0.000 HD
ENDROOT
BRANCH   2  13
ATOM     13  C   UNK A   0       5.521   4.478  16.458  0.00  0.00    +0.000 A 
ATOM     14  C   UNK A   0       6.551   5.426  16.547  0.00  0.00    +0.000 A 
ATOM     15  C   UNK A   0       7.352   5.724  15.437  0.00  0.00    +0.000 A 
ATOM     16  C   UNK A   0       7.126   5.084  14.225  0.00  0.00    +0.000 A 
ATOM     17  F   UNK A   0       7.894   5.366  13.166  0.00  0.00    +0.000 F 
ATOM     18  C   UNK A   0       6.113   4.153  14.102  0.00  0.00    +0.000 A 
ATOM     19  C   UNK A   0       5.325   3.856  15.217  0.00  0.00    +0.000 A 
ENDBRANCH   2  13
BRANCH   1  20
ATOM     20  C   UNK A   0       2.742   5.864  17.637  0.00  0.00    +0.000 C 
BRANCH  20  23
ATOM     21  C   UNK A   0       1.357   8.351  18.635  0.00  0.00    +0.000 C 
ATOM     22  C   UNK A   0       2.620   8.508  17.750  0.00  0.00    +0.000 C 
ATOM     23  C   UNK A   0       3.116   7.170  18.340  0.00  0.00    +0.000 C 
ATOM     24  C   UNK A   0       2.242   7.494  19.577  0.00  0.00    +0.000 C 
BRANCH  21  26
ATOM     25  N   LEU A   1       0.019  10.336  18.252  0.00  0.00    +0.000 N 
ATOM     26  C   UNK A   0       0.742   9.639  19.191  0.00  0.00    +0.000 C 
ATOM     27  O   UNK A   0       0.897  10.062  20.338  0.00  0.00    +0.000 OA
ATOM     28  H   LEU A   1       0.074  10.038  17.286  0.00  0.00    +0.000 HD
BRANCH  25  29
ATOM     29  CA  LEU A   1      -0.562  11.636  18.549  0.00  0.00    +0.000 C 
BRANCH  29  30
ATOM     30  CB  LEU A   1      -1.894  11.784  17.801  0.00  0.00    +0.000 C 
BRANCH  30  32
ATOM     31  CD1 LEU A   1      -3.437   9.742  17.750  0.00  0.00    +0.000 C 
ATOM     32  CG  LEU A   1      -2.331  10.516  17.029  0.00  0.00    +0.000 C 
ATOM     33  CD2 LEU A   1      -2.785  10.900  15.620  0.00  0.00    +0.000 C 
ENDBRANCH  30  32
ENDBRANCH  29  30
BRANCH  29  34
ATOM     34  C   LEU A   1       0.424  12.766  18.183  0.00  0.00    +0.000 C 
BRANCH  34  35
ATOM     35  O   LEU A   1       0.219  13.954  18.947  0.00  0.00    +0.000 OA
ATOM     36  H   LEU A   1      -0.477  14.488  18.508  0.00  0.00    +0.000 HD
ENDBRANCH  34  35
ENDBRANCH  29  34
ENDBRANCH  25  29
ENDBRANCH  21  26
ENDBRANCH  20  23
ENDBRANCH   1  20
TORSDOF 9
ENDMDL
MODEL 4
REMARK VINA RESULT:      -8.2      0.525      1.173
REMARK  Name = 
REMARK  11 active torsions:
REMARK  status: ('A' for Active; 'I' for Inactive)
REMARK    1  A    between atoms: CD1_1  and  CG_2
REMARK    2  A    between atoms: CG_2  and  CD2_3
REMARK    3  A    between atoms: CG_2  and  CB_4
REMARK    4  A    between atoms: CB_4  and  CA_5
REMARK    5  A    between atoms: CA_5  and  C_6
REMARK    6  A    between atoms: CA_5  and  N_8
REMARK    7  A    between atoms: C_6  and  O_7
REMARK    8  A    between atoms: C_9  and  C_11
REMARK    9  A    between atoms: C_13  and  C_14
REMARK   10  A    between atoms: C_14  and  C_15
REMARK   11  A    between atoms: C_16  and  C_17
REMARK                            x       y       z     vdW  Elec       q    Type
REMARK                         _______ _______ _______ _____ _____    ______ ____
ROOT
ATOM      1  C   UNK A   0       3.460   4.602  18.288  0.00  0.00    +0.000 A 
ATOM      2  C   UNK A   0       4.649   4.077  17.774  0.00  0.00    +0.000 A 
ATOM      3  N   UNK A   0       5.004   3.039  18.615  0.00  0.00    +0.000 N 
ATOM      4  C   UNK A   0       4.115   2.896  19.649  0.00  0.00    +0.000 A 
ATOM      5  C   UNK A   0       4.115   2.003  20.725  0.00  0.00    +0.000 A 
ATOM      6  F   UNK A   0       5.104   1.115  20.877  0.00  0.00    +0.000 F 
ATOM      7  C   UNK A   0       3.072   2.049  21.641  0.00  0.00    +0.000 A 
ATOM      8  C   UNK A   0       2.057   2.976  21.469  0.00  0.00    +0.000 A 
ATOM      9  F   UNK A   0       1.039   3.003  22.341  0.00  0.00    +0.000 F 
ATOM     10  C   UNK A   0       2.063   3.884  20.406  0.00  0.00    +0.000 A 
ATOM     11  C   UNK A   0       3.120   3.847  19.468  0.00  0.00    +0.000 A 
ATOM     12  H   UNK A   0       5.813   2.448  18.492  0.00  0.00    +0.000 HD
ENDROOT
BRANCH   2  13
ATOM     13  C   UNK A   0       5.477   4.434  16.604  0.00  0.00    +0.000 A 
ATOM     14  C   UNK A   0       6.619   5.236  16.744  0.00  0.00    +0.000 A 
ATOM     15  C   UNK A   0       7.419   5.550  15.637  0.00  0.00    +0.000 A 
ATOM     16  C   UNK A   0       7.079   5.074  14.377  0.00  0.00    +0.000 A 
ATOM     17  F   UNK A   0       7.846   5.372  13.321  0.00  0.00    +0.000 F 
ATOM     18  C   UNK A   0       5.955   4.292  14.204  0.00  0.00    +0.000 A 
ATOM     19  C   UNK A   0       5.169   3.976  15.315  0.00  0.00    +0.000 A 
ENDBRANCH   2  13
BRANCH   1  20
ATOM     20  C   UNK A   0       2.673   5.773  17.777  0.00  0.00    +0.000 C 
BRANCH  20  23
ATOM     21  C   UNK A   0       1.585   8.534  18.321  0.00  0.00    +0.000 C 
ATOM     22  C   UNK A   0       2.903   8.399  17.517  0.00  0.00    +0.000 C 
ATOM     23  C   UNK A   0       3.181   7.110  18.320  0.00  0.00    +0.000 C 
ATOM     24  C   UNK A   0       2.293   7.718  19.434  0.00  0.00    +0.000 C 
BRANCH  21  26
ATOM     25  N   LEU A   1      -0.012   9.983  19.428  0.00  0.00    +0.000 N 
ATOM     26  C   UNK A   0       1.120   9.956  18.649  0.00  0.00    +0.000 C 
ATOM     27  O   UNK A   0       1.651  10.989  18.237  0.00  0.00    +0.000 OA
ATOM     28  H   LEU A   1      -0.507   9.114  19.587  0.00  0.00    +0.000 HD
BRANCH  25  29
ATOM     29  CA  LEU A   1      -0.674  11.234  19.767  0.00  0.00    +0.000 C 
BRANCH  29  30
ATOM     30  CB  LEU A   1      -1.014  11.243  21.264  0.00  0.00    +0.000 C 
BRANCH  30  32
ATOM     31  CD1 LEU A   1      -2.696  12.275  22.894  0.00  0.00    +0.000 C 
ATOM     32  CG  LEU A   1      -1.719  12.533  21.746  0.00  0.00    +0.000 C 
ATOM     33  CD2 LEU A   1      -0.673  13.569  22.162  0.00  0.00    +0.000 C 
ENDBRANCH  30  32
ENDBRANCH  29  30
BRANCH  29  34
ATOM     34  C   LEU A   1      -1.933  11.433  18.897  0.00  0.00    +0.000 C 
BRANCH  34  35
ATOM     35  O   LEU A   1      -1.769  12.444  17.902  0.00  0.00    +0.000 OA
ATOM     36  H   LEU A   1      -1.632  13.303  18.354  0.00  0.00    +0.000 HD
ENDBRANCH  34  35
ENDBRANCH  29  34
ENDBRANCH  25  29
ENDBRANCH  21  26
ENDBRANCH  20  23
ENDBRANCH   1  20
TORSDOF 9
ENDMDL
MODEL 5
REMARK VINA RESULT:      -8.1      1.149      1.879
REMARK  Name = 
REMARK  11 active torsions:
REMARK  status: ('A' for Active; 'I' for Inactive)
REMARK    1  A    between atoms: CD1_1  and  CG_2
REMARK    2  A    between atoms: CG_2  and  CD2_3
REMARK    3  A    between atoms: CG_2  and  CB_4
REMARK    4  A    between atoms: CB_4  and  CA_5
REMARK    5  A    between atoms: CA_5  and  C_6
REMARK    6  A    between atoms: CA_5  and  N_8
REMARK    7  A    between atoms: C_6  and  O_7
REMARK    8  A    between atoms: C_9  and  C_11
REMARK    9  A    between atoms: C_13  and  C_14
REMARK   10  A    between atoms: C_14  and  C_15
REMARK   11  A    between atoms: C_16  and  C_17
REMARK                            x       y       z     vdW  Elec       q    Type
REMARK                         _______ _______ _______ _____ _____    ______ ____
ROOT
ATOM      1  C   UNK A   0       3.454   4.695  18.193  0.00  0.00    +0.000 A 
ATOM      2  C   UNK A   0       4.625   4.145  17.662  0.00  0.00    +0.000 A 
ATOM      3  N   UNK A   0       4.969   3.099  18.498  0.00  0.00    +0.000 N 
ATOM      4  C   UNK A   0       4.093   2.975  19.545  0.00  0.00    +0.000 A 
ATOM      5  C   UNK A   0       4.089   2.082  20.621  0.00  0.00    +0.000 A 
ATOM      6  F   UNK A   0       5.061   1.172  20.759  0.00  0.00    +0.000 F 
ATOM      7  C   UNK A   0       3.060   2.150  21.552  0.00  0.00    +0.000 A 
ATOM      8  C   UNK A   0       2.063   3.098  21.394  0.00  0.00    +0.000 A 
ATOM      9  F   UNK A   0       1.058   3.146  22.281  0.00  0.00    +0.000 F 
ATOM     10  C   UNK A   0       2.073   4.006  20.332  0.00  0.00    +0.000 A 
ATOM     11  C   UNK A   0       3.115   3.947  19.378  0.00  0.00    +0.000 A 
ATOM     12  H   UNK A   0       5.764   2.490  18.364  0.00  0.00    +0.000 HD
ENDROOT
BRANCH   2  13
ATOM     13  C   UNK A   0       5.443   4.484  16.481  0.00  0.00    +0.000 A 
ATOM     14  C   UNK A   0       6.510   5.390  16.577  0.00  0.00    +0.000 A 
ATOM     15  C   UNK A   0       7.303   5.690  15.461  0.00  0.00    +0.000 A 
ATOM     16  C   UNK A   0       7.032   5.094  14.236  0.00  0.00    +0.000 A 
ATOM     17  F   UNK A   0       7.791   5.378  13.171  0.00  0.00    +0.000 F 
ATOM     18  C   UNK A   0       5.981   4.206  14.106  0.00  0.00    +0.000 A 
ATOM     19  C   UNK A   0       5.203   3.907  15.226  0.00  0.00    +0.000 A 
ENDBRANCH   2  13
BRANCH   1  20
ATOM     20  C   UNK A   0       2.686   5.882  17.694  0.00  0.00    +0.000 C 
BRANCH  20  23
ATOM     21  C   UNK A   0       1.437   8.415  18.756  0.00  0.00    +0.000 C 
ATOM     22  C   UNK A   0       2.619   8.530  17.760  0.00  0.00    +0.000 C 
ATOM     23  C   UNK A   0       3.142   7.195  18.333  0.00  0.00    +0.000 C 
ATOM     24  C   UNK A   0       2.386   7.560  19.635  0.00  0.00    +0.000 C 
BRANCH  21  26
ATOM     25  N   LEU A   1       0.693  10.690  18.379  0.00  0.00    +0.000 N 
ATOM     26  C   UNK A   0       0.895   9.724  19.336  0.00  0.00    +0.000 C 
ATOM     27  O   UNK A   0       0.696   9.942  20.533  0.00  0.00    +0.000 OA
ATOM     28  H   LEU A   1       1.041  10.520  17.444  0.00  0.00    +0.000 HD
BRANCH  25  29
ATOM     29  CA  LEU A   1       0.279  12.040  18.734  0.00  0.00    +0.000 C 
BRANCH  29  30
ATOM     30  CB  LEU A   1      -0.998  12.402  17.962  0.00  0.00    +0.000 C 
BRANCH  30  32
ATOM     31  CD1 LEU A   1      -3.249  11.251  18.359  0.00  0.00    +0.000 C 
ATOM     32  CG  LEU A   1      -2.289  12.351  18.813  0.00  0.00    +0.000 C 
ATOM     33  CD2 LEU A   1      -1.928  12.164  20.288  0.00  0.00    +0.000 C 
ENDBRANCH  30  32
ENDBRANCH  29  30
BRANCH  29  34
ATOM     34  C   LEU A   1       1.416  13.045  18.456  0.00  0.00    +0.000 C 
BRANCH  34  35
ATOM     35  O   LEU A   1       2.304  12.612  17.425  0.00  0.00    +0.000 OA
ATOM     36  H   LEU A   1       3.105  13.176  17.449  0.00  0.00    +0.000 HD
ENDBRANCH  34  35
ENDBRANCH  29  34
ENDBRANCH  25  29
ENDBRANCH  21  26
ENDBRANCH  20  23
ENDBRANCH   1  20
TORSDOF 9
ENDMDL
MODEL 6
REMARK VINA RESULT:      -7.8      1.202      1.938
REMARK  Name = 
REMARK  11 active torsions:
REMARK  status: ('A' for Active; 'I' for Inactive)
REMARK    1  A    between atoms: CD1_1  and  CG_2
REMARK    2  A    between atoms: CG_2  and  CD2_3
REMARK    3  A    between atoms: CG_2  and  CB_4
REMARK    4  A    between atoms: CB_4  and  CA_5
REMARK    5  A    between atoms: CA_5  and  C_6
REMARK    6  A    between atoms: CA_5  and  N_8
REMARK    7  A    between atoms: C_6  and  O_7
REMARK    8  A    between atoms: C_9  and  C_11
REMARK    9  A    between atoms: C_13  and  C_14
REMARK   10  A    between atoms: C_14  and  C_15
REMARK   11  A    between atoms: C_16  and  C_17
REMARK                            x       y       z     vdW  Elec       q    Type
REMARK                         _______ _______ _______ _____ _____    ______ ____
ROOT
ATOM      1  C   UNK A   0       3.482   4.610  18.250  0.00  0.00    +0.000 A 
ATOM      2  C   UNK A   0       4.683   4.094  17.754  0.00  0.00    +0.000 A 
ATOM      3  N   UNK A   0       5.044   3.073  18.614  0.00  0.00    +0.000 N 
ATOM      4  C   UNK A   0       4.148   2.933  19.642  0.00  0.00    +0.000 A 
ATOM      5  C   UNK A   0       4.149   2.056  20.731  0.00  0.00    +0.000 A 
ATOM      6  F   UNK A   0       5.148   1.183  20.905  0.00  0.00    +0.000 F 
ATOM      7  C   UNK A   0       3.098   2.102  21.638  0.00  0.00    +0.000 A 
ATOM      8  C   UNK A   0       2.072   3.013  21.442  0.00  0.00    +0.000 A 
ATOM      9  F   UNK A   0       1.046   3.039  22.305  0.00  0.00    +0.000 F 
ATOM     10  C   UNK A   0       2.075   3.905  20.367  0.00  0.00    +0.000 A 
ATOM     11  C   UNK A   0       3.141   3.868  19.439  0.00  0.00    +0.000 A 
ATOM     12  H   UNK A   0       5.862   2.490  18.507  0.00  0.00    +0.000 HD
ENDROOT
BRANCH   2  13
ATOM     13  C   UNK A   0       5.516   4.444  16.587  0.00  0.00    +0.000 A 
ATOM     14  C   UNK A   0       6.657   5.249  16.728  0.00  0.00    +0.000 A 
ATOM     15  C   UNK A   0       7.462   5.558  15.624  0.00  0.00    +0.000 A 
ATOM     16  C   UNK A   0       7.131   5.072  14.365  0.00  0.00    +0.000 A 
ATOM     17  F   UNK A   0       7.902   5.364  13.311  0.00  0.00    +0.000 F 
ATOM     18  C   UNK A   0       6.008   4.286  14.191  0.00  0.00    +0.000 A 
ATOM     19  C   UNK A   0       5.217   3.977  15.300  0.00  0.00    +0.000 A 
ENDBRANCH   2  13
BRANCH   1  20
ATOM     20  C   UNK A   0       2.685   5.763  17.715  0.00  0.00    +0.000 C 
BRANCH  20  23
ATOM     21  C   UNK A   0       1.354   8.335  18.560  0.00  0.00    +0.000 C 
ATOM     22  C   UNK A   0       2.619   8.411  17.668  0.00  0.00    +0.000 C 
ATOM     23  C   UNK A   0       3.087   7.101  18.338  0.00  0.00    +0.000 C 
ATOM     24  C   UNK A   0       2.221   7.518  19.553  0.00  0.00    +0.000 C 
BRANCH  21  26
ATOM     25  N   LEU A   1       0.624   9.731  20.403  0.00  0.00    +0.000 N 
ATOM     26  C   UNK A   0       0.767   9.667  19.037  0.00  0.00    +0.000 C 
ATOM     27  O   UNK A   0       0.405  10.587  18.301  0.00  0.00    +0.000 OA
ATOM     28  H   LEU A   1       0.767   8.885  20.941  0.00  0.00    +0.000 HD
BRANCH  25  29
ATOM     29  CA  LEU A   1      -0.008  10.871  21.050  0.00  0.00    +0.000 C 
BRANCH  29  30
ATOM     30  CB  LEU A   1       0.963  12.059  21.056  0.00  0.00    +0.000 C 
BRANCH  30  32
ATOM     31  CD1 LEU A   1       1.176  14.258  19.762  0.00  0.00    +0.000 C 
ATOM     32  CG  LEU A   1       0.308  13.414  20.697  0.00  0.00    +0.000 C 
ATOM     33  CD2 LEU A   1      -1.066  13.173  20.070  0.00  0.00    +0.000 C 
ENDBRANCH  30  32
ENDBRANCH  29  30
BRANCH  29  34
ATOM     34  C   LEU A   1      -0.460  10.498  22.479  0.00  0.00    +0.000 C 
BRANCH  34  35
ATOM     35  O   LEU A   1       0.578   9.896  23.252  0.00  0.00    +0.000 OA
ATOM     36  H   LEU A   1       1.403   9.902  22.722  0.00  0.00    +0.000 HD
ENDBRANCH  34  35
ENDBRANCH  29  34
ENDBRANCH  25  29
ENDBRANCH  21  26
ENDBRANCH  20  23
ENDBRANCH   1  20
TORSDOF 9
ENDMDL
MODEL 7
REMARK VINA RESULT:      -7.8      1.227      1.753
REMARK  Name = 
REMARK  11 active torsions:
REMARK  status: ('A' for Active; 'I' for Inactive)
REMARK    1  A    between atoms: CD1_1  and  CG_2
REMARK    2  A    between atoms: CG_2  and  CD2_3
REMARK    3  A    between atoms: CG_2  and  CB_4
REMARK    4  A    between atoms: CB_4  and  CA_5
REMARK    5  A    between atoms: CA_5  and  C_6
REMARK    6  A    between atoms: CA_5  and  N_8
REMARK    7  A    between atoms: C_6  and  O_7
REMARK    8  A    between atoms: C_9  and  C_11
REMARK    9  A    between atoms: C_13  and  C_14
REMARK   10  A    between atoms: C_14  and  C_15
REMARK   11  A    between atoms: C_16  and  C_17
REMARK                            x       y       z     vdW  Elec       q    Type
REMARK                         _______ _______ _______ _____ _____    ______ ____
ROOT
ATOM      1  C   UNK A   0       3.484   4.577  18.262  0.00  0.00    +0.000 A 
ATOM      2  C   UNK A   0       4.694   4.061  17.790  0.00  0.00    +0.000 A 
ATOM      3  N   UNK A   0       5.044   3.048  18.663  0.00  0.00    +0.000 N 
ATOM      4  C   UNK A   0       4.132   2.912  19.677  0.00  0.00    +0.000 A 
ATOM      5  C   UNK A   0       4.119   2.043  20.772  0.00  0.00    +0.000 A 
ATOM      6  F   UNK A   0       5.118   1.175  20.969  0.00  0.00    +0.000 F 
ATOM      7  C   UNK A   0       3.052   2.091  21.660  0.00  0.00    +0.000 A 
ATOM      8  C   UNK A   0       2.026   2.997  21.442  0.00  0.00    +0.000 A 
ATOM      9  F   UNK A   0       0.986   3.025  22.287  0.00  0.00    +0.000 F 
ATOM     10  C   UNK A   0       2.045   3.882  20.360  0.00  0.00    +0.000 A 
ATOM     11  C   UNK A   0       3.126   3.842  19.450  0.00  0.00    +0.000 A 
ATOM     12  H   UNK A   0       5.866   2.468  18.574  0.00  0.00    +0.000 HD
ENDROOT
BRANCH   2  13
ATOM     13  C   UNK A   0       5.546   4.407  16.634  0.00  0.00    +0.000 A 
ATOM     14  C   UNK A   0       5.509   3.647  15.455  0.00  0.00    +0.000 A 
ATOM     15  C   UNK A   0       6.297   3.993  14.350  0.00  0.00    +0.000 A 
ATOM     16  C   UNK A   0       7.138   5.097  14.414  0.00  0.00    +0.000 A 
ATOM     17  F   UNK A   0       7.887   5.429  13.357  0.00  0.00    +0.000 F 
ATOM     18  C   UNK A   0       7.205   5.859  15.564  0.00  0.00    +0.000 A 
ATOM     19  C   UNK A   0       6.408   5.512  16.657  0.00  0.00    +0.000 A 
ENDBRANCH   2  13
BRANCH   1  20
ATOM     20  C   UNK A   0       2.691   5.723  17.706  0.00  0.00    +0.000 C 
BRANCH  20  23
ATOM     21  C   UNK A   0       1.368   8.291  18.574  0.00  0.00    +0.000 C 
ATOM     22  C   UNK A   0       2.598   8.369  17.633  0.00  0.00    +0.000 C 
ATOM     23  C   UNK A   0       3.103   7.071  18.299  0.00  0.00    +0.000 C 
ATOM     24  C   UNK A   0       2.280   7.493  19.541  0.00  0.00    +0.000 C 
BRANCH  21  26
ATOM     25  N   LEU A   1       0.619   9.669  20.422  0.00  0.00    +0.000 N 
ATOM     26  C   UNK A   0       0.787   9.623  19.058  0.00  0.00    +0.000 C 
ATOM     27  O   UNK A   0       0.448  10.557  18.329  0.00  0.00    +0.000 OA
ATOM     28  H   LEU A   1       0.743   8.814  20.950  0.00  0.00    +0.000 HD
BRANCH  25  29
ATOM     29  CA  LEU A   1      -0.013  10.806  21.074  0.00  0.00    +0.000 C 
BRANCH  29  30
ATOM     30  CB  LEU A   1       0.988  11.966  21.163  0.00  0.00    +0.000 C 
BRANCH  30  32
ATOM     31  CD1 LEU A   1      -1.006  13.218  20.157  0.00  0.00    +0.000 C 
ATOM     32  CG  LEU A   1       0.428  13.325  20.678  0.00  0.00    +0.000 C 
ATOM     33  CD2 LEU A   1       0.506  14.349  21.811  0.00  0.00    +0.000 C 
ENDBRANCH  30  32
ENDBRANCH  29  30
BRANCH  29  34
ATOM     34  C   LEU A   1      -0.544  10.405  22.467  0.00  0.00    +0.000 C 
BRANCH  34  35
ATOM     35  O   LEU A   1       0.475   9.891  23.324  0.00  0.00    +0.000 OA
ATOM     36  H   LEU A   1       0.791  10.619  23.900  0.00  0.00    +0.000 HD
ENDBRANCH  34  35
ENDBRANCH  29  34
ENDBRANCH  25  29
ENDBRANCH  21  26
ENDBRANCH  20  23
ENDBRANCH   1  20
TORSDOF 9
ENDMDL
MODEL 8
REMARK VINA RESULT:      -7.7      1.687      2.209
REMARK  Name = 
REMARK  11 active torsions:
REMARK  status: ('A' for Active; 'I' for Inactive)
REMARK    1  A    between atoms: CD1_1  and  CG_2
REMARK    2  A    between atoms: CG_2  and  CD2_3
REMARK    3  A    between atoms: CG_2  and  CB_4
REMARK    4  A    between atoms: CB_4  and  CA_5
REMARK    5  A    between atoms: CA_5  and  C_6
REMARK    6  A    between atoms: CA_5  and  N_8
REMARK    7  A    between atoms: C_6  and  O_7
REMARK    8  A    between atoms: C_9  and  C_11
REMARK    9  A    between atoms: C_13  and  C_14
REMARK   10  A    between atoms: C_14  and  C_15
REMARK   11  A    between atoms: C_16  and  C_17
REMARK                            x       y       z     vdW  Elec       q    Type
REMARK                         _______ _______ _______ _____ _____    ______ ____
ROOT
ATOM      1  C   UNK A   0       4.433   5.077  17.710  0.00  0.00    +0.000 A 
ATOM      2  C   UNK A   0       4.935   4.170  16.773  0.00  0.00    +0.000 A 
ATOM      3  N   UNK A   0       4.590   2.913  17.236  0.00  0.00    +0.000 N 
ATOM      4  C   UNK A   0       3.918   2.977  18.429  0.00  0.00    +0.000 A 
ATOM      5  C   UNK A   0       3.422   1.956  19.244  0.00  0.00    +0.000 A 
ATOM      6  F   UNK A   0       3.592   0.671  18.911  0.00  0.00    +0.000 F 
ATOM      7  C   UNK A   0       2.749   2.289  20.413  0.00  0.00    +0.000 A 
ATOM      8  C   UNK A   0       2.583   3.625  20.743  0.00  0.00    +0.000 A 
ATOM      9  F   UNK A   0       1.912   3.945  21.859  0.00  0.00    +0.000 F 
ATOM     10  C   UNK A   0       3.094   4.650  19.942  0.00  0.00    +0.000 A 
ATOM     11  C   UNK A   0       3.782   4.321  18.751  0.00  0.00    +0.000 A 
ATOM     12  H   UNK A   0       4.797   2.046  16.761  0.00  0.00    +0.000 HD
ENDROOT
BRANCH   2  13
ATOM     13  C   UNK A   0       5.690   4.344  15.516  0.00  0.00    +0.000 A 
ATOM     14  C   UNK A   0       5.242   3.769  14.317  0.00  0.00    +0.000 A 
ATOM     15  C   UNK A   0       5.945   3.959  13.121  0.00  0.00    +0.000 A 
ATOM     16  C   UNK A   0       7.109   4.717  13.111  0.00  0.00    +0.000 A 
ATOM     17  F   UNK A   0       7.778   4.901  11.967  0.00  0.00    +0.000 F 
ATOM     18  C   UNK A   0       7.582   5.287  14.277  0.00  0.00    +0.000 A 
ATOM     19  C   UNK A   0       6.869   5.100  15.463  0.00  0.00    +0.000 A 
ENDBRANCH   2  13
BRANCH   1  20
ATOM     20  C   UNK A   0       4.569   6.571  17.709  0.00  0.00    +0.000 C 
BRANCH  20  23
ATOM     21  C   UNK A   0       2.289   8.257  18.741  0.00  0.00    +0.000 C 
ATOM     22  C   UNK A   0       1.966   7.047  17.828  0.00  0.00    +0.000 C 
ATOM     23  C   UNK A   0       3.334   7.279  17.151  0.00  0.00    +0.000 C 
ATOM     24  C   UNK A   0       3.200   8.758  17.590  0.00  0.00    +0.000 C 
BRANCH  21  26
ATOM     25  N   LEU A   1       1.052   9.335  20.524  0.00  0.00    +0.000 N 
ATOM     26  C   UNK A   0       1.108   9.134  19.166  0.00  0.00    +0.000 C 
ATOM     27  O   UNK A   0       0.252   9.588  18.405  0.00  0.00    +0.000 OA
ATOM     28  H   LEU A   1       1.670   8.794  21.116  0.00  0.00    +0.000 HD
BRANCH  25  29
ATOM     29  CA  LEU A   1      -0.051  10.055  21.143  0.00  0.00    +0.000 C 
BRANCH  29  30
ATOM     30  CB  LEU A   1       0.359  11.516  21.375  0.00  0.00    +0.000 C 
BRANCH  30  32
ATOM     31  CD1 LEU A   1       0.491  12.859  19.200  0.00  0.00    +0.000 C 
ATOM     32  CG  LEU A   1      -0.343  12.528  20.438  0.00  0.00    +0.000 C 
ATOM     33  CD2 LEU A   1      -1.712  11.984  20.026  0.00  0.00    +0.000 C 
ENDBRANCH  30  32
ENDBRANCH  29  30
BRANCH  29  34
ATOM     34  C   LEU A   1      -0.475   9.368  22.459  0.00  0.00    +0.000 C 
BRANCH  34  35
ATOM     35  O   LEU A   1       0.209   9.882  23.602  0.00  0.00    +0.000 OA
ATOM     36  H   LEU A   1      -0.374   9.780  24.383  0.00  0.00    +0.000 HD
ENDBRANCH  34  35
ENDBRANCH  29  34
ENDBRANCH  25  29
ENDBRANCH  21  26
ENDBRANCH  20  23
ENDBRANCH   1  20
TORSDOF 9
ENDMDL
MODEL 9
REMARK VINA RESULT:      -7.7      1.668      2.347
REMARK  Name = 
REMARK  11 active torsions:
REMARK  status: ('A' for Active; 'I' for Inactive)
REMARK    1  A    between atoms: CD1_1  and  CG_2
REMARK    2  A    between atoms: CG_2  and  CD2_3
REMARK    3  A    between atoms: CG_2  and  CB_4
REMARK    4  A    between atoms: CB_4  and  CA_5
REMARK    5  A    between atoms: CA_5  and  C_6
REMARK    6  A    between atoms: CA_5  and  N_8
REMARK    7  A    between atoms: C_6  and  O_7
REMARK    8  A    between atoms: C_9  and  C_11
REMARK    9  A    between atoms: C_13  and  C_14
REMARK   10  A    between atoms: C_14  and  C_15
REMARK   11  A    between atoms: C_16  and  C_17
REMARK                            x       y       z     vdW  Elec       q    Type
REMARK                         _______ _______ _______ _____ _____    ______ ____
ROOT
ATOM      1  C   UNK A   0       4.388   5.086  17.738  0.00  0.00    +0.000 A 
ATOM      2  C   UNK A   0       4.896   4.191  16.793  0.00  0.00    +0.000 A 
ATOM      3  N   UNK A   0       4.570   2.927  17.249  0.00  0.00    +0.000 N 
ATOM      4  C   UNK A   0       3.905   2.975  18.447  0.00  0.00    +0.000 A 
ATOM      5  C   UNK A   0       3.427   1.942  19.259  0.00  0.00    +0.000 A 
ATOM      6  F   UNK A   0       3.612   0.661  18.917  0.00  0.00    +0.000 F 
ATOM      7  C   UNK A   0       2.757   2.260  20.434  0.00  0.00    +0.000 A 
ATOM      8  C   UNK A   0       2.576   3.591  20.773  0.00  0.00    +0.000 A 
ATOM      9  F   UNK A   0       1.908   3.895  21.895  0.00  0.00    +0.000 F 
ATOM     10  C   UNK A   0       3.069   4.627  19.975  0.00  0.00    +0.000 A 
ATOM     11  C   UNK A   0       3.754   4.315  18.778  0.00  0.00    +0.000 A 
ATOM     12  H   UNK A   0       4.785   2.066  16.768  0.00  0.00    +0.000 HD
ENDROOT
BRANCH   2  13
ATOM     13  C   UNK A   0       5.641   4.383  15.532  0.00  0.00    +0.000 A 
ATOM     14  C   UNK A   0       6.829   5.128  15.501  0.00  0.00    +0.000 A 
ATOM     15  C   UNK A   0       7.549   5.285  14.309  0.00  0.00    +0.000 A 
ATOM     16  C   UNK A   0       7.085   4.707  13.135  0.00  0.00    +0.000 A 
ATOM     17  F   UNK A   0       7.775   4.854  11.998  0.00  0.00    +0.000 F 
ATOM     18  C   UNK A   0       5.912   3.976  13.130  0.00  0.00    +0.000 A 
ATOM     19  C   UNK A   0       5.207   3.818  14.325  0.00  0.00    +0.000 A 
ENDBRANCH   2  13
BRANCH   1  20
ATOM     20  C   UNK A   0       4.505   6.582  17.746  0.00  0.00    +0.000 C 
BRANCH  20  23
ATOM     21  C   UNK A   0       2.256   8.284  18.816  0.00  0.00    +0.000 C 
ATOM     22  C   UNK A   0       1.906   7.056  17.936  0.00  0.00    +0.000 C 
ATOM     23  C   UNK A   0       3.252   7.277  17.213  0.00  0.00    +0.000 C 
ATOM     24  C   UNK A   0       3.129   8.765  17.628  0.00  0.00    +0.000 C 
BRANCH  21  26
ATOM     25  N   LEU A   1       0.984   9.273  20.627  0.00  0.00    +0.000 N 
ATOM     26  C   UNK A   0       1.087   9.167  19.261  0.00  0.00    +0.000 C 
ATOM     27  O   UNK A   0       0.274   9.704  18.504  0.00  0.00    +0.000 OA
ATOM     28  H   LEU A   1       1.563   8.671  21.200  0.00  0.00    +0.000 HD
BRANCH  25  29
ATOM     29  CA  LEU A   1      -0.118   9.984  21.257  0.00  0.00    +0.000 C 
BRANCH  29  30
ATOM     30  CB  LEU A   1       0.234  11.474  21.372  0.00  0.00    +0.000 C 
BRANCH  30  32
ATOM     31  CD1 LEU A   1      -0.406  13.754  22.343  0.00  0.00    +0.000 C 
ATOM     32  CG  LEU A   1      -0.882  12.342  22.002  0.00  0.00    +0.000 C 
ATOM     33  CD2 LEU A   1      -2.084  12.401  21.057  0.00  0.00    +0.000 C 
ENDBRANCH  30  32
ENDBRANCH  29  30
BRANCH  29  34
ATOM     34  C   LEU A   1      -0.443   9.368  22.634  0.00  0.00    +0.000 C 
BRANCH  34  35
ATOM     35  O   LEU A   1       0.540   9.668  23.625  0.00  0.00    +0.000 OA
ATOM     36  H   LEU A   1       0.995  10.498  23.368  0.00  0.00    +0.000 HD
ENDBRANCH  34  35
ENDBRANCH  29  34
ENDBRANCH  25  29
ENDBRANCH  21  26
ENDBRANCH  20  23
ENDBRANCH   1  20
TORSDOF 9
ENDMDL
