MODEL 1
REMARK VINA RESULT:      -5.0      0.000      0.000
REMARK  Name = 
REMARK  10 active torsions:
REMARK  status: ('A' for Active; 'I' for Inactive)
REMARK    1  A    between atoms: C_1  and  C_2
REMARK    2  A    between atoms: C_2  and  C_3
REMARK    3  A    between atoms: C_3  and  C_4
REMARK    4  A    between atoms: C_4  and  C_5
REMARK    5  A    between atoms: C_5  and  C_6
REMARK    6  A    between atoms: C_6  and  C_7
REMARK    7  A    between atoms: C_7  and  C_8
REMARK    8  A    between atoms: C_8  and  P_9
REMARK    9  A    between atoms: P_9  and  O_11
REMARK   10  A    between atoms: P_9  and  O_12
REMARK                            x       y       z     vdW  Elec       q    Type
REMARK                         _______ _______ _______ _____ _____    ______ ____
ROOT
ATOM      1  C   UNL     1       4.604   4.356  18.524  0.00  0.00    +0.000 C 
ENDROOT
BRANCH   1   2
ATOM      2  C   UNL     1       4.328   2.912  18.916  0.00  0.00    +0.000 C 
BRANCH   2   3
ATOM      3  C   UNL     1       3.197   2.331  18.074  0.00  0.00    +0.000 C 
BRANCH   3   4
ATOM      4  C   UNL     1       1.976   3.245  18.091  0.00  0.00    +0.000 C 
BRANCH   4   5
ATOM      5  C   UNL     1       0.920   2.723  19.061  0.00  0.00    +0.000 C 
BRANCH   5   7
ATOM      6  C   UNL     1       1.555   2.740  21.490  0.00  0.00    +0.000 C 
ATOM      7  C   UNL     1       0.925   3.531  20.357  0.00  0.00    +0.000 C 
ENDBRANCH   5   7
ENDBRANCH   4   5
ENDBRANCH   3   4
ENDBRANCH   2   3
ENDBRANCH   1   2
BRANCH   1   8
ATOM      8  C   UNL     1       6.080   4.697  18.677  0.00  0.00    +0.000 C 
BRANCH   8   9
ATOM      9  P   UNL     1       6.791   5.210  17.072  0.00  0.00    +0.000 P 
ATOM     10  O   UNL     1       7.333   6.497  17.689  0.00  0.00    +0.000 OA
BRANCH   9  11
ATOM     11  O   UNL     1       8.009   4.131  17.241  0.00  0.00    +0.000 OA
ATOM     12  H   UNL     1       8.742   4.537  17.753  0.00  0.00    +0.000 HD
ENDBRANCH   9  11
BRANCH   9  13
ATOM     13  O   UNL     1       7.464   5.696  15.553  0.00  0.00    +0.000 OA
ATOM     14  H   UNL     1       7.083   6.582  15.384  0.00  0.00    +0.000 HD
ENDBRANCH   9  13
ENDBRANCH   8   9
ENDBRANCH   1   8
TORSDOF 9
ENDMDL
MODEL 2
REMARK VINA RESULT:      -5.0      1.769      2.397
REMARK  Name = 
REMARK  10 active torsions:
REMARK  status: ('A' for Active; 'I' for Inactive)
REMARK    1  A    between atoms: C_1  and  C_2
REMARK    2  A    between atoms: C_2  and  C_3
REMARK    3  A    between atoms: C_3  and  C_4
REMARK    4  A    between atoms: C_4  and  C_5
REMARK    5  A    between atoms: C_5  and  C_6
REMARK    6  A    between atoms: C_6  and  C_7
REMARK    7  A    between atoms: C_7  and  C_8
REMARK    8  A    between atoms: C_8  and  P_9
REMARK    9  A    between atoms: P_9  and  O_11
REMARK   10  A    between atoms: P_9  and  O_12
REMARK                            x       y       z     vdW  Elec       q    Type
REMARK                         _______ _______ _______ _____ _____    ______ ____
ROOT
ATOM      1  C   UNL     1       3.328   5.667  17.771  0.00  0.00    +0.000 C 
ENDROOT
BRANCH   1   2
ATOM      2  C   UNL     1       1.978   4.969  17.839  0.00  0.00    +0.000 C 
BRANCH   2   3
ATOM      3  C   UNL     1       2.157   3.457  17.934  0.00  0.00    +0.000 C 
BRANCH   3   4
ATOM      4  C   UNL     1       1.362   2.883  19.102  0.00  0.00    +0.000 C 
BRANCH   4   5
ATOM      5  C   UNL     1       1.001   3.976  20.104  0.00  0.00    +0.000 C 
BRANCH   5   7
ATOM      6  C   UNL     1       2.406   2.577  21.644  0.00  0.00    +0.000 C 
ATOM      7  C   UNL     1       1.982   3.988  21.274  0.00  0.00    +0.000 C 
ENDBRANCH   5   7
ENDBRANCH   4   5
ENDBRANCH   3   4
ENDBRANCH   2   3
ENDBRANCH   1   2
BRANCH   1   8
ATOM      8  C   UNL     1       4.457   4.666  17.566  0.00  0.00    +0.000 C 
BRANCH   8   9
ATOM      9  P   UNL     1       5.793   4.947  18.785  0.00  0.00    +0.000 P 
ATOM     10  O   UNL     1       5.219   3.873  19.706  0.00  0.00    +0.000 OA
BRANCH   9  11
ATOM     11  O   UNL     1       6.858   4.146  17.835  0.00  0.00    +0.000 OA
ATOM     12  H   UNL     1       6.378   3.698  17.105  0.00  0.00    +0.000 HD
ENDBRANCH   9  11
BRANCH   9  13
ATOM     13  O   UNL     1       7.056   5.211  19.937  0.00  0.00    +0.000 OA
ATOM     14  H   UNL     1       7.648   4.436  19.841  0.00  0.00    +0.000 HD
ENDBRANCH   9  13
ENDBRANCH   8   9
ENDBRANCH   1   8
TORSDOF 9
ENDMDL
MODEL 3
REMARK VINA RESULT:      -5.0      0.892      1.386
REMARK  Name = 
REMARK  10 active torsions:
REMARK  status: ('A' for Active; 'I' for Inactive)
REMARK    1  A    between atoms: C_1  and  C_2
REMARK    2  A    between atoms: C_2  and  C_3
REMARK    3  A    between atoms: C_3  and  C_4
REMARK    4  A    between atoms: C_4  and  C_5
REMARK    5  A    between atoms: C_5  and  C_6
REMARK    6  A    between atoms: C_6  and  C_7
REMARK    7  A    between atoms: C_7  and  C_8
REMARK    8  A    between atoms: C_8  and  P_9
REMARK    9  A    between atoms: P_9  and  O_11
REMARK   10  A    between atoms: P_9  and  O_12
REMARK                            x       y       z     vdW  Elec       q    Type
REMARK                         _______ _______ _______ _____ _____    ______ ____
ROOT
ATOM      1  C   UNL     1       4.900   5.396  19.058  0.00  0.00    +0.000 C 
ENDROOT
BRANCH   1   2
ATOM      2  C   UNL     1       4.007   4.701  18.041  0.00  0.00    +0.000 C 
BRANCH   2   3
ATOM      3  C   UNL     1       2.652   5.395  17.951  0.00  0.00    +0.000 C 
BRANCH   3   4
ATOM      4  C   UNL     1       1.545   4.395  17.635  0.00  0.00    +0.000 C 
BRANCH   4   5
ATOM      5  C   UNL     1       1.903   3.005  18.152  0.00  0.00    +0.000 C 
BRANCH   5   7
ATOM      6  C   UNL     1       1.056   3.268  20.501  0.00  0.00    +0.000 C 
ATOM      7  C   UNL     1       0.883   2.529  19.185  0.00  0.00    +0.000 C 
ENDBRANCH   5   7
ENDBRANCH   4   5
ENDBRANCH   3   4
ENDBRANCH   2   3
ENDBRANCH   1   2
BRANCH   1   8
ATOM      8  C   UNL     1       6.357   4.992  18.879  0.00  0.00    +0.000 C 
BRANCH   8   9
ATOM      9  P   UNL     1       6.906   5.308  17.162  0.00  0.00    +0.000 P 
ATOM     10  O   UNL     1       7.590   6.604  17.588  0.00  0.00    +0.000 OA
BRANCH   9  11
ATOM     11  O   UNL     1       8.069   4.166  17.300  0.00  0.00    +0.000 OA
ATOM     12  H   UNL     1       8.934   4.595  17.482  0.00  0.00    +0.000 HD
ENDBRANCH   9  11
BRANCH   9  13
ATOM     13  O   UNL     1       7.425   5.607  15.539  0.00  0.00    +0.000 OA
ATOM     14  H   UNL     1       7.612   6.568  15.511  0.00  0.00    +0.000 HD
ENDBRANCH   9  13
ENDBRANCH   8   9
ENDBRANCH   1   8
TORSDOF 9
ENDMDL
MODEL 4
REMARK VINA RESULT:      -5.0      1.627      2.045
REMARK  Name = 
REMARK  10 active torsions:
REMARK  status: ('A' for Active; 'I' for Inactive)
REMARK    1  A    between atoms: C_1  and  C_2
REMARK    2  A    between atoms: C_2  and  C_3
REMARK    3  A    between atoms: C_3  and  C_4
REMARK    4  A    between atoms: C_4  and  C_5
REMARK    5  A    between atoms: C_5  and  C_6
REMARK    6  A    between atoms: C_6  and  C_7
REMARK    7  A    between atoms: C_7  and  C_8
REMARK    8  A    between atoms: C_8  and  P_9
REMARK    9  A    between atoms: P_9  and  O_11
REMARK   10  A    between atoms: P_9  and  O_12
REMARK                            x       y       z     vdW  Elec       q    Type
REMARK                         _______ _______ _______ _____ _____    ______ ____
ROOT
ATOM      1  C   UNL     1       5.434   4.417  16.965  0.00  0.00    +0.000 C 
ENDROOT
BRANCH   1   2
ATOM      2  C   UNL     1       4.143   3.848  17.535  0.00  0.00    +0.000 C 
BRANCH   2   3
ATOM      3  C   UNL     1       3.086   4.939  17.669  0.00  0.00    +0.000 C 
BRANCH   3   4
ATOM      4  C   UNL     1       1.684   4.339  17.725  0.00  0.00    +0.000 C 
BRANCH   4   5
ATOM      5  C   UNL     1       1.692   3.006  18.466  0.00  0.00    +0.000 C 
BRANCH   5   7
ATOM      6  C   UNL     1       1.542   2.928  20.971  0.00  0.00    +0.000 C 
ATOM      7  C   UNL     1       0.760   3.051  19.675  0.00  0.00    +0.000 C 
ENDBRANCH   5   7
ENDBRANCH   4   5
ENDBRANCH   3   4
ENDBRANCH   2   3
ENDBRANCH   1   2
BRANCH   1   8
ATOM      8  C   UNL     1       5.770   5.761  17.597  0.00  0.00    +0.000 C 
BRANCH   8   9
ATOM      9  P   UNL     1       7.173   5.591  18.760  0.00  0.00    +0.000 P 
ATOM     10  O   UNL     1       6.244   5.060  19.849  0.00  0.00    +0.000 OA
BRANCH   9  11
ATOM     11  O   UNL     1       7.691   4.253  17.974  0.00  0.00    +0.000 OA
ATOM     12  H   UNL     1       6.959   3.602  17.911  0.00  0.00    +0.000 HD
ENDBRANCH   9  11
BRANCH   9  13
ATOM     13  O   UNL     1       8.499   5.431  19.859  0.00  0.00    +0.000 OA
ATOM     14  H   UNL     1       9.293   5.634  19.323  0.00  0.00    +0.000 HD
ENDBRANCH   9  13
ENDBRANCH   8   9
ENDBRANCH   1   8
TORSDOF 9
ENDMDL
MODEL 5
REMARK VINA RESULT:      -5.0      1.231      1.537
REMARK  Name = 
REMARK  10 active torsions:
REMARK  status: ('A' for Active; 'I' for Inactive)
REMARK    1  A    between atoms: C_1  and  C_2
REMARK    2  A    between atoms: C_2  and  C_3
REMARK    3  A    between atoms: C_3  and  C_4
REMARK    4  A    between atoms: C_4  and  C_5
REMARK    5  A    between atoms: C_5  and  C_6
REMARK    6  A    between atoms: C_6  and  C_7
REMARK    7  A    between atoms: C_7  and  C_8
REMARK    8  A    between atoms: C_8  and  P_9
REMARK    9  A    between atoms: P_9  and  O_11
REMARK   10  A    between atoms: P_9  and  O_12
REMARK                            x       y       z     vdW  Elec       q    Type
REMARK                         _______ _______ _______ _____ _____    ______ ____
ROOT
ATOM      1  C   UNL     1       3.942   4.671  18.592  0.00  0.00    +0.000 C 
ENDROOT
BRANCH   1   2
ATOM      2  C   UNL     1       3.626   4.028  17.251  0.00  0.00    +0.000 C 
BRANCH   2   3
ATOM      3  C   UNL     1       2.276   3.319  17.297  0.00  0.00    +0.000 C 
BRANCH   3   4
ATOM      4  C   UNL     1       2.144   2.476  18.561  0.00  0.00    +0.000 C 
BRANCH   4   5
ATOM      5  C   UNL     1       0.826   2.766  19.273  0.00  0.00    +0.000 C 
BRANCH   5   7
ATOM      6  C   UNL     1       2.186   2.791  21.383  0.00  0.00    +0.000 C 
ATOM      7  C   UNL     1       1.071   3.469  20.606  0.00  0.00    +0.000 C 
ENDBRANCH   5   7
ENDBRANCH   4   5
ENDBRANCH   3   4
ENDBRANCH   2   3
ENDBRANCH   1   2
BRANCH   1   8
ATOM      8  C   UNL     1       5.296   4.214  19.118  0.00  0.00    +0.000 C 
BRANCH   8   9
ATOM      9  P   UNL     1       6.600   5.416  18.665  0.00  0.00    +0.000 P 
ATOM     10  O   UNL     1       7.173   5.372  20.079  0.00  0.00    +0.000 OA
BRANCH   9  11
ATOM     11  O   UNL     1       7.420   4.255  17.854  0.00  0.00    +0.000 OA
ATOM     12  H   UNL     1       7.112   3.369  18.144  0.00  0.00    +0.000 HD
ENDBRANCH   9  11
BRANCH   9  13
ATOM     13  O   UNL     1       7.833   6.552  18.236  0.00  0.00    +0.000 OA
ATOM     14  H   UNL     1       8.639   6.009  18.110  0.00  0.00    +0.000 HD
ENDBRANCH   9  13
ENDBRANCH   8   9
ENDBRANCH   1   8
TORSDOF 9
ENDMDL
MODEL 6
REMARK VINA RESULT:      -5.0      1.170      1.473
REMARK  Name = 
REMARK  10 active torsions:
REMARK  status: ('A' for Active; 'I' for Inactive)
REMARK    1  A    between atoms: C_1  and  C_2
REMARK    2  A    between atoms: C_2  and  C_3
REMARK    3  A    between atoms: C_3  and  C_4
REMARK    4  A    between atoms: C_4  and  C_5
REMARK    5  A    between atoms: C_5  and  C_6
REMARK    6  A    between atoms: C_6  and  C_7
REMARK    7  A    between atoms: C_7  and  C_8
REMARK    8  A    between atoms: C_8  and  P_9
REMARK    9  A    between atoms: P_9  and  O_11
REMARK   10  A    between atoms: P_9  and  O_12
REMARK                            x       y       z     vdW  Elec       q    Type
REMARK                         _______ _______ _______ _____ _____    ______ ____
ROOT
ATOM      1  C   UNL     1       4.340   4.273  17.084  0.00  0.00    +0.000 C 
ENDROOT
BRANCH   1   2
ATOM      2  C   UNL     1       3.967   3.104  17.983  0.00  0.00    +0.000 C 
BRANCH   2   3
ATOM      3  C   UNL     1       2.582   2.571  17.630  0.00  0.00    +0.000 C 
BRANCH   3   4
ATOM      4  C   UNL     1       1.491   3.521  18.112  0.00  0.00    +0.000 C 
BRANCH   4   5
ATOM      5  C   UNL     1       0.790   2.963  19.348  0.00  0.00    +0.000 C 
BRANCH   5   7
ATOM      6  C   UNL     1       2.073   2.898  21.505  0.00  0.00    +0.000 C 
ATOM      7  C   UNL     1       1.192   3.740  20.599  0.00  0.00    +0.000 C 
ENDBRANCH   5   7
ENDBRANCH   4   5
ENDBRANCH   3   4
ENDBRANCH   2   3
ENDBRANCH   1   2
BRANCH   1   8
ATOM      8  C   UNL     1       5.747   4.771  17.381  0.00  0.00    +0.000 C 
BRANCH   8   9
ATOM      9  P   UNL     1       6.682   5.021  15.828  0.00  0.00    +0.000 P 
ATOM     10  O   UNL     1       5.457   5.633  15.154  0.00  0.00    +0.000 OA
BRANCH   9  11
ATOM     11  O   UNL     1       7.471   6.296  16.481  0.00  0.00    +0.000 OA
ATOM     12  H   UNL     1       8.440   6.160  16.407  0.00  0.00    +0.000 HD
ENDBRANCH   9  11
BRANCH   9  13
ATOM     13  O   UNL     1       7.566   5.257  14.359  0.00  0.00    +0.000 OA
ATOM     14  H   UNL     1       8.341   4.663  14.437  0.00  0.00    +0.000 HD
ENDBRANCH   9  13
ENDBRANCH   8   9
ENDBRANCH   1   8
TORSDOF 9
ENDMDL
MODEL 7
REMARK VINA RESULT:      -4.9      1.165      1.253
REMARK  Name = 
REMARK  10 active torsions:
REMARK  status: ('A' for Active; 'I' for Inactive)
REMARK    1  A    between atoms: C_1  and  C_2
REMARK    2  A    between atoms: C_2  and  C_3
REMARK    3  A    between atoms: C_3  and  C_4
REMARK    4  A    between atoms: C_4  and  C_5
REMARK    5  A    between atoms: C_5  and  C_6
REMARK    6  A    between atoms: C_6  and  C_7
REMARK    7  A    between atoms: C_7  and  C_8
REMARK    8  A    between atoms: C_8  and  P_9
REMARK    9  A    between atoms: P_9  and  O_11
REMARK   10  A    between atoms: P_9  and  O_12
REMARK                            x       y       z     vdW  Elec       q    Type
REMARK                         _______ _______ _______ _____ _____    ______ ____
ROOT
ATOM      1  C   UNL     1       4.270   5.120  17.549  0.00  0.00    +0.000 C 
ENDROOT
BRANCH   1   2
ATOM      2  C   UNL     1       3.756   3.703  17.340  0.00  0.00    +0.000 C 
BRANCH   2   3
ATOM      3  C   UNL     1       2.236   3.660  17.450  0.00  0.00    +0.000 C 
BRANCH   3   4
ATOM      4  C   UNL     1       1.778   2.430  18.227  0.00  0.00    +0.000 C 
BRANCH   4   5
ATOM      5  C   UNL     1       1.928   2.648  19.729  0.00  0.00    +0.000 C 
BRANCH   5   7
ATOM      6  C   UNL     1       1.948   4.794  21.033  0.00  0.00    +0.000 C 
ATOM      7  C   UNL     1       1.107   3.850  20.190  0.00  0.00    +0.000 C 
ENDBRANCH   5   7
ENDBRANCH   4   5
ENDBRANCH   3   4
ENDBRANCH   2   3
ENDBRANCH   1   2
BRANCH   1   8
ATOM      8  C   UNL     1       5.764   5.127  17.840  0.00  0.00    +0.000 C 
BRANCH   8   9
ATOM      9  P   UNL     1       6.721   5.237  16.284  0.00  0.00    +0.000 P 
ATOM     10  O   UNL     1       7.112   6.681  16.591  0.00  0.00    +0.000 OA
BRANCH   9  11
ATOM     11  O   UNL     1       7.925   4.340  16.935  0.00  0.00    +0.000 OA
ATOM     12  H   UNL     1       7.936   3.450  16.519  0.00  0.00    +0.000 HD
ENDBRANCH   9  11
BRANCH   9  13
ATOM     13  O   UNL     1       7.626   5.341  14.813  0.00  0.00    +0.000 OA
ATOM     14  H   UNL     1       8.222   4.563  14.832  0.00  0.00    +0.000 HD
ENDBRANCH   9  13
ENDBRANCH   8   9
ENDBRANCH   1   8
TORSDOF 9
ENDMDL
MODEL 8
REMARK VINA RESULT:      -4.9      1.232      1.777
REMARK  Name = 
REMARK  10 active torsions:
REMARK  status: ('A' for Active; 'I' for Inactive)
REMARK    1  A    between atoms: C_1  and  C_2
REMARK    2  A    between atoms: C_2  and  C_3
REMARK    3  A    between atoms: C_3  and  C_4
REMARK    4  A    between atoms: C_4  and  C_5
REMARK    5  A    between atoms: C_5  and  C_6
REMARK    6  A    between atoms: C_6  and  C_7
REMARK    7  A    between atoms: C_7  and  C_8
REMARK    8  A    between atoms: C_8  and  P_9
REMARK    9  A    between atoms: P_9  and  O_11
REMARK   10  A    between atoms: P_9  and  O_12
REMARK                            x       y       z     vdW  Elec       q    Type
REMARK                         _______ _______ _______ _____ _____    ______ ____
ROOT
ATOM      1  C   UNL     1       4.236   6.015  17.072  0.00  0.00    +0.000 C 
ENDROOT
BRANCH   1   2
ATOM      2  C   UNL     1       4.025   4.755  17.899  0.00  0.00    +0.000 C 
BRANCH   2   3
ATOM      3  C   UNL     1       2.972   3.858  17.255  0.00  0.00    +0.000 C 
BRANCH   3   4
ATOM      4  C   UNL     1       1.671   3.884  18.049  0.00  0.00    +0.000 C 
BRANCH   4   5
ATOM      5  C   UNL     1       1.910   4.384  19.471  0.00  0.00    +0.000 C 
BRANCH   5   7
ATOM      6  C   UNL     1       1.747   2.901  21.490  0.00  0.00    +0.000 C 
ATOM      7  C   UNL     1       0.968   3.695  20.455  0.00  0.00    +0.000 C 
ENDBRANCH   5   7
ENDBRANCH   4   5
ENDBRANCH   3   4
ENDBRANCH   2   3
ENDBRANCH   1   2
BRANCH   1   8
ATOM      8  C   UNL     1       5.597   6.636  17.352  0.00  0.00    +0.000 C 
BRANCH   8   9
ATOM      9  P   UNL     1       6.902   5.353  17.351  0.00  0.00    +0.000 P 
ATOM     10  O   UNL     1       7.489   5.909  16.056  0.00  0.00    +0.000 OA
BRANCH   9  11
ATOM     11  O   UNL     1       7.709   6.140  18.537  0.00  0.00    +0.000 OA
ATOM     12  H   UNL     1       8.635   6.302  18.256  0.00  0.00    +0.000 HD
ENDBRANCH   9  11
BRANCH   9  13
ATOM     13  O   UNL     1       8.136   4.140  17.350  0.00  0.00    +0.000 OA
ATOM     14  H   UNL     1       7.650   3.291  17.300  0.00  0.00    +0.000 HD
ENDBRANCH   9  13
ENDBRANCH   8   9
ENDBRANCH   1   8
TORSDOF 9
ENDMDL
MODEL 9
REMARK VINA RESULT:      -4.9      1.602      2.396
REMARK  Name = 
REMARK  10 active torsions:
REMARK  status: ('A' for Active; 'I' for Inactive)
REMARK    1  A    between atoms: C_1  and  C_2
REMARK    2  A    between atoms: C_2  and  C_3
REMARK    3  A    between atoms: C_3  and  C_4
REMARK    4  A    between atoms: C_4  and  C_5
REMARK    5  A    between atoms: C_5  and  C_6
REMARK    6  A    between atoms: C_6  and  C_7
REMARK    7  A    between atoms: C_7  and  C_8
REMARK    8  A    between atoms: C_8  and  P_9
REMARK    9  A    between atoms: P_9  and  O_11
REMARK   10  A    between atoms: P_9  and  O_12
REMARK                            x       y       z     vdW  Elec       q    Type
REMARK                         _______ _______ _______ _____ _____    ______ ____
ROOT
ATOM      1  C   UNL     1       4.783   5.462  16.911  0.00  0.00    +0.000 C 
ENDROOT
BRANCH   1   2
ATOM      2  C   UNL     1       4.222   5.498  18.325  0.00  0.00    +0.000 C 
BRANCH   2   3
ATOM      3  C   UNL     1       2.723   5.776  18.304  0.00  0.00    +0.000 C 
BRANCH   3   4
ATOM      4  C   UNL     1       1.946   4.554  17.825  0.00  0.00    +0.000 C 
BRANCH   4   5
ATOM      5  C   UNL     1       1.949   3.457  18.885  0.00  0.00    +0.000 C 
BRANCH   5   7
ATOM      6  C   UNL     1       1.420   3.012  21.299  0.00  0.00    +0.000 C 
ATOM      7  C   UNL     1       1.083   3.852  20.079  0.00  0.00    +0.000 C 
ENDBRANCH   5   7
ENDBRANCH   4   5
ENDBRANCH   3   4
ENDBRANCH   2   3
ENDBRANCH   1   2
BRANCH   1   8
ATOM      8  C   UNL     1       6.276   5.760  16.902  0.00  0.00    +0.000 C 
BRANCH   8   9
ATOM      9  P   UNL     1       6.970   5.618  18.590  0.00  0.00    +0.000 P 
ATOM     10  O   UNL     1       7.830   4.429  18.168  0.00  0.00    +0.000 OA
BRANCH   9  11
ATOM     11  O   UNL     1       7.921   6.924  18.333  0.00  0.00    +0.000 OA
ATOM     12  H   UNL     1       8.214   7.295  19.194  0.00  0.00    +0.000 HD
ENDBRANCH   9  11
BRANCH   9  13
ATOM     13  O   UNL     1       7.626   5.484  20.185  0.00  0.00    +0.000 OA
ATOM     14  H   UNL     1       6.889   5.135  20.729  0.00  0.00    +0.000 HD
ENDBRANCH   9  13
ENDBRANCH   8   9
ENDBRANCH   1   8
TORSDOF 9
ENDMDL
