MODEL 1
REMARK VINA RESULT:      -8.1      0.000      0.000
REMARK  Name = 
REMARK  7 active torsions:
REMARK  status: ('A' for Active; 'I' for Inactive)
REMARK    1  A    between atoms: C_1  and  O_2
REMARK    2  A    between atoms: O_2  and  C_3
REMARK    3  A    between atoms: C_6  and  N_7
REMARK    4  A    between atoms: N_7  and  C_8
REMARK    5  A    between atoms: C_8  and  C_9
REMARK    6  A    between atoms: C_11  and  O_12
REMARK    7  A    between atoms: C_20  and  C_22
REMARK                            x       y       z     vdW  Elec       q    Type
REMARK                         _______ _______ _______ _____ _____    ______ ____
ROOT
ATOM      1  N   UNL     1       3.484   5.804  18.757  0.00  0.00    +0.000 N 
ATOM      2  C   UNL     1       2.690   4.592  18.807  0.00  0.00    +0.000 C 
ATOM      3  O   UNL     1       1.457   4.672  18.727  0.00  0.00    +0.000 OA
ENDROOT
BRANCH   1   7
ATOM      4  C   UNL     1       1.267   9.448  19.023  0.00  0.00    +0.000 A 
ATOM      5  C   UNL     1       1.903   9.094  17.832  0.00  0.00    +0.000 A 
ATOM      6  C   UNL     1       2.583   7.872  17.714  0.00  0.00    +0.000 A 
ATOM      7  C   UNL     1       2.650   6.993  18.799  0.00  0.00    +0.000 A 
ATOM      8  C   UNL     1       2.082   7.399  20.019  0.00  0.00    +0.000 A 
ATOM      9  C   UNL     1       1.385   8.612  20.129  0.00  0.00    +0.000 A 
BRANCH   4  11
ATOM     10  C   UNL     1      -0.716  10.630  18.522  0.00  0.00    +0.000 C 
ATOM     11  O   UNL     1       0.622  10.656  19.013  0.00  0.00    +0.000 OA
ENDBRANCH   4  11
ENDBRANCH   1   7
BRANCH   2  12
ATOM     12  C   UNL     1       3.223   3.242  18.966  0.00  0.00    +0.000 A 
ATOM     13  C   UNL     1       3.007   2.119  18.164  0.00  0.00    +0.000 A 
ATOM     14  C   UNL     1       3.793   1.060  18.666  0.00  0.00    +0.000 A 
ATOM     15  C   UNL     1       4.434   1.583  19.760  0.00  0.00    +0.000 A 
ATOM     16  O   UNL     1       4.082   2.886  19.956  0.00  0.00    +0.000 OA
ENDBRANCH   2  12
BRANCH   1  17
ATOM     17  C   UNL     1       4.946   6.026  19.159  0.00  0.00    +0.000 C 
BRANCH  17  18
ATOM     18  C   UNL     1       6.086   5.170  18.423  0.00  0.00    +0.000 A 
ATOM     19  C   UNL     1       7.325   5.669  18.808  0.00  0.00    +0.000 A 
ATOM     20  C   UNL     1       7.824   6.611  17.919  0.00  0.00    +0.000 A 
ATOM     21  N   UNL     1       7.598   6.636  16.606  0.00  0.00    +0.000 NA
ATOM     22  C   UNL     1       6.837   5.670  16.128  0.00  0.00    +0.000 A 
ATOM     23  C   UNL     1       6.929   5.483  14.761  0.00  0.00    +0.000 A 
ATOM     24  C   UNL     1       6.344   4.390  14.150  0.00  0.00    +0.000 A 
ATOM     25  C   UNL     1       5.645   3.490  14.940  0.00  0.00    +0.000 A 
ATOM     26  C   UNL     1       5.450   3.739  16.321  0.00  0.00    +0.000 A 
ATOM     27  C   UNL     1       6.047   4.866  16.982  0.00  0.00    +0.000 A 
BRANCH  20  28
ATOM     28  O   UNL     1       7.951   7.897  18.323  0.00  0.00    +0.000 OA
ATOM     29  H   UNL     1       8.748   8.121  17.807  0.00  0.00    +0.000 HD
ENDBRANCH  20  28
ENDBRANCH  17  18
ENDBRANCH   1  17
TORSDOF 6
ENDMDL
MODEL 2
REMARK VINA RESULT:      -7.8      0.441      1.010
REMARK  Name = 
REMARK  7 active torsions:
REMARK  status: ('A' for Active; 'I' for Inactive)
REMARK    1  A    between atoms: C_1  and  O_2
REMARK    2  A    between atoms: O_2  and  C_3
REMARK    3  A    between atoms: C_6  and  N_7
REMARK    4  A    between atoms: N_7  and  C_8
REMARK    5  A    between atoms: C_8  and  C_9
REMARK    6  A    between atoms: C_11  and  O_12
REMARK    7  A    between atoms: C_20  and  C_22
REMARK                            x       y       z     vdW  Elec       q    Type
REMARK                         _______ _______ _______ _____ _____    ______ ____
ROOT
ATOM      1  N   UNL     1       3.643   5.855  18.817  0.00  0.00    +0.000 N 
ATOM      2  C   UNL     1       2.758   4.707  18.761  0.00  0.00    +0.000 C 
ATOM      3  O   UNL     1       1.540   4.888  18.632  0.00  0.00    +0.000 OA
ENDROOT
BRANCH   1   7
ATOM      4  C   UNL     1       1.225   9.377  18.889  0.00  0.00    +0.000 A 
ATOM      5  C   UNL     1       1.309   8.555  20.014  0.00  0.00    +0.000 A 
ATOM      6  C   UNL     1       2.146   7.429  20.023  0.00  0.00    +0.000 A 
ATOM      7  C   UNL     1       2.901   7.101  18.892  0.00  0.00    +0.000 A 
ATOM      8  C   UNL     1       2.742   7.885  17.737  0.00  0.00    +0.000 A 
ATOM      9  C   UNL     1       1.920   9.022  17.736  0.00  0.00    +0.000 A 
BRANCH   4  11
ATOM     10  C   UNL     1       0.485  11.175  20.231  0.00  0.00    +0.000 C 
ATOM     11  O   UNL     1       0.389  10.455  19.005  0.00  0.00    +0.000 OA
ENDBRANCH   4  11
ENDBRANCH   1   7
BRANCH   2  12
ATOM     12  C   UNL     1       3.180   3.313  18.865  0.00  0.00    +0.000 A 
ATOM     13  C   UNL     1       2.880   2.246  18.015  0.00  0.00    +0.000 A 
ATOM     14  C   UNL     1       3.573   1.107  18.475  0.00  0.00    +0.000 A 
ATOM     15  C   UNL     1       4.247   1.530  19.592  0.00  0.00    +0.000 A 
ATOM     16  O   UNL     1       4.000   2.848  19.842  0.00  0.00    +0.000 OA
ENDBRANCH   2  12
BRANCH   1  17
ATOM     17  C   UNL     1       5.097   5.939  19.296  0.00  0.00    +0.000 C 
BRANCH  17  18
ATOM     18  C   UNL     1       6.224   5.141  18.479  0.00  0.00    +0.000 A 
ATOM     19  C   UNL     1       7.463   5.681  18.802  0.00  0.00    +0.000 A 
ATOM     20  C   UNL     1       7.875   6.656  17.904  0.00  0.00    +0.000 A 
ATOM     21  N   UNL     1       7.572   6.694  16.607  0.00  0.00    +0.000 NA
ATOM     22  C   UNL     1       6.822   5.708  16.156  0.00  0.00    +0.000 A 
ATOM     23  C   UNL     1       6.842   5.547  14.782  0.00  0.00    +0.000 A 
ATOM     24  C   UNL     1       6.265   4.441  14.185  0.00  0.00    +0.000 A 
ATOM     25  C   UNL     1       5.647   3.502  14.997  0.00  0.00    +0.000 A 
ATOM     26  C   UNL     1       5.523   3.720  16.391  0.00  0.00    +0.000 A 
ATOM     27  C   UNL     1       6.114   4.859  17.037  0.00  0.00    +0.000 A 
BRANCH  20  28
ATOM     28  O   UNL     1       7.975   7.940  18.324  0.00  0.00    +0.000 OA
ATOM     29  H   UNL     1       7.714   7.796  19.253  0.00  0.00    +0.000 HD
ENDBRANCH  20  28
ENDBRANCH  17  18
ENDBRANCH   1  17
TORSDOF 6
ENDMDL
MODEL 3
REMARK VINA RESULT:      -7.7      2.778      6.403
REMARK  Name = 
REMARK  7 active torsions:
REMARK  status: ('A' for Active; 'I' for Inactive)
REMARK    1  A    between atoms: C_1  and  O_2
REMARK    2  A    between atoms: O_2  and  C_3
REMARK    3  A    between atoms: C_6  and  N_7
REMARK    4  A    between atoms: N_7  and  C_8
REMARK    5  A    between atoms: C_8  and  C_9
REMARK    6  A    between atoms: C_11  and  O_12
REMARK    7  A    between atoms: C_20  and  C_22
REMARK                            x       y       z     vdW  Elec       q    Type
REMARK                         _______ _______ _______ _____ _____    ______ ____
ROOT
ATOM      1  N   UNL     1       6.137   4.712  16.218  0.00  0.00    +0.000 N 
ATOM      2  C   UNL     1       6.634   4.770  14.856  0.00  0.00    +0.000 C 
ATOM      3  O   UNL     1       7.580   5.523  14.590  0.00  0.00    +0.000 OA
ENDROOT
BRANCH   1   7
ATOM      4  C   UNL     1       8.199   7.650  18.535  0.00  0.00    +0.000 A 
ATOM      5  C   UNL     1       7.432   8.031  17.433  0.00  0.00    +0.000 A 
ATOM      6  C   UNL     1       6.702   7.082  16.701  0.00  0.00    +0.000 A 
ATOM      7  C   UNL     1       6.746   5.730  17.055  0.00  0.00    +0.000 A 
ATOM      8  C   UNL     1       7.590   5.347  18.111  0.00  0.00    +0.000 A 
ATOM      9  C   UNL     1       8.303   6.299  18.855  0.00  0.00    +0.000 A 
BRANCH   4  11
ATOM     10  C   UNL     1       8.813   9.931  18.528  0.00  0.00    +0.000 C 
ATOM     11  O   UNL     1       8.852   8.665  19.181  0.00  0.00    +0.000 OA
ENDBRANCH   4  11
ENDBRANCH   1   7
BRANCH   2  12
ATOM     12  C   UNL     1       6.095   4.012  13.730  0.00  0.00    +0.000 A 
ATOM     13  C   UNL     1       4.775   3.943  13.279  0.00  0.00    +0.000 A 
ATOM     14  C   UNL     1       4.749   3.148  12.113  0.00  0.00    +0.000 A 
ATOM     15  C   UNL     1       6.050   2.758  11.922  0.00  0.00    +0.000 A 
ATOM     16  O   UNL     1       6.859   3.258  12.900  0.00  0.00    +0.000 OA
ENDBRANCH   2  12
BRANCH   1  17
ATOM     17  C   UNL     1       4.812   4.149  16.745  0.00  0.00    +0.000 C 
BRANCH  17  18
ATOM     18  C   UNL     1       4.585   4.071  18.332  0.00  0.00    +0.000 A 
ATOM     19  C   UNL     1       4.947   2.800  18.763  0.00  0.00    +0.000 A 
ATOM     20  C   UNL     1       3.868   1.929  18.830  0.00  0.00    +0.000 A 
ATOM     21  N   UNL     1       2.609   2.270  19.100  0.00  0.00    +0.000 NA
ATOM     22  C   UNL     1       2.391   3.551  19.328  0.00  0.00    +0.000 A 
ATOM     23  C   UNL     1       1.199   3.829  19.973  0.00  0.00    +0.000 A 
ATOM     24  C   UNL     1       0.926   5.098  20.450  0.00  0.00    +0.000 A 
ATOM     25  C   UNL     1       1.870   6.093  20.250  0.00  0.00    +0.000 A 
ATOM     26  C   UNL     1       3.037   5.842  19.489  0.00  0.00    +0.000 A 
ATOM     27  C   UNL     1       3.347   4.533  18.983  0.00  0.00    +0.000 A 
BRANCH  20  28
ATOM     28  O   UNL     1       3.818   0.876  17.979  0.00  0.00    +0.000 OA
ATOM     29  H   UNL     1       4.761   0.628  18.019  0.00  0.00    +0.000 HD
ENDBRANCH  20  28
ENDBRANCH  17  18
ENDBRANCH   1  17
TORSDOF 6
ENDMDL
MODEL 4
REMARK VINA RESULT:      -7.7      1.057      1.455
REMARK  Name = 
REMARK  7 active torsions:
REMARK  status: ('A' for Active; 'I' for Inactive)
REMARK    1  A    between atoms: C_1  and  O_2
REMARK    2  A    between atoms: O_2  and  C_3
REMARK    3  A    between atoms: C_6  and  N_7
REMARK    4  A    between atoms: N_7  and  C_8
REMARK    5  A    between atoms: C_8  and  C_9
REMARK    6  A    between atoms: C_11  and  O_12
REMARK    7  A    between atoms: C_20  and  C_22
REMARK                            x       y       z     vdW  Elec       q    Type
REMARK                         _______ _______ _______ _____ _____    ______ ____
ROOT
ATOM      1  N   UNL     1       2.888   6.421  18.385  0.00  0.00    +0.000 N 
ATOM      2  C   UNL     1       2.345   5.226  19.003  0.00  0.00    +0.000 C 
ATOM      3  O   UNL     1       1.341   5.320  19.722  0.00  0.00    +0.000 OA
ENDROOT
BRANCH   1   7
ATOM      4  C   UNL     1       0.698   9.829  19.748  0.00  0.00    +0.000 A 
ATOM      5  C   UNL     1       1.119   8.852  20.652  0.00  0.00    +0.000 A 
ATOM      6  C   UNL     1       1.890   7.760  20.225  0.00  0.00    +0.000 A 
ATOM      7  C   UNL     1       2.236   7.622  18.877  0.00  0.00    +0.000 A 
ATOM      8  C   UNL     1       1.733   8.564  17.963  0.00  0.00    +0.000 A 
ATOM      9  C   UNL     1       0.979   9.666  18.394  0.00  0.00    +0.000 A 
BRANCH   4  11
ATOM     10  C   UNL     1      -0.293  10.757  21.681  0.00  0.00    +0.000 C 
ATOM     11  O   UNL     1      -0.033  10.855  20.283  0.00  0.00    +0.000 OA
ENDBRANCH   4  11
ENDBRANCH   1   7
BRANCH   2  12
ATOM     12  C   UNL     1       2.899   3.882  18.866  0.00  0.00    +0.000 A 
ATOM     13  C   UNL     1       2.742   2.978  17.814  0.00  0.00    +0.000 A 
ATOM     14  C   UNL     1       3.527   1.838  18.091  0.00  0.00    +0.000 A 
ATOM     15  C   UNL     1       4.107   2.096  19.306  0.00  0.00    +0.000 A 
ATOM     16  O   UNL     1       3.720   3.312  19.785  0.00  0.00    +0.000 OA
ENDBRANCH   2  12
BRANCH   1  17
ATOM     17  C   UNL     1       4.264   6.647  17.749  0.00  0.00    +0.000 C 
BRANCH  17  18
ATOM     18  C   UNL     1       5.173   5.371  17.406  0.00  0.00    +0.000 A 
ATOM     19  C   UNL     1       6.271   5.373  18.257  0.00  0.00    +0.000 A 
ATOM     20  C   UNL     1       7.383   5.988  17.699  0.00  0.00    +0.000 A 
ATOM     21  N   UNL     1       7.686   6.014  16.402  0.00  0.00    +0.000 NA
ATOM     22  C   UNL     1       6.847   5.391  15.596  0.00  0.00    +0.000 A 
ATOM     23  C   UNL     1       7.358   5.095  14.345  0.00  0.00    +0.000 A 
ATOM     24  C   UNL     1       6.669   4.278  13.469  0.00  0.00    +0.000 A 
ATOM     25  C   UNL     1       5.441   3.773  13.867  0.00  0.00    +0.000 A 
ATOM     26  C   UNL     1       4.862   4.166  15.098  0.00  0.00    +0.000 A 
ATOM     27  C   UNL     1       5.555   5.013  16.028  0.00  0.00    +0.000 A 
BRANCH  20  28
ATOM     28  O   UNL     1       7.834   7.147  18.234  0.00  0.00    +0.000 OA
ATOM     29  H   UNL     1       6.998   7.438  18.643  0.00  0.00    +0.000 HD
ENDBRANCH  20  28
ENDBRANCH  17  18
ENDBRANCH   1  17
TORSDOF 6
ENDMDL
MODEL 5
REMARK VINA RESULT:      -7.7      0.914      1.086
REMARK  Name = 
REMARK  7 active torsions:
REMARK  status: ('A' for Active; 'I' for Inactive)
REMARK    1  A    between atoms: C_1  and  O_2
REMARK    2  A    between atoms: O_2  and  C_3
REMARK    3  A    between atoms: C_6  and  N_7
REMARK    4  A    between atoms: N_7  and  C_8
REMARK    5  A    between atoms: C_8  and  C_9
REMARK    6  A    between atoms: C_11  and  O_12
REMARK    7  A    between atoms: C_20  and  C_22
REMARK                            x       y       z     vdW  Elec       q    Type
REMARK                         _______ _______ _______ _____ _____    ______ ____
ROOT
ATOM      1  N   UNL     1       2.888   6.267  18.406  0.00  0.00    +0.000 N 
ATOM      2  C   UNL     1       2.346   5.034  18.946  0.00  0.00    +0.000 C 
ATOM      3  O   UNL     1       1.259   5.060  19.538  0.00  0.00    +0.000 OA
ENDROOT
BRANCH   1   7
ATOM      4  C   UNL     1       0.871   9.797  19.722  0.00  0.00    +0.000 A 
ATOM      5  C   UNL     1       1.163   9.612  18.369  0.00  0.00    +0.000 A 
ATOM      6  C   UNL     1       1.770   8.431  17.918  0.00  0.00    +0.000 A 
ATOM      7  C   UNL     1       2.112   7.421  18.822  0.00  0.00    +0.000 A 
ATOM      8  C   UNL     1       1.894   7.654  20.191  0.00  0.00    +0.000 A 
ATOM      9  C   UNL     1       1.267   8.827  20.639  0.00  0.00    +0.000 A 
BRANCH   4  11
ATOM     10  C   UNL     1      -0.784  11.386  19.162  0.00  0.00    +0.000 C 
ATOM     11  O   UNL     1       0.262  10.980  20.041  0.00  0.00    +0.000 OA
ENDBRANCH   4  11
ENDBRANCH   1   7
BRANCH   2  12
ATOM     12  C   UNL     1       2.992   3.726  18.870  0.00  0.00    +0.000 A 
ATOM     13  C   UNL     1       3.827   3.112  19.806  0.00  0.00    +0.000 A 
ATOM     14  C   UNL     1       4.145   1.821  19.333  0.00  0.00    +0.000 A 
ATOM     15  C   UNL     1       3.504   1.720  18.124  0.00  0.00    +0.000 A 
ATOM     16  O   UNL     1       2.826   2.867  17.833  0.00  0.00    +0.000 OA
ENDBRANCH   2  12
BRANCH   1  17
ATOM     17  C   UNL     1       4.316   6.580  17.944  0.00  0.00    +0.000 C 
BRANCH  17  18
ATOM     18  C   UNL     1       5.293   5.361  17.580  0.00  0.00    +0.000 A 
ATOM     19  C   UNL     1       6.436   5.468  18.364  0.00  0.00    +0.000 A 
ATOM     20  C   UNL     1       7.466   6.142  17.722  0.00  0.00    +0.000 A 
ATOM     21  N   UNL     1       7.689   6.150  16.409  0.00  0.00    +0.000 NA
ATOM     22  C   UNL     1       6.853   5.444  15.673  0.00  0.00    +0.000 A 
ATOM     23  C   UNL     1       7.310   5.146  14.401  0.00  0.00    +0.000 A 
ATOM     24  C   UNL     1       6.632   4.255  13.591  0.00  0.00    +0.000 A 
ATOM     25  C   UNL     1       5.469   3.677  14.076  0.00  0.00    +0.000 A 
ATOM     26  C   UNL     1       4.936   4.066  15.329  0.00  0.00    +0.000 A 
ATOM     27  C   UNL     1       5.620   4.989  16.192  0.00  0.00    +0.000 A 
BRANCH  20  28
ATOM     28  O   UNL     1       7.862   7.347  18.197  0.00  0.00    +0.000 OA
ATOM     29  H   UNL     1       6.978   7.704  18.406  0.00  0.00    +0.000 HD
ENDBRANCH  20  28
ENDBRANCH  17  18
ENDBRANCH   1  17
TORSDOF 6
ENDMDL
MODEL 6
REMARK VINA RESULT:      -7.6      2.077      6.316
REMARK  Name = 
REMARK  7 active torsions:
REMARK  status: ('A' for Active; 'I' for Inactive)
REMARK    1  A    between atoms: C_1  and  O_2
REMARK    2  A    between atoms: O_2  and  C_3
REMARK    3  A    between atoms: C_6  and  N_7
REMARK    4  A    between atoms: N_7  and  C_8
REMARK    5  A    between atoms: C_8  and  C_9
REMARK    6  A    between atoms: C_11  and  O_12
REMARK    7  A    between atoms: C_20  and  C_22
REMARK                            x       y       z     vdW  Elec       q    Type
REMARK                         _______ _______ _______ _____ _____    ______ ____
ROOT
ATOM      1  N   UNL     1       4.386   5.091  19.019  0.00  0.00    +0.000 N 
ATOM      2  C   UNL     1       3.797   3.767  19.088  0.00  0.00    +0.000 C 
ATOM      3  O   UNL     1       4.196   2.887  18.313  0.00  0.00    +0.000 OA
ENDROOT
BRANCH   1   7
ATOM      4  C   UNL     1       6.966   5.178  15.614  0.00  0.00    +0.000 A 
ATOM      5  C   UNL     1       5.618   5.519  15.487  0.00  0.00    +0.000 A 
ATOM      6  C   UNL     1       4.776   5.552  16.609  0.00  0.00    +0.000 A 
ATOM      7  C   UNL     1       5.270   5.226  17.875  0.00  0.00    +0.000 A 
ATOM      8  C   UNL     1       6.606   4.800  17.977  0.00  0.00    +0.000 A 
ATOM      9  C   UNL     1       7.453   4.787  16.858  0.00  0.00    +0.000 A 
BRANCH   4  11
ATOM     10  C   UNL     1       7.059   4.600  13.325  0.00  0.00    +0.000 C 
ATOM     11  O   UNL     1       7.693   5.197  14.454  0.00  0.00    +0.000 OA
ENDBRANCH   4  11
ENDBRANCH   1   7
BRANCH   2  12
ATOM     12  C   UNL     1       2.731   3.366  20.002  0.00  0.00    +0.000 A 
ATOM     13  C   UNL     1       1.350   3.413  19.803  0.00  0.00    +0.000 A 
ATOM     14  C   UNL     1       0.722   2.848  20.933  0.00  0.00    +0.000 A 
ATOM     15  C   UNL     1       1.750   2.503  21.773  0.00  0.00    +0.000 A 
ATOM     16  O   UNL     1       2.957   2.828  21.227  0.00  0.00    +0.000 OA
ENDBRANCH   2  12
BRANCH   1  17
ATOM     17  C   UNL     1       3.872   6.415  19.598  0.00  0.00    +0.000 C 
BRANCH  17  18
ATOM     18  C   UNL     1       2.317   6.773  19.439  0.00  0.00    +0.000 A 
ATOM     19  C   UNL     1       2.033   6.900  18.085  0.00  0.00    +0.000 A 
ATOM     20  C   UNL     1       2.112   8.212  17.640  0.00  0.00    +0.000 A 
ATOM     21  N   UNL     1       1.846   9.296  18.368  0.00  0.00    +0.000 NA
ATOM     22  C   UNL     1       1.469   9.081  19.614  0.00  0.00    +0.000 A 
ATOM     23  C   UNL     1       0.835  10.152  20.220  0.00  0.00    +0.000 A 
ATOM     24  C   UNL     1       0.216  10.011  21.447  0.00  0.00    +0.000 A 
ATOM     25  C   UNL     1       0.258   8.772  22.068  0.00  0.00    +0.000 A 
ATOM     26  C   UNL     1       1.003   7.706  21.507  0.00  0.00    +0.000 A 
ATOM     27  C   UNL     1       1.656   7.824  20.232  0.00  0.00    +0.000 A 
BRANCH  20  28
ATOM     28  O   UNL     1       3.087   8.554  16.764  0.00  0.00    +0.000 OA
ATOM     29  H   UNL     1       3.844   8.489  17.376  0.00  0.00    +0.000 HD
ENDBRANCH  20  28
ENDBRANCH  17  18
ENDBRANCH   1  17
TORSDOF 6
ENDMDL
MODEL 7
REMARK VINA RESULT:      -7.5      2.039      6.286
REMARK  Name = 
REMARK  7 active torsions:
REMARK  status: ('A' for Active; 'I' for Inactive)
REMARK    1  A    between atoms: C_1  and  O_2
REMARK    2  A    between atoms: O_2  and  C_3
REMARK    3  A    between atoms: C_6  and  N_7
REMARK    4  A    between atoms: N_7  and  C_8
REMARK    5  A    between atoms: C_8  and  C_9
REMARK    6  A    between atoms: C_11  and  O_12
REMARK    7  A    between atoms: C_20  and  C_22
REMARK                            x       y       z     vdW  Elec       q    Type
REMARK                         _______ _______ _______ _____ _____    ______ ____
ROOT
ATOM      1  N   UNL     1       4.422   4.686  18.938  0.00  0.00    +0.000 N 
ATOM      2  C   UNL     1       3.773   3.395  19.066  0.00  0.00    +0.000 C 
ATOM      3  O   UNL     1       4.124   2.467  18.325  0.00  0.00    +0.000 OA
ENDROOT
BRANCH   1   7
ATOM      4  C   UNL     1       6.980   5.134  15.545  0.00  0.00    +0.000 A 
ATOM      5  C   UNL     1       7.522   4.937  16.816  0.00  0.00    +0.000 A 
ATOM      6  C   UNL     1       6.691   4.729  17.928  0.00  0.00    +0.000 A 
ATOM      7  C   UNL     1       5.301   4.733  17.783  0.00  0.00    +0.000 A 
ATOM      8  C   UNL     1       4.766   5.018  16.515  0.00  0.00    +0.000 A 
ATOM      9  C   UNL     1       5.597   5.206  15.400  0.00  0.00    +0.000 A 
BRANCH   4  11
ATOM     10  C   UNL     1       7.429   4.955  13.233  0.00  0.00    +0.000 C 
ATOM     11  O   UNL     1       7.888   5.309  14.535  0.00  0.00    +0.000 OA
ENDBRANCH   4  11
ENDBRANCH   1   7
BRANCH   2  12
ATOM     12  C   UNL     1       2.699   3.081  20.004  0.00  0.00    +0.000 A 
ATOM     13  C   UNL     1       2.795   2.721  21.350  0.00  0.00    +0.000 A 
ATOM     14  C   UNL     1       1.488   2.592  21.866  0.00  0.00    +0.000 A 
ATOM     15  C   UNL     1       0.661   2.860  20.806  0.00  0.00    +0.000 A 
ATOM     16  O   UNL     1       1.382   3.136  19.681  0.00  0.00    +0.000 OA
ENDBRANCH   2  12
BRANCH   1  17
ATOM     17  C   UNL     1       3.975   6.055  19.466  0.00  0.00    +0.000 C 
BRANCH  17  18
ATOM     18  C   UNL     1       2.438   6.482  19.294  0.00  0.00    +0.000 A 
ATOM     19  C   UNL     1       2.165   6.596  17.937  0.00  0.00    +0.000 A 
ATOM     20  C   UNL     1       2.307   7.895  17.468  0.00  0.00    +0.000 A 
ATOM     21  N   UNL     1       2.089   9.004  18.174  0.00  0.00    +0.000 NA
ATOM     22  C   UNL     1       1.699   8.830  19.422  0.00  0.00    +0.000 A 
ATOM     23  C   UNL     1       1.115   9.941  20.006  0.00  0.00    +0.000 A 
ATOM     24  C   UNL     1       0.485   9.852  21.233  0.00  0.00    +0.000 A 
ATOM     25  C   UNL     1       0.468   8.625  21.877  0.00  0.00    +0.000 A 
ATOM     26  C   UNL     1       1.164   7.515  21.339  0.00  0.00    +0.000 A 
ATOM     27  C   UNL     1       1.825   7.578  20.065  0.00  0.00    +0.000 A 
BRANCH  20  28
ATOM     28  O   UNL     1       3.299   8.175  16.590  0.00  0.00    +0.000 OA
ATOM     29  H   UNL     1       2.797   8.019  15.768  0.00  0.00    +0.000 HD
ENDBRANCH  20  28
ENDBRANCH  17  18
ENDBRANCH   1  17
TORSDOF 6
ENDMDL
MODEL 8
REMARK VINA RESULT:      -7.4      2.750      6.514
REMARK  Name = 
REMARK  7 active torsions:
REMARK  status: ('A' for Active; 'I' for Inactive)
REMARK    1  A    between atoms: C_1  and  O_2
REMARK    2  A    between atoms: O_2  and  C_3
REMARK    3  A    between atoms: C_6  and  N_7
REMARK    4  A    between atoms: N_7  and  C_8
REMARK    5  A    between atoms: C_8  and  C_9
REMARK    6  A    between atoms: C_11  and  O_12
REMARK    7  A    between atoms: C_20  and  C_22
REMARK                            x       y       z     vdW  Elec       q    Type
REMARK                         _______ _______ _______ _____ _____    ______ ____
ROOT
ATOM      1  N   UNL     1       5.935   4.354  15.816  0.00  0.00    +0.000 N 
ATOM      2  C   UNL     1       6.494   4.467  14.483  0.00  0.00    +0.000 C 
ATOM      3  O   UNL     1       7.484   5.188  14.301  0.00  0.00    +0.000 OA
ENDROOT
BRANCH   1   7
ATOM      4  C   UNL     1       8.017   7.085  18.360  0.00  0.00    +0.000 A 
ATOM      5  C   UNL     1       7.166   7.560  17.360  0.00  0.00    +0.000 A 
ATOM      6  C   UNL     1       6.431   6.673  16.559  0.00  0.00    +0.000 A 
ATOM      7  C   UNL     1       6.553   5.291  16.738  0.00  0.00    +0.000 A 
ATOM      8  C   UNL     1       7.478   4.823  17.688  0.00  0.00    +0.000 A 
ATOM      9  C   UNL     1       8.196   5.711  18.502  0.00  0.00    +0.000 A 
BRANCH   4  11
ATOM     10  C   UNL     1       8.637   9.357  18.537  0.00  0.00    +0.000 C 
ATOM     11  O   UNL     1       8.667   8.043  19.089  0.00  0.00    +0.000 OA
ENDBRANCH   4  11
ENDBRANCH   1   7
BRANCH   2  12
ATOM     12  C   UNL     1       5.970   3.804  13.291  0.00  0.00    +0.000 A 
ATOM     13  C   UNL     1       6.604   2.878  12.461  0.00  0.00    +0.000 A 
ATOM     14  C   UNL     1       5.679   2.457  11.482  0.00  0.00    +0.000 A 
ATOM     15  C   UNL     1       4.533   3.160  11.753  0.00  0.00    +0.000 A 
ATOM     16  O   UNL     1       4.708   3.984  12.826  0.00  0.00    +0.000 OA
ENDBRANCH   2  12
BRANCH   1  17
ATOM     17  C   UNL     1       4.564   3.826  16.255  0.00  0.00    +0.000 C 
BRANCH  17  18
ATOM     18  C   UNL     1       4.273   3.645  17.822  0.00  0.00    +0.000 A 
ATOM     19  C   UNL     1       3.853   2.339  18.041  0.00  0.00    +0.000 A 
ATOM     20  C   UNL     1       2.470   2.211  18.036  0.00  0.00    +0.000 A 
ATOM     21  N   UNL     1       1.603   3.146  18.421  0.00  0.00    +0.000 NA
ATOM     22  C   UNL     1       2.123   4.282  18.847  0.00  0.00    +0.000 A 
ATOM     23  C   UNL     1       1.262   5.070  19.590  0.00  0.00    +0.000 A 
ATOM     24  C   UNL     1       1.721   6.187  20.263  0.00  0.00    +0.000 A 
ATOM     25  C   UNL     1       3.065   6.511  20.162  0.00  0.00    +0.000 A 
ATOM     26  C   UNL     1       3.925   5.775  19.310  0.00  0.00    +0.000 A 
ATOM     27  C   UNL     1       3.476   4.609  18.601  0.00  0.00    +0.000 A 
BRANCH  20  28
ATOM     28  O   UNL     1       1.877   1.506  17.044  0.00  0.00    +0.000 OA
ATOM     29  H   UNL     1       1.200   2.165  16.799  0.00  0.00    +0.000 HD
ENDBRANCH  20  28
ENDBRANCH  17  18
ENDBRANCH   1  17
TORSDOF 6
ENDMDL
MODEL 9
REMARK VINA RESULT:      -7.4      2.435      6.433
REMARK  Name = 
REMARK  7 active torsions:
REMARK  status: ('A' for Active; 'I' for Inactive)
REMARK    1  A    between atoms: C_1  and  O_2
REMARK    2  A    between atoms: O_2  and  C_3
REMARK    3  A    between atoms: C_6  and  N_7
REMARK    4  A    between atoms: N_7  and  C_8
REMARK    5  A    between atoms: C_8  and  C_9
REMARK    6  A    between atoms: C_11  and  O_12
REMARK    7  A    between atoms: C_20  and  C_22
REMARK                            x       y       z     vdW  Elec       q    Type
REMARK                         _______ _______ _______ _____ _____    ______ ____
ROOT
ATOM      1  N   UNL     1       6.333   4.258  15.641  0.00  0.00    +0.000 N 
ATOM      2  C   UNL     1       6.715   4.422  14.252  0.00  0.00    +0.000 C 
ATOM      3  O   UNL     1       7.638   5.196  13.966  0.00  0.00    +0.000 OA
ENDROOT
BRANCH   1   7
ATOM      4  C   UNL     1       8.060   7.135  18.287  0.00  0.00    +0.000 A 
ATOM      5  C   UNL     1       8.065   5.779  18.618  0.00  0.00    +0.000 A 
ATOM      6  C   UNL     1       7.555   4.819  17.730  0.00  0.00    +0.000 A 
ATOM      7  C   UNL     1       7.014   5.209  16.501  0.00  0.00    +0.000 A 
ATOM      8  C   UNL     1       6.935   6.583  16.216  0.00  0.00    +0.000 A 
ATOM      9  C   UNL     1       7.464   7.541  17.096  0.00  0.00    +0.000 A 
BRANCH   4  11
ATOM     10  C   UNL     1       8.818   9.315  18.788  0.00  0.00    +0.000 C 
ATOM     11  O   UNL     1       8.599   7.976  19.223  0.00  0.00    +0.000 OA
ENDBRANCH   4  11
ENDBRANCH   1   7
BRANCH   2  12
ATOM     12  C   UNL     1       6.080   3.754  13.119  0.00  0.00    +0.000 A 
ATOM     13  C   UNL     1       6.637   2.836  12.225  0.00  0.00    +0.000 A 
ATOM     14  C   UNL     1       5.622   2.405  11.346  0.00  0.00    +0.000 A 
ATOM     15  C   UNL     1       4.501   3.094  11.735  0.00  0.00    +0.000 A 
ATOM     16  O   UNL     1       4.775   3.918  12.786  0.00  0.00    +0.000 OA
ENDBRANCH   2  12
BRANCH   1  17
ATOM     17  C   UNL     1       5.054   3.653  16.233  0.00  0.00    +0.000 C 
BRANCH  17  18
ATOM     18  C   UNL     1       4.503   4.228  17.625  0.00  0.00    +0.000 A 
ATOM     19  C   UNL     1       3.976   3.171  18.357  0.00  0.00    +0.000 A 
ATOM     20  C   UNL     1       2.608   3.021  18.178  0.00  0.00    +0.000 A 
ATOM     21  N   UNL     1       1.746   4.004  17.923  0.00  0.00    +0.000 NA
ATOM     22  C   UNL     1       2.256   5.219  17.847  0.00  0.00    +0.000 A 
ATOM     23  C   UNL     1       1.334   6.243  17.973  0.00  0.00    +0.000 A 
ATOM     24  C   UNL     1       1.743   7.556  18.108  0.00  0.00    +0.000 A 
ATOM     25  C   UNL     1       3.102   7.828  18.097  0.00  0.00    +0.000 A 
ATOM     26  C   UNL     1       4.043   6.799  17.853  0.00  0.00    +0.000 A 
ATOM     27  C   UNL     1       3.648   5.425  17.710  0.00  0.00    +0.000 A 
BRANCH  20  28
ATOM     28  O   UNL     1       2.143   1.915  17.549  0.00  0.00    +0.000 OA
ATOM     29  H   UNL     1       2.531   2.089  16.671  0.00  0.00    +0.000 HD
ENDBRANCH  20  28
ENDBRANCH  17  18
ENDBRANCH   1  17
TORSDOF 6
ENDMDL
