MODEL 1
REMARK VINA RESULT:      -7.2      0.000      0.000
REMARK  Name = 
REMARK  13 active torsions:
REMARK  status: ('A' for Active; 'I' for Inactive)
REMARK    1  A    between atoms: C_1  and  C_2
REMARK    2  A    between atoms: C_2  and  C_3
REMARK    3  A    between atoms: C_2  and  C_4
REMARK    4  A    between atoms: C_2  and  C_5
REMARK    5  A    between atoms: C_7  and  C_8
REMARK    6  A    between atoms: C_8  and  C_9
REMARK    7  A    between atoms: C_8  and  N_15
REMARK    8  A    between atoms: N_18  and  C_19
REMARK    9  A    between atoms: C_28  and  C_29
REMARK   10  A    between atoms: C_29  and  C_30
REMARK   11  A    between atoms: C_29  and  C_31
REMARK   12  A    between atoms: C_29  and  C_32
REMARK   13  A    between atoms: C_33  and  O_34
REMARK                            x       y       z     vdW  Elec       q    Type
REMARK                         _______ _______ _______ _____ _____    ______ ____
ROOT
ATOM      1  C   UNL     1      -1.089  12.393  20.480  0.00  0.00    +0.000 C 
ENDROOT
BRANCH   1   4
ATOM      2  C   UNL     1      -4.606  13.037  21.888  0.00  0.00    +0.000 A 
ATOM      3  C   UNL     1      -3.211  13.018  21.708  0.00  0.00    +0.000 A 
ATOM      4  C   UNL     1      -2.615  12.581  20.526  0.00  0.00    +0.000 A 
ATOM      5  C   UNL     1      -3.465  12.213  19.469  0.00  0.00    +0.000 A 
ATOM      6  C   UNL     1      -4.869  12.348  19.506  0.00  0.00    +0.000 A 
ATOM      7  C   UNL     1      -5.409  12.714  20.759  0.00  0.00    +0.000 A 
BRANCH   2   9
ATOM      8  C   UNL     1      -6.507  12.616  23.606  0.00  0.00    +0.000 C 
ATOM      9  C   UNL     1      -5.181  13.365  23.289  0.00  0.00    +0.000 C 
ATOM     10  C   UNL     1      -5.516  14.868  23.401  0.00  0.00    +0.000 C 
ATOM     11  C   UNL     1      -4.185  12.957  24.392  0.00  0.00    +0.000 C 
ENDBRANCH   2   9
BRANCH   6  12
ATOM     12  C   UNL     1      -5.673  12.014  18.216  0.00  0.00    +0.000 C 
ATOM     13  C   UNL     1      -4.693  11.606  17.099  0.00  0.00    +0.000 C 
ATOM     14  C   UNL     1      -6.724  10.891  18.380  0.00  0.00    +0.000 C 
ATOM     15  C   UNL     1      -6.494  13.233  17.695  0.00  0.00    +0.000 C 
ENDBRANCH   6  12
BRANCH   7  16
ATOM     16  O   UNL     1      -6.767  12.709  20.930  0.00  0.00    +0.000 OA
ATOM     17  H   UNL     1      -6.910  12.435  21.852  0.00  0.00    +0.000 HD
ENDBRANCH   7  16
ENDBRANCH   1   4
BRANCH   1  18
ATOM     18  C   UNL     1      -0.664  11.084  21.191  0.00  0.00    +0.000 A 
ATOM     19  C   UNL     1      -0.561  11.061  22.585  0.00  0.00    +0.000 A 
ATOM     20  C   UNL     1      -0.344   9.846  23.229  0.00  0.00    +0.000 A 
ATOM     21  C   UNL     1      -0.226   8.689  22.475  0.00  0.00    +0.000 A 
ATOM     22  C   UNL     1      -0.293   8.793  21.099  0.00  0.00    +0.000 A 
ATOM     23  N   UNL     1      -0.488   9.958  20.445  0.00  0.00    +0.000 NA
ENDBRANCH   1  18
BRANCH   1  24
ATOM     24  N   UNL     1      -0.357  12.643  19.215  0.00  0.00    +0.000 NA
ATOM     25  C   UNL     1      -0.396  14.001  18.685  0.00  0.00    +0.000 C 
ATOM     26  C   UNL     1       0.663  14.961  19.259  0.00  0.00    +0.000 C 
ATOM     27  N   UNL     1       2.057  14.486  19.279  0.00  0.00    +0.000 NA
ATOM     28  C   UNL     1       2.142  13.057  19.623  0.00  0.00    +0.000 C 
ATOM     29  C   UNL     1       1.008  12.120  19.135  0.00  0.00    +0.000 C 
BRANCH  27  30
ATOM     30  C   UNL     1       2.865  15.034  18.180  0.00  0.00    +0.000 C 
ATOM     31  C   UNL     1       2.858  16.588  18.228  0.00  0.00    +0.000 C 
ATOM     32  C   UNL     1       3.569  17.165  19.455  0.00  0.00    +0.000 C 
ATOM     33  C   UNL     1       4.952  16.574  19.721  0.00  0.00    +0.000 C 
ATOM     34  C   UNL     1       5.100  15.085  19.416  0.00  0.00    +0.000 C 
ATOM     35  C   UNL     1       4.353  14.639  18.162  0.00  0.00    +0.000 C 
ENDBRANCH  27  30
ENDBRANCH   1  24
TORSDOF 7
ENDMDL
MODEL 2
REMARK VINA RESULT:      -7.1      0.406      1.143
REMARK  Name = 
REMARK  13 active torsions:
REMARK  status: ('A' for Active; 'I' for Inactive)
REMARK    1  A    between atoms: C_1  and  C_2
REMARK    2  A    between atoms: C_2  and  C_3
REMARK    3  A    between atoms: C_2  and  C_4
REMARK    4  A    between atoms: C_2  and  C_5
REMARK    5  A    between atoms: C_7  and  C_8
REMARK    6  A    between atoms: C_8  and  C_9
REMARK    7  A    between atoms: C_8  and  N_15
REMARK    8  A    between atoms: N_18  and  C_19
REMARK    9  A    between atoms: C_28  and  C_29
REMARK   10  A    between atoms: C_29  and  C_30
REMARK   11  A    between atoms: C_29  and  C_31
REMARK   12  A    between atoms: C_29  and  C_32
REMARK   13  A    between atoms: C_33  and  O_34
REMARK                            x       y       z     vdW  Elec       q    Type
REMARK                         _______ _______ _______ _____ _____    ______ ____
ROOT
ATOM      1  C   UNL     1      -1.016  12.473  20.400  0.00  0.00    +0.000 C 
ENDROOT
BRANCH   1   4
ATOM      2  C   UNL     1      -4.535  13.424  21.619  0.00  0.00    +0.000 A 
ATOM      3  C   UNL     1      -3.138  13.343  21.469  0.00  0.00    +0.000 A 
ATOM      4  C   UNL     1      -2.538  12.702  20.387  0.00  0.00    +0.000 A 
ATOM      5  C   UNL     1      -3.383  12.183  19.390  0.00  0.00    +0.000 A 
ATOM      6  C   UNL     1      -4.782  12.354  19.380  0.00  0.00    +0.000 A 
ATOM      7  C   UNL     1      -5.331  12.936  20.544  0.00  0.00    +0.000 A 
BRANCH   2   9
ATOM      8  C   UNL     1      -4.035  14.412  23.967  0.00  0.00    +0.000 C 
ATOM      9  C   UNL     1      -5.121  13.994  22.935  0.00  0.00    +0.000 C 
ATOM     10  C   UNL     1      -5.985  12.932  23.649  0.00  0.00    +0.000 C 
ATOM     11  C   UNL     1      -5.955  15.259  22.655  0.00  0.00    +0.000 C 
ENDBRANCH   2   9
BRANCH   6  12
ATOM     12  C   UNL     1      -5.577  11.829  18.149  0.00  0.00    +0.000 C 
ATOM     13  C   UNL     1      -6.368  12.993  17.522  0.00  0.00    +0.000 C 
ATOM     14  C   UNL     1      -4.707  11.178  17.047  0.00  0.00    +0.000 C 
ATOM     15  C   UNL     1      -6.602  10.719  18.531  0.00  0.00    +0.000 C 
ENDBRANCH   6  12
BRANCH   7  16
ATOM     16  O   UNL     1      -6.690  12.992  20.690  0.00  0.00    +0.000 OA
ATOM     17  H   UNL     1      -6.932  12.185  21.175  0.00  0.00    +0.000 HD
ENDBRANCH   7  16
ENDBRANCH   1   4
BRANCH   1  18
ATOM     18  C   UNL     1      -0.652  11.168  21.151  0.00  0.00    +0.000 A 
ATOM     19  C   UNL     1      -0.613  11.166  22.548  0.00  0.00    +0.000 A 
ATOM     20  C   UNL     1      -0.452   9.958  23.221  0.00  0.00    +0.000 A 
ATOM     21  C   UNL     1      -0.325   8.786  22.491  0.00  0.00    +0.000 A 
ATOM     22  C   UNL     1      -0.327   8.868  21.112  0.00  0.00    +0.000 A 
ATOM     23  N   UNL     1      -0.467  10.026  20.431  0.00  0.00    +0.000 NA
ENDBRANCH   1  18
BRANCH   1  24
ATOM     24  N   UNL     1      -0.234  12.679  19.158  0.00  0.00    +0.000 NA
ATOM     25  C   UNL     1      -0.268  14.012  18.567  0.00  0.00    +0.000 C 
ATOM     26  C   UNL     1       0.751  15.014  19.143  0.00  0.00    +0.000 C 
ATOM     27  N   UNL     1       2.149  14.563  19.246  0.00  0.00    +0.000 NA
ATOM     28  C   UNL     1       2.239  13.152  19.656  0.00  0.00    +0.000 C 
ATOM     29  C   UNL     1       1.142  12.176  19.161  0.00  0.00    +0.000 C 
BRANCH  27  30
ATOM     30  C   UNL     1       2.996  15.076  18.159  0.00  0.00    +0.000 C 
ATOM     31  C   UNL     1       3.031  16.630  18.189  0.00  0.00    +0.000 C 
ATOM     32  C   UNL     1       3.728  17.202  19.425  0.00  0.00    +0.000 C 
ATOM     33  C   UNL     1       5.088  16.577  19.731  0.00  0.00    +0.000 C 
ATOM     34  C   UNL     1       5.203  15.081  19.447  0.00  0.00    +0.000 C 
ATOM     35  C   UNL     1       4.473  14.640  18.181  0.00  0.00    +0.000 C 
ENDBRANCH  27  30
ENDBRANCH   1  24
TORSDOF 7
ENDMDL
MODEL 3
REMARK VINA RESULT:      -7.0      0.455      3.196
REMARK  Name = 
REMARK  13 active torsions:
REMARK  status: ('A' for Active; 'I' for Inactive)
REMARK    1  A    between atoms: C_1  and  C_2
REMARK    2  A    between atoms: C_2  and  C_3
REMARK    3  A    between atoms: C_2  and  C_4
REMARK    4  A    between atoms: C_2  and  C_5
REMARK    5  A    between atoms: C_7  and  C_8
REMARK    6  A    between atoms: C_8  and  C_9
REMARK    7  A    between atoms: C_8  and  N_15
REMARK    8  A    between atoms: N_18  and  C_19
REMARK    9  A    between atoms: C_28  and  C_29
REMARK   10  A    between atoms: C_29  and  C_30
REMARK   11  A    between atoms: C_29  and  C_31
REMARK   12  A    between atoms: C_29  and  C_32
REMARK   13  A    between atoms: C_33  and  O_34
REMARK                            x       y       z     vdW  Elec       q    Type
REMARK                         _______ _______ _______ _____ _____    ______ ____
ROOT
ATOM      1  C   UNL     1      -1.223  12.480  20.448  0.00  0.00    +0.000 C 
ENDROOT
BRANCH   1   4
ATOM      2  C   UNL     1      -4.892  12.382  19.305  0.00  0.00    +0.000 A 
ATOM      3  C   UNL     1      -3.511  12.136  19.423  0.00  0.00    +0.000 A 
ATOM      4  C   UNL     1      -2.756  12.610  20.494  0.00  0.00    +0.000 A 
ATOM      5  C   UNL     1      -3.436  13.301  21.512  0.00  0.00    +0.000 A 
ATOM      6  C   UNL     1      -4.837  13.458  21.553  0.00  0.00    +0.000 A 
ATOM      7  C   UNL     1      -5.529  13.031  20.399  0.00  0.00    +0.000 A 
BRANCH   2   9
ATOM      8  C   UNL     1      -6.340  13.163  17.296  0.00  0.00    +0.000 C 
ATOM      9  C   UNL     1      -5.620  11.977  17.999  0.00  0.00    +0.000 C 
ATOM     10  C   UNL     1      -6.724  10.937  18.293  0.00  0.00    +0.000 C 
ATOM     11  C   UNL     1      -4.618  11.414  16.972  0.00  0.00    +0.000 C 
ENDBRANCH   2   9
BRANCH   6  12
ATOM     12  C   UNL     1      -5.463  14.141  22.805  0.00  0.00    +0.000 C 
ATOM     13  C   UNL     1      -4.347  14.465  23.816  0.00  0.00    +0.000 C 
ATOM     14  C   UNL     1      -6.248  15.440  22.508  0.00  0.00    +0.000 C 
ATOM     15  C   UNL     1      -6.497  13.226  23.527  0.00  0.00    +0.000 C 
ENDBRANCH   6  12
BRANCH   7  16
ATOM     16  O   UNL     1      -6.867  13.293  20.284  0.00  0.00    +0.000 OA
ATOM     17  H   UNL     1      -7.314  12.584  20.778  0.00  0.00    +0.000 HD
ENDBRANCH   7  16
ENDBRANCH   1   4
BRANCH   1  18
ATOM     18  C   UNL     1      -0.747  11.198  21.176  0.00  0.00    +0.000 A 
ATOM     19  C   UNL     1      -0.688  11.182  22.572  0.00  0.00    +0.000 A 
ATOM     20  C   UNL     1      -0.422   9.982  23.226  0.00  0.00    +0.000 A 
ATOM     21  C   UNL     1      -0.216   8.833  22.479  0.00  0.00    +0.000 A 
ATOM     22  C   UNL     1      -0.245   8.932  21.101  0.00  0.00    +0.000 A 
ATOM     23  N   UNL     1      -0.485  10.084  20.438  0.00  0.00    +0.000 NA
ENDBRANCH   1  18
BRANCH   1  24
ATOM     24  N   UNL     1      -0.504  12.741  19.178  0.00  0.00    +0.000 NA
ATOM     25  C   UNL     1      -0.477  14.119  18.703  0.00  0.00    +0.000 C 
ATOM     26  C   UNL     1       0.644  14.997  19.292  0.00  0.00    +0.000 C 
ATOM     27  N   UNL     1       2.010  14.446  19.264  0.00  0.00    +0.000 NA
ATOM     28  C   UNL     1       2.021  13.002  19.548  0.00  0.00    +0.000 C 
ATOM     29  C   UNL     1       0.829  12.149  19.048  0.00  0.00    +0.000 C 
BRANCH  27  30
ATOM     30  C   UNL     1       2.825  14.994  18.169  0.00  0.00    +0.000 C 
ATOM     31  C   UNL     1       2.800  16.548  18.204  0.00  0.00    +0.000 C 
ATOM     32  C   UNL     1       3.489  17.143  19.435  0.00  0.00    +0.000 C 
ATOM     33  C   UNL     1       4.875  16.569  19.723  0.00  0.00    +0.000 C 
ATOM     34  C   UNL     1       5.044  15.080  19.433  0.00  0.00    +0.000 C 
ATOM     35  C   UNL     1       4.317  14.615  18.174  0.00  0.00    +0.000 C 
ENDBRANCH  27  30
ENDBRANCH   1  24
TORSDOF 7
ENDMDL
MODEL 4
REMARK VINA RESULT:      -6.9      0.654      1.435
REMARK  Name = 
REMARK  13 active torsions:
REMARK  status: ('A' for Active; 'I' for Inactive)
REMARK    1  A    between atoms: C_1  and  C_2
REMARK    2  A    between atoms: C_2  and  C_3
REMARK    3  A    between atoms: C_2  and  C_4
REMARK    4  A    between atoms: C_2  and  C_5
REMARK    5  A    between atoms: C_7  and  C_8
REMARK    6  A    between atoms: C_8  and  C_9
REMARK    7  A    between atoms: C_8  and  N_15
REMARK    8  A    between atoms: N_18  and  C_19
REMARK    9  A    between atoms: C_28  and  C_29
REMARK   10  A    between atoms: C_29  and  C_30
REMARK   11  A    between atoms: C_29  and  C_31
REMARK   12  A    between atoms: C_29  and  C_32
REMARK   13  A    between atoms: C_33  and  O_34
REMARK                            x       y       z     vdW  Elec       q    Type
REMARK                         _______ _______ _______ _____ _____    ______ ____
ROOT
ATOM      1  C   UNL     1      -0.992  12.301  20.428  0.00  0.00    +0.000 C 
ENDROOT
BRANCH   1   4
ATOM      2  C   UNL     1      -4.499  13.411  21.539  0.00  0.00    +0.000 A 
ATOM      3  C   UNL     1      -3.103  13.268  21.431  0.00  0.00    +0.000 A 
ATOM      4  C   UNL     1      -2.501  12.595  20.369  0.00  0.00    +0.000 A 
ATOM      5  C   UNL     1      -3.338  12.107  19.351  0.00  0.00    +0.000 A 
ATOM      6  C   UNL     1      -4.728  12.339  19.300  0.00  0.00    +0.000 A 
ATOM      7  C   UNL     1      -5.284  12.951  20.445  0.00  0.00    +0.000 A 
BRANCH   2   9
ATOM      8  C   UNL     1      -4.022  14.423  23.882  0.00  0.00    +0.000 C 
ATOM      9  C   UNL     1      -5.097  14.013  22.835  0.00  0.00    +0.000 C 
ATOM     10  C   UNL     1      -5.998  12.982  23.548  0.00  0.00    +0.000 C 
ATOM     11  C   UNL     1      -5.898  15.292  22.520  0.00  0.00    +0.000 C 
ENDBRANCH   2   9
BRANCH   6  12
ATOM     12  C   UNL     1      -5.509  11.841  18.048  0.00  0.00    +0.000 C 
ATOM     13  C   UNL     1      -6.475  10.716  18.467  0.00  0.00    +0.000 C 
ATOM     14  C   UNL     1      -6.319  12.935  17.314  0.00  0.00    +0.000 C 
ATOM     15  C   UNL     1      -4.566  11.263  16.950  0.00  0.00    +0.000 C 
ENDBRANCH   6  12
BRANCH   7  16
ATOM     16  O   UNL     1      -6.643  13.067  20.550  0.00  0.00    +0.000 OA
ATOM     17  H   UNL     1      -6.830  13.063  21.505  0.00  0.00    +0.000 HD
ENDBRANCH   7  16
ENDBRANCH   1   4
BRANCH   1  18
ATOM     18  C   UNL     1      -0.705  10.995  21.211  0.00  0.00    +0.000 A 
ATOM     19  C   UNL     1      -0.565   9.791  20.515  0.00  0.00    +0.000 A 
ATOM     20  C   UNL     1      -0.143   8.656  21.200  0.00  0.00    +0.000 A 
ATOM     21  C   UNL     1       0.121   8.741  22.559  0.00  0.00    +0.000 A 
ATOM     22  C   UNL     1      -0.082   9.953  23.191  0.00  0.00    +0.000 A 
ATOM     23  N   UNL     1      -0.505  11.068  22.557  0.00  0.00    +0.000 NA
ENDBRANCH   1  18
BRANCH   1  24
ATOM     24  N   UNL     1      -0.168  12.449  19.204  0.00  0.00    +0.000 NA
ATOM     25  C   UNL     1      -0.269  13.714  18.487  0.00  0.00    +0.000 C 
ATOM     26  C   UNL     1       0.648  14.839  19.004  0.00  0.00    +0.000 C 
ATOM     27  N   UNL     1       2.069  14.505  19.205  0.00  0.00    +0.000 NA
ATOM     28  C   UNL     1       2.239  13.148  19.752  0.00  0.00    +0.000 C 
ATOM     29  C   UNL     1       1.238  12.052  19.310  0.00  0.00    +0.000 C 
BRANCH  27  30
ATOM     30  C   UNL     1       2.927  14.976  18.108  0.00  0.00    +0.000 C 
ATOM     31  C   UNL     1       2.920  16.530  18.047  0.00  0.00    +0.000 C 
ATOM     32  C   UNL     1       3.573  17.193  19.262  0.00  0.00    +0.000 C 
ATOM     33  C   UNL     1       4.941  16.626  19.634  0.00  0.00    +0.000 C 
ATOM     34  C   UNL     1       5.103  15.119  19.442  0.00  0.00    +0.000 C 
ATOM     35  C   UNL     1       4.414  14.584  18.189  0.00  0.00    +0.000 C 
ENDBRANCH  27  30
ENDBRANCH   1  24
TORSDOF 7
ENDMDL
MODEL 5
REMARK VINA RESULT:      -6.9      0.519      3.165
REMARK  Name = 
REMARK  13 active torsions:
REMARK  status: ('A' for Active; 'I' for Inactive)
REMARK    1  A    between atoms: C_1  and  C_2
REMARK    2  A    between atoms: C_2  and  C_3
REMARK    3  A    between atoms: C_2  and  C_4
REMARK    4  A    between atoms: C_2  and  C_5
REMARK    5  A    between atoms: C_7  and  C_8
REMARK    6  A    between atoms: C_8  and  C_9
REMARK    7  A    between atoms: C_8  and  N_15
REMARK    8  A    between atoms: N_18  and  C_19
REMARK    9  A    between atoms: C_28  and  C_29
REMARK   10  A    between atoms: C_29  and  C_30
REMARK   11  A    between atoms: C_29  and  C_31
REMARK   12  A    between atoms: C_29  and  C_32
REMARK   13  A    between atoms: C_33  and  O_34
REMARK                            x       y       z     vdW  Elec       q    Type
REMARK                         _______ _______ _______ _____ _____    ______ ____
ROOT
ATOM      1  C   UNL     1      -1.173  12.451  20.437  0.00  0.00    +0.000 C 
ENDROOT
BRANCH   1   4
ATOM      2  C   UNL     1      -4.843  12.348  19.301  0.00  0.00    +0.000 A 
ATOM      3  C   UNL     1      -3.467  12.088  19.433  0.00  0.00    +0.000 A 
ATOM      4  C   UNL     1      -2.703  12.607  20.477  0.00  0.00    +0.000 A 
ATOM      5  C   UNL     1      -3.372  13.362  21.456  0.00  0.00    +0.000 A 
ATOM      6  C   UNL     1      -4.770  13.543  21.489  0.00  0.00    +0.000 A 
ATOM      7  C   UNL     1      -5.470  13.064  20.359  0.00  0.00    +0.000 A 
BRANCH   2   9
ATOM      8  C   UNL     1      -4.641  11.225  16.970  0.00  0.00    +0.000 C 
ATOM      9  C   UNL     1      -5.579  11.885  18.020  0.00  0.00    +0.000 C 
ATOM     10  C   UNL     1      -6.226  13.088  17.299  0.00  0.00    +0.000 C 
ATOM     11  C   UNL     1      -6.650  10.830  18.361  0.00  0.00    +0.000 C 
ENDBRANCH   2   9
BRANCH   6  12
ATOM     12  C   UNL     1      -5.384  14.302  22.702  0.00  0.00    +0.000 C 
ATOM     13  C   UNL     1      -6.385  13.379  23.424  0.00  0.00    +0.000 C 
ATOM     14  C   UNL     1      -4.352  14.810  23.736  0.00  0.00    +0.000 C 
ATOM     15  C   UNL     1      -6.157  15.585  22.272  0.00  0.00    +0.000 C 
ENDBRANCH   6  12
BRANCH   7  16
ATOM     16  O   UNL     1      -6.804  13.341  20.231  0.00  0.00    +0.000 OA
ATOM     17  H   UNL     1      -7.023  13.917  20.983  0.00  0.00    +0.000 HD
ENDBRANCH   7  16
ENDBRANCH   1   4
BRANCH   1  18
ATOM     18  C   UNL     1      -0.722  11.163  21.171  0.00  0.00    +0.000 A 
ATOM     19  C   UNL     1      -0.643  11.158  22.567  0.00  0.00    +0.000 A 
ATOM     20  C   UNL     1      -0.401   9.958  23.229  0.00  0.00    +0.000 A 
ATOM     21  C   UNL     1      -0.236   8.796  22.490  0.00  0.00    +0.000 A 
ATOM     22  C   UNL     1      -0.282   8.883  21.112  0.00  0.00    +0.000 A 
ATOM     23  N   UNL     1      -0.501  10.035  20.441  0.00  0.00    +0.000 NA
ENDBRANCH   1  18
BRANCH   1  24
ATOM     24  N   UNL     1      -0.444  12.696  19.170  0.00  0.00    +0.000 NA
ATOM     25  C   UNL     1      -0.434  14.063  18.665  0.00  0.00    +0.000 C 
ATOM     26  C   UNL     1       0.666  14.972  19.246  0.00  0.00    +0.000 C 
ATOM     27  N   UNL     1       2.041  14.443  19.245  0.00  0.00    +0.000 NA
ATOM     28  C   UNL     1       2.073  13.006  19.561  0.00  0.00    +0.000 C 
ATOM     29  C   UNL     1       0.900  12.122  19.067  0.00  0.00    +0.000 C 
BRANCH  27  30
ATOM     30  C   UNL     1       2.859  14.980  18.147  0.00  0.00    +0.000 C 
ATOM     31  C   UNL     1       2.835  16.534  18.167  0.00  0.00    +0.000 C 
ATOM     32  C   UNL     1       3.521  17.141  19.393  0.00  0.00    +0.000 C 
ATOM     33  C   UNL     1       4.906  16.570  19.691  0.00  0.00    +0.000 C 
ATOM     34  C   UNL     1       5.075  15.078  19.416  0.00  0.00    +0.000 C 
ATOM     35  C   UNL     1       4.351  14.601  18.159  0.00  0.00    +0.000 C 
ENDBRANCH  27  30
ENDBRANCH   1  24
TORSDOF 7
ENDMDL
MODEL 6
REMARK VINA RESULT:      -6.8      5.724     11.481
REMARK  Name = 
REMARK  13 active torsions:
REMARK  status: ('A' for Active; 'I' for Inactive)
REMARK    1  A    between atoms: C_1  and  C_2
REMARK    2  A    between atoms: C_2  and  C_3
REMARK    3  A    between atoms: C_2  and  C_4
REMARK    4  A    between atoms: C_2  and  C_5
REMARK    5  A    between atoms: C_7  and  C_8
REMARK    6  A    between atoms: C_8  and  C_9
REMARK    7  A    between atoms: C_8  and  N_15
REMARK    8  A    between atoms: N_18  and  C_19
REMARK    9  A    between atoms: C_28  and  C_29
REMARK   10  A    between atoms: C_29  and  C_30
REMARK   11  A    between atoms: C_29  and  C_31
REMARK   12  A    between atoms: C_29  and  C_32
REMARK   13  A    between atoms: C_33  and  O_34
REMARK                            x       y       z     vdW  Elec       q    Type
REMARK                         _______ _______ _______ _____ _____    ______ ____
ROOT
ATOM      1  C   UNL     1       8.028  16.323  19.661  0.00  0.00    +0.000 C 
ENDROOT
BRANCH   1   4
ATOM      2  C   UNL     1       7.908  13.327  22.065  0.00  0.00    +0.000 A 
ATOM      3  C   UNL     1       7.631  14.545  21.417  0.00  0.00    +0.000 A 
ATOM      4  C   UNL     1       8.216  14.895  20.201  0.00  0.00    +0.000 A 
ATOM      5  C   UNL     1       9.059  13.949  19.591  0.00  0.00    +0.000 A 
ATOM      6  C   UNL     1       9.269  12.647  20.090  0.00  0.00    +0.000 A 
ATOM      7  C   UNL     1       8.717  12.390  21.364  0.00  0.00    +0.000 A 
BRANCH   2   9
ATOM      8  C   UNL     1       6.402  11.872  23.600  0.00  0.00    +0.000 C 
ATOM      9  C   UNL     1       7.359  13.093  23.495  0.00  0.00    +0.000 C 
ATOM     10  C   UNL     1       6.533  14.310  23.966  0.00  0.00    +0.000 C 
ATOM     11  C   UNL     1       8.513  12.819  24.480  0.00  0.00    +0.000 C 
ENDBRANCH   2   9
BRANCH   6  12
ATOM     12  C   UNL     1      10.132  11.667  19.242  0.00  0.00    +0.000 C 
ATOM     13  C   UNL     1       9.468  10.277  19.242  0.00  0.00    +0.000 C 
ATOM     14  C   UNL     1      10.356  12.105  17.776  0.00  0.00    +0.000 C 
ATOM     15  C   UNL     1      11.573  11.497  19.814  0.00  0.00    +0.000 C 
ENDBRANCH   6  12
BRANCH   7  16
ATOM     16  O   UNL     1       9.008  11.211  21.995  0.00  0.00    +0.000 OA
ATOM     17  H   UNL     1       9.846  11.368  22.464  0.00  0.00    +0.000 HD
ENDBRANCH   7  16
ENDBRANCH   1   4
BRANCH   1  18
ATOM     18  C   UNL     1       9.377  16.932  19.204  0.00  0.00    +0.000 A 
ATOM     19  C   UNL     1       9.589  17.194  17.847  0.00  0.00    +0.000 A 
ATOM     20  C   UNL     1      10.729  17.893  17.461  0.00  0.00    +0.000 A 
ATOM     21  C   UNL     1      11.632  18.306  18.428  0.00  0.00    +0.000 A 
ATOM     22  C   UNL     1      11.382  17.973  19.745  0.00  0.00    +0.000 A 
ATOM     23  N   UNL     1      10.292  17.284  20.149  0.00  0.00    +0.000 NA
ENDBRANCH   1  18
BRANCH   1  24
ATOM     24  N   UNL     1       6.904  16.616  18.739  0.00  0.00    +0.000 NA
ATOM     25  C   UNL     1       6.431  15.520  17.903  0.00  0.00    +0.000 C 
ATOM     26  C   UNL     1       5.393  14.590  18.560  0.00  0.00    +0.000 C 
ATOM     27  N   UNL     1       4.242  15.232  19.218  0.00  0.00    +0.000 NA
ATOM     28  C   UNL     1       4.633  16.463  19.924  0.00  0.00    +0.000 C 
ATOM     29  C   UNL     1       5.760  17.331  19.309  0.00  0.00    +0.000 C 
BRANCH  27  30
ATOM     30  C   UNL     1       3.024  15.203  18.395  0.00  0.00    +0.000 C 
ATOM     31  C   UNL     1       2.618  13.735  18.083  0.00  0.00    +0.000 C 
ATOM     32  C   UNL     1       2.179  12.945  19.319  0.00  0.00    +0.000 C 
ATOM     33  C   UNL     1       1.158  13.664  20.198  0.00  0.00    +0.000 C 
ATOM     34  C   UNL     1       1.339  15.175  20.316  0.00  0.00    +0.000 C 
ATOM     35  C   UNL     1       1.768  15.844  19.012  0.00  0.00    +0.000 C 
ENDBRANCH  27  30
ENDBRANCH   1  24
TORSDOF 7
ENDMDL
MODEL 7
REMARK VINA RESULT:      -6.8      0.656      3.304
REMARK  Name = 
REMARK  13 active torsions:
REMARK  status: ('A' for Active; 'I' for Inactive)
REMARK    1  A    between atoms: C_1  and  C_2
REMARK    2  A    between atoms: C_2  and  C_3
REMARK    3  A    between atoms: C_2  and  C_4
REMARK    4  A    between atoms: C_2  and  C_5
REMARK    5  A    between atoms: C_7  and  C_8
REMARK    6  A    between atoms: C_8  and  C_9
REMARK    7  A    between atoms: C_8  and  N_15
REMARK    8  A    between atoms: N_18  and  C_19
REMARK    9  A    between atoms: C_28  and  C_29
REMARK   10  A    between atoms: C_29  and  C_30
REMARK   11  A    between atoms: C_29  and  C_31
REMARK   12  A    between atoms: C_29  and  C_32
REMARK   13  A    between atoms: C_33  and  O_34
REMARK                            x       y       z     vdW  Elec       q    Type
REMARK                         _______ _______ _______ _____ _____    ______ ____
ROOT
ATOM      1  C   UNL     1      -0.876  12.321  20.388  0.00  0.00    +0.000 C 
ENDROOT
BRANCH   1   4
ATOM      2  C   UNL     1      -4.613  12.271  19.491  0.00  0.00    +0.000 A 
ATOM      3  C   UNL     1      -3.224  12.045  19.487  0.00  0.00    +0.000 A 
ATOM      4  C   UNL     1      -2.403  12.411  20.552  0.00  0.00    +0.000 A 
ATOM      5  C   UNL     1      -3.021  12.965  21.687  0.00  0.00    +0.000 A 
ATOM      6  C   UNL     1      -4.418  13.085  21.840  0.00  0.00    +0.000 A 
ATOM      7  C   UNL     1      -5.182  12.776  20.694  0.00  0.00    +0.000 A 
BRANCH   2   9
ATOM      8  C   UNL     1      -4.543  11.580  16.990  0.00  0.00    +0.000 C 
ATOM      9  C   UNL     1      -5.425  12.001  18.200  0.00  0.00    +0.000 C 
ATOM     10  C   UNL     1      -6.167  13.278  17.748  0.00  0.00    +0.000 C 
ATOM     11  C   UNL     1      -6.427  10.852  18.420  0.00  0.00    +0.000 C 
ENDBRANCH   2   9
BRANCH   6  12
ATOM     12  C   UNL     1      -4.964  13.606  23.202  0.00  0.00    +0.000 C 
ATOM     13  C   UNL     1      -3.846  13.533  24.259  0.00  0.00    +0.000 C 
ATOM     14  C   UNL     1      -5.514  15.052  23.168  0.00  0.00    +0.000 C 
ATOM     15  C   UNL     1      -6.161  12.756  23.727  0.00  0.00    +0.000 C 
ENDBRANCH   6  12
BRANCH   7  16
ATOM     16  O   UNL     1      -6.529  13.019  20.700  0.00  0.00    +0.000 OA
ATOM     17  H   UNL     1      -6.725  13.417  19.835  0.00  0.00    +0.000 HD
ENDBRANCH   7  16
ENDBRANCH   1   4
BRANCH   1  18
ATOM     18  C   UNL     1      -0.332  10.973  20.923  0.00  0.00    +0.000 A 
ATOM     19  C   UNL     1      -0.452   9.823  20.137  0.00  0.00    +0.000 A 
ATOM     20  C   UNL     1       0.184   8.653  20.545  0.00  0.00    +0.000 A 
ATOM     21  C   UNL     1       0.913   8.652  21.723  0.00  0.00    +0.000 A 
ATOM     22  C   UNL     1       0.951   9.813  22.473  0.00  0.00    +0.000 A 
ATOM     23  N   UNL     1       0.333  10.958  22.111  0.00  0.00    +0.000 NA
ENDBRANCH   1  18
BRANCH   1  24
ATOM     24  N   UNL     1      -0.250  12.748  19.113  0.00  0.00    +0.000 NA
ATOM     25  C   UNL     1      -0.298  14.169  18.795  0.00  0.00    +0.000 C 
ATOM     26  C   UNL     1       0.831  15.020  19.407  0.00  0.00    +0.000 C 
ATOM     27  N   UNL     1       2.209  14.528  19.233  0.00  0.00    +0.000 NA
ATOM     28  C   UNL     1       2.285  13.063  19.353  0.00  0.00    +0.000 C 
ATOM     29  C   UNL     1       1.089  12.224  18.835  0.00  0.00    +0.000 C 
BRANCH  27  30
ATOM     30  C   UNL     1       2.932  15.224  18.159  0.00  0.00    +0.000 C 
ATOM     31  C   UNL     1       2.936  16.757  18.415  0.00  0.00    +0.000 C 
ATOM     32  C   UNL     1       3.741  17.169  19.651  0.00  0.00    +0.000 C 
ATOM     33  C   UNL     1       5.138  16.555  19.730  0.00  0.00    +0.000 C 
ATOM     34  C   UNL     1       5.256  15.122  19.217  0.00  0.00    +0.000 C 
ATOM     35  C   UNL     1       4.413  14.843  17.975  0.00  0.00    +0.000 C 
ENDBRANCH  27  30
ENDBRANCH   1  24
TORSDOF 7
ENDMDL
MODEL 8
REMARK VINA RESULT:      -6.7      0.650      3.298
REMARK  Name = 
REMARK  13 active torsions:
REMARK  status: ('A' for Active; 'I' for Inactive)
REMARK    1  A    between atoms: C_1  and  C_2
REMARK    2  A    between atoms: C_2  and  C_3
REMARK    3  A    between atoms: C_2  and  C_4
REMARK    4  A    between atoms: C_2  and  C_5
REMARK    5  A    between atoms: C_7  and  C_8
REMARK    6  A    between atoms: C_8  and  C_9
REMARK    7  A    between atoms: C_8  and  N_15
REMARK    8  A    between atoms: N_18  and  C_19
REMARK    9  A    between atoms: C_28  and  C_29
REMARK   10  A    between atoms: C_29  and  C_30
REMARK   11  A    between atoms: C_29  and  C_31
REMARK   12  A    between atoms: C_29  and  C_32
REMARK   13  A    between atoms: C_33  and  O_34
REMARK                            x       y       z     vdW  Elec       q    Type
REMARK                         _______ _______ _______ _____ _____    ______ ____
ROOT
ATOM      1  C   UNL     1      -0.966  12.346  20.389  0.00  0.00    +0.000 C 
ENDROOT
BRANCH   1   4
ATOM      2  C   UNL     1      -4.675  12.286  19.383  0.00  0.00    +0.000 A 
ATOM      3  C   UNL     1      -3.290  12.042  19.436  0.00  0.00    +0.000 A 
ATOM      4  C   UNL     1      -2.496  12.465  20.501  0.00  0.00    +0.000 A 
ATOM      5  C   UNL     1      -3.139  13.098  21.578  0.00  0.00    +0.000 A 
ATOM      6  C   UNL     1      -4.538  13.245  21.681  0.00  0.00    +0.000 A 
ATOM      7  C   UNL     1      -5.273  12.874  20.534  0.00  0.00    +0.000 A 
BRANCH   2   9
ATOM      8  C   UNL     1      -6.246  13.149  17.504  0.00  0.00    +0.000 C 
ATOM      9  C   UNL     1      -5.452  11.945  18.087  0.00  0.00    +0.000 C 
ATOM     10  C   UNL     1      -6.503  10.847  18.357  0.00  0.00    +0.000 C 
ATOM     11  C   UNL     1      -4.483  11.493  16.977  0.00  0.00    +0.000 C 
ENDBRANCH   2   9
BRANCH   6  12
ATOM     12  C   UNL     1      -5.117  13.858  22.990  0.00  0.00    +0.000 C 
ATOM     13  C   UNL     1      -6.146  12.884  23.594  0.00  0.00    +0.000 C 
ATOM     14  C   UNL     1      -4.062  14.190  24.071  0.00  0.00    +0.000 C 
ATOM     15  C   UNL     1      -5.846  15.213  22.740  0.00  0.00    +0.000 C 
ENDBRANCH   6  12
BRANCH   7  16
ATOM     16  O   UNL     1      -6.615  13.134  20.484  0.00  0.00    +0.000 OA
ATOM     17  H   UNL     1      -6.959  12.893  21.361  0.00  0.00    +0.000 HD
ENDBRANCH   7  16
ENDBRANCH   1   4
BRANCH   1  18
ATOM     18  C   UNL     1      -0.462  11.009  20.989  0.00  0.00    +0.000 A 
ATOM     19  C   UNL     1      -0.405   9.870  20.180  0.00  0.00    +0.000 A 
ATOM     20  C   UNL     1       0.203   8.719  20.672  0.00  0.00    +0.000 A 
ATOM     21  C   UNL     1       0.730   8.724  21.954  0.00  0.00    +0.000 A 
ATOM     22  C   UNL     1       0.597   9.870  22.714  0.00  0.00    +0.000 A 
ATOM     23  N   UNL     1       0.000  10.998  22.270  0.00  0.00    +0.000 NA
ENDBRANCH   1  18
BRANCH   1  24
ATOM     24  N   UNL     1      -0.293  12.716  19.121  0.00  0.00    +0.000 NA
ATOM     25  C   UNL     1      -0.347  14.118  18.727  0.00  0.00    +0.000 C 
ATOM     26  C   UNL     1       0.743  15.017  19.340  0.00  0.00    +0.000 C 
ATOM     27  N   UNL     1       2.134  14.539  19.249  0.00  0.00    +0.000 NA
ATOM     28  C   UNL     1       2.225  13.084  19.448  0.00  0.00    +0.000 C 
ATOM     29  C   UNL     1       1.064  12.200  18.926  0.00  0.00    +0.000 C 
BRANCH  27  30
ATOM     30  C   UNL     1       2.892  15.190  18.171  0.00  0.00    +0.000 C 
ATOM     31  C   UNL     1       2.914  16.730  18.379  0.00  0.00    +0.000 C 
ATOM     32  C   UNL     1       3.696  17.169  19.620  0.00  0.00    +0.000 C 
ATOM     33  C   UNL     1       5.081  16.538  19.750  0.00  0.00    +0.000 C 
ATOM     34  C   UNL     1       5.189  15.087  19.286  0.00  0.00    +0.000 C 
ATOM     35  C   UNL     1       4.371  14.782  18.034  0.00  0.00    +0.000 C 
ENDBRANCH  27  30
ENDBRANCH   1  24
TORSDOF 7
ENDMDL
MODEL 9
REMARK VINA RESULT:      -6.7      6.082     12.105
REMARK  Name = 
REMARK  13 active torsions:
REMARK  status: ('A' for Active; 'I' for Inactive)
REMARK    1  A    between atoms: C_1  and  C_2
REMARK    2  A    between atoms: C_2  and  C_3
REMARK    3  A    between atoms: C_2  and  C_4
REMARK    4  A    between atoms: C_2  and  C_5
REMARK    5  A    between atoms: C_7  and  C_8
REMARK    6  A    between atoms: C_8  and  C_9
REMARK    7  A    between atoms: C_8  and  N_15
REMARK    8  A    between atoms: N_18  and  C_19
REMARK    9  A    between atoms: C_28  and  C_29
REMARK   10  A    between atoms: C_29  and  C_30
REMARK   11  A    between atoms: C_29  and  C_31
REMARK   12  A    between atoms: C_29  and  C_32
REMARK   13  A    between atoms: C_33  and  O_34
REMARK                            x       y       z     vdW  Elec       q    Type
REMARK                         _______ _______ _______ _____ _____    ______ ____
ROOT
ATOM      1  C   UNL     1       8.533  16.481  19.544  0.00  0.00    +0.000 C 
ENDROOT
BRANCH   1   4
ATOM      2  C   UNL     1       9.696  12.837  19.922  0.00  0.00    +0.000 A 
ATOM      3  C   UNL     1       9.566  14.172  19.495  0.00  0.00    +0.000 A 
ATOM      4  C   UNL     1       8.793  15.105  20.183  0.00  0.00    +0.000 A 
ATOM      5  C   UNL     1       8.184  14.688  21.380  0.00  0.00    +0.000 A 
ATOM      6  C   UNL     1       8.386  13.420  21.962  0.00  0.00    +0.000 A 
ATOM      7  C   UNL     1       9.108  12.498  21.172  0.00  0.00    +0.000 A 
BRANCH   2   9
ATOM      8  C   UNL     1      11.875  11.502  19.465  0.00  0.00    +0.000 C 
ATOM      9  C   UNL     1      10.423  11.820  19.007  0.00  0.00    +0.000 C 
ATOM     10  C   UNL     1      10.553  12.377  17.572  0.00  0.00    +0.000 C 
ATOM     11  C   UNL     1       9.674  10.474  18.990  0.00  0.00    +0.000 C 
ENDBRANCH   2   9
BRANCH   6  12
ATOM     12  C   UNL     1       7.743  13.140  23.352  0.00  0.00    +0.000 C 
ATOM     13  C   UNL     1       6.358  12.497  23.151  0.00  0.00    +0.000 C 
ATOM     14  C   UNL     1       8.579  12.226  24.279  0.00  0.00    +0.000 C 
ATOM     15  C   UNL     1       7.537  14.442  24.185  0.00  0.00    +0.000 C 
ENDBRANCH   6  12
BRANCH   7  16
ATOM     16  O   UNL     1       9.210  11.197  21.586  0.00  0.00    +0.000 OA
ATOM     17  H   UNL     1       9.839  10.780  20.972  0.00  0.00    +0.000 HD
ENDBRANCH   7  16
ENDBRANCH   1   4
BRANCH   1  18
ATOM     18  C   UNL     1       9.859  17.165  19.128  0.00  0.00    +0.000 A 
ATOM     19  C   UNL     1      10.837  17.416  20.096  0.00  0.00    +0.000 A 
ATOM     20  C   UNL     1      12.088  17.876  19.693  0.00  0.00    +0.000 A 
ATOM     21  C   UNL     1      12.333  18.081  18.344  0.00  0.00    +0.000 A 
ATOM     22  C   UNL     1      11.306  17.856  17.448  0.00  0.00    +0.000 A 
ATOM     23  N   UNL     1      10.078  17.424  17.809  0.00  0.00    +0.000 NA
ENDBRANCH   1  18
BRANCH   1  24
ATOM     24  N   UNL     1       7.450  16.630  18.543  0.00  0.00    +0.000 NA
ATOM     25  C   UNL     1       7.047  15.431  17.819  0.00  0.00    +0.000 C 
ATOM     26  C   UNL     1       6.000  14.553  18.532  0.00  0.00    +0.000 C 
ATOM     27  N   UNL     1       4.802  15.232  19.055  0.00  0.00    +0.000 NA
ATOM     28  C   UNL     1       5.127  16.548  19.629  0.00  0.00    +0.000 C 
ATOM     29  C   UNL     1       6.262  17.372  18.970  0.00  0.00    +0.000 C 
BRANCH  27  30
ATOM     30  C   UNL     1       3.628  15.071  18.185  0.00  0.00    +0.000 C 
ATOM     31  C   UNL     1       3.037  13.641  18.334  0.00  0.00    +0.000 C 
ATOM     32  C   UNL     1       2.441  13.367  19.717  0.00  0.00    +0.000 C 
ATOM     33  C   UNL     1       1.492  14.451  20.224  0.00  0.00    +0.000 C 
ATOM     34  C   UNL     1       1.875  15.883  19.857  0.00  0.00    +0.000 C 
ATOM     35  C   UNL     1       2.447  16.023  18.449  0.00  0.00    +0.000 C 
ENDBRANCH  27  30
ENDBRANCH   1  24
TORSDOF 7
ENDMDL
