MODEL 1
REMARK VINA RESULT:      -7.8      0.000      0.000
REMARK  Name = 
REMARK  5 active torsions:
REMARK  status: ('A' for Active; 'I' for Inactive)
REMARK    1  A    between atoms: C_1  and  C_2
REMARK    2  A    between atoms: C_2  and  O_3
REMARK    3  A    between atoms: O_3  and  C_4
REMARK    4  A    between atoms: C_7  and  C_8
REMARK    5  A    between atoms: C_12  and  C_13
REMARK                            x       y       z     vdW  Elec       q    Type
REMARK                         _______ _______ _______ _____ _____    ______ ____
ROOT
ATOM      1  C   UNL     1       3.523   5.754  17.819  0.00  0.00    +0.000 A 
ATOM      2  C   UNL     1       3.294   4.428  18.217  0.00  0.00    +0.000 A 
ATOM      3  C   UNL     1       4.053   3.372  17.702  0.00  0.00    +0.000 A 
ATOM      4  C   UNL     1       5.093   3.631  16.809  0.00  0.00    +0.000 A 
ATOM      5  C   UNL     1       5.338   4.930  16.387  0.00  0.00    +0.000 A 
ATOM      6  C   UNL     1       4.498   5.950  16.829  0.00  0.00    +0.000 A 
ENDROOT
BRANCH   5   7
ATOM      7  C   UNL     1       6.447   5.198  15.419  0.00  0.00    +0.000 C 
ATOM      8  O   UNL     1       7.415   5.839  15.833  0.00  0.00    +0.000 OA
ATOM      9  N   UNL     1       6.392   4.731  14.111  0.00  0.00    +0.000 N 
ATOM     10  C   UNL     1       5.309   4.137  13.336  0.00  0.00    +0.000 C 
ATOM     11  C   UNL     1       6.069   3.208  12.408  0.00  0.00    +0.000 C 
ATOM     12  C   UNL     1       7.258   4.066  12.005  0.00  0.00    +0.000 C 
ATOM     13  C   UNL     1       7.532   4.945  13.230  0.00  0.00    +0.000 C 
ENDBRANCH   5   7
BRANCH   1  17
ATOM     14  C   UNL     1       1.357   9.072  19.542  0.00  0.00    +0.000 A 
ATOM     15  C   UNL     1       1.789   9.120  18.221  0.00  0.00    +0.000 A 
ATOM     16  C   UNL     1       2.488   8.045  17.666  0.00  0.00    +0.000 A 
ATOM     17  C   UNL     1       2.814   6.909  18.425  0.00  0.00    +0.000 A 
ATOM     18  C   UNL     1       2.377   6.897  19.765  0.00  0.00    +0.000 A 
ATOM     19  C   UNL     1       1.660   7.961  20.320  0.00  0.00    +0.000 A 
BRANCH  14  20
ATOM     20  O   UNL     1       0.657  10.161  19.970  0.00  0.00    +0.000 OA
BRANCH  20  22
ATOM     21  C   UNL     1      -1.380  10.756  18.909  0.00  0.00    +0.000 C 
ATOM     22  C   UNL     1       0.117  10.989  18.942  0.00  0.00    +0.000 C 
ENDBRANCH  20  22
ENDBRANCH  14  20
ENDBRANCH   1  17
TORSDOF 4
ENDMDL
MODEL 2
REMARK VINA RESULT:      -7.7      0.178      1.038
REMARK  Name = 
REMARK  5 active torsions:
REMARK  status: ('A' for Active; 'I' for Inactive)
REMARK    1  A    between atoms: C_1  and  C_2
REMARK    2  A    between atoms: C_2  and  O_3
REMARK    3  A    between atoms: O_3  and  C_4
REMARK    4  A    between atoms: C_7  and  C_8
REMARK    5  A    between atoms: C_12  and  C_13
REMARK                            x       y       z     vdW  Elec       q    Type
REMARK                         _______ _______ _______ _____ _____    ______ ____
ROOT
ATOM      1  C   UNL     1       3.452   5.857  17.851  0.00  0.00    +0.000 A 
ATOM      2  C   UNL     1       3.247   4.546  18.307  0.00  0.00    +0.000 A 
ATOM      3  C   UNL     1       4.041   3.486  17.858  0.00  0.00    +0.000 A 
ATOM      4  C   UNL     1       5.093   3.729  16.974  0.00  0.00    +0.000 A 
ATOM      5  C   UNL     1       5.315   5.012  16.494  0.00  0.00    +0.000 A 
ATOM      6  C   UNL     1       4.442   6.031  16.872  0.00  0.00    +0.000 A 
ENDROOT
BRANCH   5   7
ATOM      7  C   UNL     1       6.436   5.261  15.536  0.00  0.00    +0.000 C 
ATOM      8  O   UNL     1       7.411   5.887  15.958  0.00  0.00    +0.000 OA
ATOM      9  N   UNL     1       6.386   4.794  14.229  0.00  0.00    +0.000 N 
ATOM     10  C   UNL     1       5.301   4.215  13.445  0.00  0.00    +0.000 C 
ATOM     11  C   UNL     1       6.055   3.273  12.525  0.00  0.00    +0.000 C 
ATOM     12  C   UNL     1       7.260   4.111  12.132  0.00  0.00    +0.000 C 
ATOM     13  C   UNL     1       7.537   4.988  13.357  0.00  0.00    +0.000 C 
ENDBRANCH   5   7
BRANCH   1  17
ATOM     14  C   UNL     1       1.373   9.289  19.455  0.00  0.00    +0.000 A 
ATOM     15  C   UNL     1       1.593   8.165  20.243  0.00  0.00    +0.000 A 
ATOM     16  C   UNL     1       2.267   7.056  19.722  0.00  0.00    +0.000 A 
ATOM     17  C   UNL     1       2.704   7.021  18.387  0.00  0.00    +0.000 A 
ATOM     18  C   UNL     1       2.451   8.169  17.609  0.00  0.00    +0.000 A 
ATOM     19  C   UNL     1       1.795   9.288  18.131  0.00  0.00    +0.000 A 
BRANCH  14  20
ATOM     20  O   UNL     1       0.735  10.324  20.073  0.00  0.00    +0.000 OA
BRANCH  20  22
ATOM     21  C   UNL     1      -1.340  10.632  18.965  0.00  0.00    +0.000 C 
ATOM     22  C   UNL     1       0.036  11.219  19.211  0.00  0.00    +0.000 C 
ENDBRANCH  20  22
ENDBRANCH  14  20
ENDBRANCH   1  17
TORSDOF 4
ENDMDL
MODEL 3
REMARK VINA RESULT:      -7.5      1.808      2.552
REMARK  Name = 
REMARK  5 active torsions:
REMARK  status: ('A' for Active; 'I' for Inactive)
REMARK    1  A    between atoms: C_1  and  C_2
REMARK    2  A    between atoms: C_2  and  O_3
REMARK    3  A    between atoms: O_3  and  C_4
REMARK    4  A    between atoms: C_7  and  C_8
REMARK    5  A    between atoms: C_12  and  C_13
REMARK                            x       y       z     vdW  Elec       q    Type
REMARK                         _______ _______ _______ _____ _____    ______ ____
ROOT
ATOM      1  C   UNL     1       2.487   6.382  19.706  0.00  0.00    +0.000 A 
ATOM      2  C   UNL     1       1.902   5.265  20.323  0.00  0.00    +0.000 A 
ATOM      3  C   UNL     1       2.536   4.019  20.322  0.00  0.00    +0.000 A 
ATOM      4  C   UNL     1       3.796   3.877  19.740  0.00  0.00    +0.000 A 
ATOM      5  C   UNL     1       4.396   4.958  19.111  0.00  0.00    +0.000 A 
ATOM      6  C   UNL     1       3.696   6.161  19.030  0.00  0.00    +0.000 A 
ENDROOT
BRANCH   5   7
ATOM      7  C   UNL     1       5.741   4.795  18.477  0.00  0.00    +0.000 C 
ATOM      8  O   UNL     1       6.694   4.569  19.226  0.00  0.00    +0.000 OA
ATOM      9  N   UNL     1       5.906   4.881  17.100  0.00  0.00    +0.000 N 
ATOM     10  C   UNL     1       5.006   5.319  16.040  0.00  0.00    +0.000 C 
ATOM     11  C   UNL     1       5.462   4.461  14.875  0.00  0.00    +0.000 C 
ATOM     12  C   UNL     1       6.975   4.515  15.015  0.00  0.00    +0.000 C 
ATOM     13  C   UNL     1       7.219   4.631  16.523  0.00  0.00    +0.000 C 
ENDBRANCH   5   7
BRANCH   1  17
ATOM     14  C   UNL     1       0.672  10.299  19.885  0.00  0.00    +0.000 A 
ATOM     15  C   UNL     1       1.280   9.856  18.716  0.00  0.00    +0.000 A 
ATOM     16  C   UNL     1       1.865   8.588  18.660  0.00  0.00    +0.000 A 
ATOM     17  C   UNL     1       1.898   7.742  19.782  0.00  0.00    +0.000 A 
ATOM     18  C   UNL     1       1.288   8.227  20.957  0.00  0.00    +0.000 A 
ATOM     19  C   UNL     1       0.683   9.487  21.012  0.00  0.00    +0.000 A 
BRANCH  14  20
ATOM     20  O   UNL     1       0.105  11.538  19.818  0.00  0.00    +0.000 OA
BRANCH  20  22
ATOM     21  C   UNL     1      -0.462  13.261  18.288  0.00  0.00    +0.000 C 
ATOM     22  C   UNL     1      -0.662  11.801  18.645  0.00  0.00    +0.000 C 
ENDBRANCH  20  22
ENDBRANCH  14  20
ENDBRANCH   1  17
TORSDOF 4
ENDMDL
MODEL 4
REMARK VINA RESULT:      -7.5      1.854      2.796
REMARK  Name = 
REMARK  5 active torsions:
REMARK  status: ('A' for Active; 'I' for Inactive)
REMARK    1  A    between atoms: C_1  and  C_2
REMARK    2  A    between atoms: C_2  and  O_3
REMARK    3  A    between atoms: O_3  and  C_4
REMARK    4  A    between atoms: C_7  and  C_8
REMARK    5  A    between atoms: C_12  and  C_13
REMARK                            x       y       z     vdW  Elec       q    Type
REMARK                         _______ _______ _______ _____ _____    ______ ____
ROOT
ATOM      1  C   UNL     1       2.414   6.416  19.702  0.00  0.00    +0.000 A 
ATOM      2  C   UNL     1       1.825   5.311  20.336  0.00  0.00    +0.000 A 
ATOM      3  C   UNL     1       2.466   4.068  20.377  0.00  0.00    +0.000 A 
ATOM      4  C   UNL     1       3.737   3.920  19.821  0.00  0.00    +0.000 A 
ATOM      5  C   UNL     1       4.342   4.989  19.176  0.00  0.00    +0.000 A 
ATOM      6  C   UNL     1       3.637   6.186  19.053  0.00  0.00    +0.000 A 
ENDROOT
BRANCH   5   7
ATOM      7  C   UNL     1       5.699   4.818  18.571  0.00  0.00    +0.000 C 
ATOM      8  O   UNL     1       6.638   4.609  19.341  0.00  0.00    +0.000 OA
ATOM      9  N   UNL     1       5.889   4.880  17.196  0.00  0.00    +0.000 N 
ATOM     10  C   UNL     1       5.009   5.297  16.111  0.00  0.00    +0.000 C 
ATOM     11  C   UNL     1       5.488   4.420  14.970  0.00  0.00    +0.000 C 
ATOM     12  C   UNL     1       6.998   4.481  15.137  0.00  0.00    +0.000 C 
ATOM     13  C   UNL     1       7.214   4.625  16.647  0.00  0.00    +0.000 C 
ENDBRANCH   5   7
BRANCH   1  17
ATOM     14  C   UNL     1       0.775  10.412  19.833  0.00  0.00    +0.000 A 
ATOM     15  C   UNL     1       0.760   9.604  20.965  0.00  0.00    +0.000 A 
ATOM     16  C   UNL     1       1.292   8.313  20.920  0.00  0.00    +0.000 A 
ATOM     17  C   UNL     1       1.816   7.773  19.733  0.00  0.00    +0.000 A 
ATOM     18  C   UNL     1       1.803   8.610  18.598  0.00  0.00    +0.000 A 
ATOM     19  C   UNL     1       1.290   9.910  18.643  0.00  0.00    +0.000 A 
BRANCH  14  20
ATOM     20  O   UNL     1       0.260  11.664  19.997  0.00  0.00    +0.000 OA
BRANCH  20  22
ATOM     21  C   UNL     1      -0.465  13.158  18.303  0.00  0.00    +0.000 C 
ATOM     22  C   UNL     1      -0.859  11.982  19.174  0.00  0.00    +0.000 C 
ENDBRANCH  20  22
ENDBRANCH  14  20
ENDBRANCH   1  17
TORSDOF 4
ENDMDL
MODEL 5
REMARK VINA RESULT:      -7.4      2.037      3.051
REMARK  Name = 
REMARK  5 active torsions:
REMARK  status: ('A' for Active; 'I' for Inactive)
REMARK    1  A    between atoms: C_1  and  C_2
REMARK    2  A    between atoms: C_2  and  O_3
REMARK    3  A    between atoms: O_3  and  C_4
REMARK    4  A    between atoms: C_7  and  C_8
REMARK    5  A    between atoms: C_12  and  C_13
REMARK                            x       y       z     vdW  Elec       q    Type
REMARK                         _______ _______ _______ _____ _____    ______ ____
ROOT
ATOM      1  C   UNL     1       2.297   6.309  19.912  0.00  0.00    +0.000 A 
ATOM      2  C   UNL     1       1.667   5.144  20.377  0.00  0.00    +0.000 A 
ATOM      3  C   UNL     1       2.285   3.894  20.280  0.00  0.00    +0.000 A 
ATOM      4  C   UNL     1       3.574   3.791  19.756  0.00  0.00    +0.000 A 
ATOM      5  C   UNL     1       4.220   4.922  19.276  0.00  0.00    +0.000 A 
ATOM      6  C   UNL     1       3.540   6.139  19.283  0.00  0.00    +0.000 A 
ENDROOT
BRANCH   5   7
ATOM      7  C   UNL     1       5.597   4.802  18.703  0.00  0.00    +0.000 C 
ATOM      8  O   UNL     1       6.525   4.627  19.496  0.00  0.00    +0.000 OA
ATOM      9  N   UNL     1       5.816   4.871  17.333  0.00  0.00    +0.000 N 
ATOM     10  C   UNL     1       4.947   5.255  16.228  0.00  0.00    +0.000 C 
ATOM     11  C   UNL     1       5.485   4.397  15.099  0.00  0.00    +0.000 C 
ATOM     12  C   UNL     1       6.988   4.514  15.301  0.00  0.00    +0.000 C 
ATOM     13  C   UNL     1       7.163   4.665  16.816  0.00  0.00    +0.000 C 
ENDBRANCH   5   7
BRANCH   1  17
ATOM     14  C   UNL     1       0.723  10.291  20.488  0.00  0.00    +0.000 A 
ATOM     15  C   UNL     1       0.762   9.388  21.544  0.00  0.00    +0.000 A 
ATOM     16  C   UNL     1       1.273   8.101  21.356  0.00  0.00    +0.000 A 
ATOM     17  C   UNL     1       1.720   7.664  20.098  0.00  0.00    +0.000 A 
ATOM     18  C   UNL     1       1.653   8.597  19.043  0.00  0.00    +0.000 A 
ATOM     19  C   UNL     1       1.160   9.892  19.231  0.00  0.00    +0.000 A 
BRANCH  14  20
ATOM     20  O   UNL     1       0.235  11.528  20.791  0.00  0.00    +0.000 OA
BRANCH  20  22
ATOM     21  C   UNL     1      -0.862  12.782  22.481  0.00  0.00    +0.000 C 
ATOM     22  C   UNL     1      -0.935  11.546  21.606  0.00  0.00    +0.000 C 
ENDBRANCH  20  22
ENDBRANCH  14  20
ENDBRANCH   1  17
TORSDOF 4
ENDMDL
MODEL 6
REMARK VINA RESULT:      -7.4      1.951      2.779
REMARK  Name = 
REMARK  5 active torsions:
REMARK  status: ('A' for Active; 'I' for Inactive)
REMARK    1  A    between atoms: C_1  and  C_2
REMARK    2  A    between atoms: C_2  and  O_3
REMARK    3  A    between atoms: O_3  and  C_4
REMARK    4  A    between atoms: C_7  and  C_8
REMARK    5  A    between atoms: C_12  and  C_13
REMARK                            x       y       z     vdW  Elec       q    Type
REMARK                         _______ _______ _______ _____ _____    ______ ____
ROOT
ATOM      1  C   UNL     1       2.344   6.353  19.857  0.00  0.00    +0.000 A 
ATOM      2  C   UNL     1       1.723   5.206  20.376  0.00  0.00    +0.000 A 
ATOM      3  C   UNL     1       2.342   3.954  20.320  0.00  0.00    +0.000 A 
ATOM      4  C   UNL     1       3.623   3.833  19.781  0.00  0.00    +0.000 A 
ATOM      5  C   UNL     1       4.260   4.945  19.248  0.00  0.00    +0.000 A 
ATOM      6  C   UNL     1       3.577   6.160  19.217  0.00  0.00    +0.000 A 
ENDROOT
BRANCH   5   7
ATOM      7  C   UNL     1       5.628   4.804  18.659  0.00  0.00    +0.000 C 
ATOM      8  O   UNL     1       6.562   4.617  19.441  0.00  0.00    +0.000 OA
ATOM      9  N   UNL     1       5.833   4.869  17.287  0.00  0.00    +0.000 N 
ATOM     10  C   UNL     1       4.957   5.264  16.191  0.00  0.00    +0.000 C 
ATOM     11  C   UNL     1       5.470   4.396  15.057  0.00  0.00    +0.000 C 
ATOM     12  C   UNL     1       6.976   4.493  15.242  0.00  0.00    +0.000 C 
ATOM     13  C   UNL     1       7.170   4.643  16.754  0.00  0.00    +0.000 C 
ENDBRANCH   5   7
BRANCH   1  17
ATOM     14  C   UNL     1       0.564  10.273  20.224  0.00  0.00    +0.000 A 
ATOM     15  C   UNL     1       1.156   9.875  19.030  0.00  0.00    +0.000 A 
ATOM     16  C   UNL     1       1.730   8.606  18.914  0.00  0.00    +0.000 A 
ATOM     17  C   UNL     1       1.767   7.713  19.998  0.00  0.00    +0.000 A 
ATOM     18  C   UNL     1       1.173   8.151  21.200  0.00  0.00    +0.000 A 
ATOM     19  C   UNL     1       0.581   9.413  21.315  0.00  0.00    +0.000 A 
BRANCH  14  20
ATOM     20  O   UNL     1       0.007  11.518  20.216  0.00  0.00    +0.000 OA
BRANCH  20  22
ATOM     21  C   UNL     1      -1.697  12.161  21.737  0.00  0.00    +0.000 C 
ATOM     22  C   UNL     1      -0.201  12.107  21.498  0.00  0.00    +0.000 C 
ENDBRANCH  20  22
ENDBRANCH  14  20
ENDBRANCH   1  17
TORSDOF 4
ENDMDL
MODEL 7
REMARK VINA RESULT:      -7.4      2.273      7.671
REMARK  Name = 
REMARK  5 active torsions:
REMARK  status: ('A' for Active; 'I' for Inactive)
REMARK    1  A    between atoms: C_1  and  C_2
REMARK    2  A    between atoms: C_2  and  O_3
REMARK    3  A    between atoms: O_3  and  C_4
REMARK    4  A    between atoms: C_7  and  C_8
REMARK    5  A    between atoms: C_12  and  C_13
REMARK                            x       y       z     vdW  Elec       q    Type
REMARK                         _______ _______ _______ _____ _____    ______ ____
ROOT
ATOM      1  C   UNL     1       3.349   5.346  18.714  0.00  0.00    +0.000 A 
ATOM      2  C   UNL     1       2.838   4.225  19.387  0.00  0.00    +0.000 A 
ATOM      3  C   UNL     1       1.921   4.359  20.434  0.00  0.00    +0.000 A 
ATOM      4  C   UNL     1       1.459   5.624  20.799  0.00  0.00    +0.000 A 
ATOM      5  C   UNL     1       1.954   6.754  20.163  0.00  0.00    +0.000 A 
ATOM      6  C   UNL     1       2.949   6.601  19.198  0.00  0.00    +0.000 A 
ENDROOT
BRANCH   5   7
ATOM      7  C   UNL     1       1.465   8.108  20.569  0.00  0.00    +0.000 C 
ATOM      8  O   UNL     1       1.199   8.277  21.761  0.00  0.00    +0.000 OA
ATOM      9  N   UNL     1       1.330   9.135  19.643  0.00  0.00    +0.000 N 
ATOM     10  C   UNL     1       1.388   9.143  18.186  0.00  0.00    +0.000 C 
ATOM     11  C   UNL     1       1.941  10.528  17.908  0.00  0.00    +0.000 C 
ATOM     12  C   UNL     1       1.169  11.382  18.901  0.00  0.00    +0.000 C 
ATOM     13  C   UNL     1       0.930  10.459  20.100  0.00  0.00    +0.000 C 
ENDBRANCH   5   7
BRANCH   1  17
ATOM     14  C   UNL     1       5.838   5.007  15.199  0.00  0.00    +0.000 A 
ATOM     15  C   UNL     1       5.501   3.878  15.936  0.00  0.00    +0.000 A 
ATOM     16  C   UNL     1       4.694   3.990  17.073  0.00  0.00    +0.000 A 
ATOM     17  C   UNL     1       4.236   5.237  17.530  0.00  0.00    +0.000 A 
ATOM     18  C   UNL     1       4.609   6.365  16.771  0.00  0.00    +0.000 A 
ATOM     19  C   UNL     1       5.399   6.256  15.622  0.00  0.00    +0.000 A 
BRANCH  14  20
ATOM     20  O   UNL     1       6.602   4.779  14.092  0.00  0.00    +0.000 OA
BRANCH  20  22
ATOM     21  C   UNL     1       6.920   3.805  11.952  0.00  0.00    +0.000 C 
ATOM     22  C   UNL     1       6.191   3.684  13.276  0.00  0.00    +0.000 C 
ENDBRANCH  20  22
ENDBRANCH  14  20
ENDBRANCH   1  17
TORSDOF 4
ENDMDL
MODEL 8
REMARK VINA RESULT:      -7.3      2.617      8.101
REMARK  Name = 
REMARK  5 active torsions:
REMARK  status: ('A' for Active; 'I' for Inactive)
REMARK    1  A    between atoms: C_1  and  C_2
REMARK    2  A    between atoms: C_2  and  O_3
REMARK    3  A    between atoms: O_3  and  C_4
REMARK    4  A    between atoms: C_7  and  C_8
REMARK    5  A    between atoms: C_12  and  C_13
REMARK                            x       y       z     vdW  Elec       q    Type
REMARK                         _______ _______ _______ _____ _____    ______ ____
ROOT
ATOM      1  C   UNL     1       2.292   7.603  19.071  0.00  0.00    +0.000 A 
ATOM      2  C   UNL     1       2.049   7.344  20.428  0.00  0.00    +0.000 A 
ATOM      3  C   UNL     1       1.247   8.192  21.199  0.00  0.00    +0.000 A 
ATOM      4  C   UNL     1       0.631   9.296  20.609  0.00  0.00    +0.000 A 
ATOM      5  C   UNL     1       0.860   9.587  19.272  0.00  0.00    +0.000 A 
ATOM      6  C   UNL     1       1.751   8.790  18.554  0.00  0.00    +0.000 A 
ENDROOT
BRANCH   5   7
ATOM      7  C   UNL     1       0.207  10.780  18.650  0.00  0.00    +0.000 C 
ATOM      8  O   UNL     1       0.855  11.829  18.625  0.00  0.00    +0.000 OA
ATOM      9  N   UNL     1      -1.071  10.705  18.111  0.00  0.00    +0.000 N 
ATOM     10  C   UNL     1      -2.096   9.671  18.183  0.00  0.00    +0.000 C 
ATOM     11  C   UNL     1      -2.800   9.841  16.850  0.00  0.00    +0.000 C 
ATOM     12  C   UNL     1      -2.886  11.354  16.728  0.00  0.00    +0.000 C 
ATOM     13  C   UNL     1      -1.632  11.871  17.441  0.00  0.00    +0.000 C 
ENDBRANCH   5   7
BRANCH   1  17
ATOM     14  C   UNL     1       4.564   4.872  16.611  0.00  0.00    +0.000 A 
ATOM     15  C   UNL     1       4.864   6.230  16.621  0.00  0.00    +0.000 A 
ATOM     16  C   UNL     1       4.128   7.111  17.418  0.00  0.00    +0.000 A 
ATOM     17  C   UNL     1       3.045   6.669  18.197  0.00  0.00    +0.000 A 
ATOM     18  C   UNL     1       2.756   5.290  18.153  0.00  0.00    +0.000 A 
ATOM     19  C   UNL     1       3.501   4.401  17.372  0.00  0.00    +0.000 A 
BRANCH  14  20
ATOM     20  O   UNL     1       5.366   4.100  15.823  0.00  0.00    +0.000 OA
BRANCH  20  22
ATOM     21  C   UNL     1       6.137   3.883  13.590  0.00  0.00    +0.000 C 
ATOM     22  C   UNL     1       6.075   4.794  14.799  0.00  0.00    +0.000 C 
ENDBRANCH  20  22
ENDBRANCH  14  20
ENDBRANCH   1  17
TORSDOF 4
ENDMDL
MODEL 9
REMARK VINA RESULT:      -7.3      2.650      8.153
REMARK  Name = 
REMARK  5 active torsions:
REMARK  status: ('A' for Active; 'I' for Inactive)
REMARK    1  A    between atoms: C_1  and  C_2
REMARK    2  A    between atoms: C_2  and  O_3
REMARK    3  A    between atoms: O_3  and  C_4
REMARK    4  A    between atoms: C_7  and  C_8
REMARK    5  A    between atoms: C_12  and  C_13
REMARK                            x       y       z     vdW  Elec       q    Type
REMARK                         _______ _______ _______ _____ _____    ______ ____
ROOT
ATOM      1  C   UNL     1       2.229   7.617  19.174  0.00  0.00    +0.000 A 
ATOM      2  C   UNL     1       1.923   7.352  20.518  0.00  0.00    +0.000 A 
ATOM      3  C   UNL     1       1.081   8.193  21.253  0.00  0.00    +0.000 A 
ATOM      4  C   UNL     1       0.489   9.297  20.638  0.00  0.00    +0.000 A 
ATOM      5  C   UNL     1       0.780   9.594  19.315  0.00  0.00    +0.000 A 
ATOM      6  C   UNL     1       1.707   8.804  18.637  0.00  0.00    +0.000 A 
ENDROOT
BRANCH   5   7
ATOM      7  C   UNL     1       0.152  10.787  18.667  0.00  0.00    +0.000 C 
ATOM      8  O   UNL     1       0.803  11.834  18.661  0.00  0.00    +0.000 OA
ATOM      9  N   UNL     1      -1.107  10.713  18.084  0.00  0.00    +0.000 N 
ATOM     10  C   UNL     1      -2.137   9.682  18.124  0.00  0.00    +0.000 C 
ATOM     11  C   UNL     1      -2.793   9.849  16.767  0.00  0.00    +0.000 C 
ATOM     12  C   UNL     1      -2.872  11.362  16.638  0.00  0.00    +0.000 C 
ATOM     13  C   UNL     1      -1.642  11.878  17.392  0.00  0.00    +0.000 C 
ENDBRANCH   5   7
BRANCH   1  17
ATOM     14  C   UNL     1       4.471   4.927  16.643  0.00  0.00    +0.000 A 
ATOM     15  C   UNL     1       3.475   4.441  17.483  0.00  0.00    +0.000 A 
ATOM     16  C   UNL     1       2.750   5.313  18.300  0.00  0.00    +0.000 A 
ATOM     17  C   UNL     1       3.027   6.690  18.333  0.00  0.00    +0.000 A 
ATOM     18  C   UNL     1       4.053   7.150  17.483  0.00  0.00    +0.000 A 
ATOM     19  C   UNL     1       4.768   6.284  16.650  0.00  0.00    +0.000 A 
BRANCH  14  20
ATOM     20  O   UNL     1       5.091   3.992  15.867  0.00  0.00    +0.000 OA
BRANCH  20  22
ATOM     21  C   UNL     1       6.210   3.970  13.775  0.00  0.00    +0.000 C 
ATOM     22  C   UNL     1       6.285   4.426  15.219  0.00  0.00    +0.000 C 
ENDBRANCH  20  22
ENDBRANCH  14  20
ENDBRANCH   1  17
TORSDOF 4
ENDMDL
