MODEL 1
REMARK VINA RESULT:      -7.7      0.000      0.000
REMARK  Name = 
REMARK  6 active torsions:
REMARK  status: ('A' for Active; 'I' for Inactive)
REMARK    1  A    between atoms: C_1  and  C_2
REMARK    2  A    between atoms: C_7  and  C_8
REMARK    3  A    between atoms: C_15  and  C_16
REMARK    4  A    between atoms: C_16  and  O_17
REMARK    5  A    between atoms: C_19  and  C_21
REMARK    6  A    between atoms: C_21  and  C_22
REMARK                            x       y       z     vdW  Elec       q    Type
REMARK                         _______ _______ _______ _____ _____    ______ ____
ROOT
ATOM      1  C   UNL     1       0.515   8.552  21.860  0.00  0.00    +0.000 C 
ATOM      2  C   UNL     1       0.072   9.397  20.659  0.00  0.00    +0.000 C 
ATOM      3  C   UNL     1      -0.120  10.876  21.089  0.00  0.00    +0.000 A 
ATOM      4  C   UNL     1      -0.738  11.162  22.321  0.00  0.00    +0.000 A 
ATOM      5  C   UNL     1      -0.890  12.466  22.774  0.00  0.00    +0.000 A 
ATOM      6  C   UNL     1      -0.448  13.523  21.989  0.00  0.00    +0.000 A 
ATOM      7  C   UNL     1       0.115  13.306  20.721  0.00  0.00    +0.000 A 
ATOM      8  C   UNL     1       0.253  11.969  20.254  0.00  0.00    +0.000 A 
ATOM      9  C   UNL     1       0.792  11.678  18.870  0.00  0.00    +0.000 C 
ATOM     10  C   UNL     1       0.434  10.282  18.365  0.00  0.00    +0.000 C 
ATOM     11  N   UNL     1       0.855   9.294  19.384  0.00  0.00    +0.000 N 
ATOM     12  C   UNL     1       1.812   8.358  18.964  0.00  0.00    +0.000 C 
ATOM     13  O   UNL     1       2.199   8.323  17.790  0.00  0.00    +0.000 OA
ENDROOT
BRANCH   7  14
ATOM     14  C   UNL     1       0.528  14.475  19.941  0.00  0.00    +0.000 A 
ATOM     15  C   UNL     1       1.782  15.111  19.766  0.00  0.00    +0.000 A 
ATOM     16  N   UNL     1       1.729  16.159  18.940  0.00  0.00    +0.000 NA
ATOM     17  N   UNL     1       0.432  16.228  18.608  0.00  0.00    +0.000 N 
ATOM     18  C   UNL     1      -0.327  15.252  19.183  0.00  0.00    +0.000 A 
ATOM     19  H   UNL     1       0.134  16.971  17.983  0.00  0.00    +0.000 HD
ENDBRANCH   7  14
BRANCH  10  20
ATOM     20  C   UNL     1      -1.056  10.174  17.957  0.00  0.00    +0.000 C 
BRANCH  20  21
ATOM     21  O   UNL     1      -1.484  11.329  17.237  0.00  0.00    +0.000 OA
ATOM     22  H   UNL     1      -0.856  12.046  17.441  0.00  0.00    +0.000 HD
ENDBRANCH  20  21
ENDBRANCH  10  20
BRANCH  12  23
ATOM     23  C   UNL     1       2.371   7.356  19.955  0.00  0.00    +0.000 C 
BRANCH  23  24
ATOM     24  C   UNL     1       2.157   5.883  19.673  0.00  0.00    +0.000 A 
ATOM     25  C   UNL     1       1.162   5.194  20.393  0.00  0.00    +0.000 A 
ATOM     26  C   UNL     1       1.027   3.811  20.270  0.00  0.00    +0.000 A 
ATOM     27  C   UNL     1       1.875   3.113  19.422  0.00  0.00    +0.000 A 
ATOM     28  F   UNL     1       1.751   1.783  19.317  0.00  0.00    +0.000 F 
ATOM     29  C   UNL     1       2.866   3.765  18.701  0.00  0.00    +0.000 A 
ATOM     30  C   UNL     1       3.013   5.147  18.830  0.00  0.00    +0.000 A 
ATOM     31 CL   UNL     1       4.333   5.892  17.999  0.00  0.00    +0.000 Cl
ENDBRANCH  23  24
ENDBRANCH  12  23
TORSDOF 5
ENDMDL
MODEL 2
REMARK VINA RESULT:      -7.7      0.935      1.028
REMARK  Name = 
REMARK  6 active torsions:
REMARK  status: ('A' for Active; 'I' for Inactive)
REMARK    1  A    between atoms: C_1  and  C_2
REMARK    2  A    between atoms: C_7  and  C_8
REMARK    3  A    between atoms: C_15  and  C_16
REMARK    4  A    between atoms: C_16  and  O_17
REMARK    5  A    between atoms: C_19  and  C_21
REMARK    6  A    between atoms: C_21  and  C_22
REMARK                            x       y       z     vdW  Elec       q    Type
REMARK                         _______ _______ _______ _____ _____    ______ ____
ROOT
ATOM      1  C   UNL     1       0.690   8.103  21.376  0.00  0.00    +0.000 C 
ATOM      2  C   UNL     1       0.134   9.112  20.362  0.00  0.00    +0.000 C 
ATOM      3  C   UNL     1      -0.166  10.464  21.064  0.00  0.00    +0.000 A 
ATOM      4  C   UNL     1      -0.762  10.462  22.340  0.00  0.00    +0.000 A 
ATOM      5  C   UNL     1      -1.006  11.642  23.030  0.00  0.00    +0.000 A 
ATOM      6  C   UNL     1      -0.683  12.860  22.447  0.00  0.00    +0.000 A 
ATOM      7  C   UNL     1      -0.150  12.931  21.150  0.00  0.00    +0.000 A 
ATOM      8  C   UNL     1       0.083  11.721  20.440  0.00  0.00    +0.000 A 
ATOM      9  C   UNL     1       0.595  11.738  19.016  0.00  0.00    +0.000 C 
ATOM     10  C   UNL     1       0.338  10.432  18.267  0.00  0.00    +0.000 C 
ATOM     11  N   UNL     1       0.877   9.315  19.076  0.00  0.00    +0.000 N 
ATOM     12  C   UNL     1       1.894   8.562  18.470  0.00  0.00    +0.000 C 
ATOM     13  O   UNL     1       2.240   8.778  17.303  0.00  0.00    +0.000 OA
ENDROOT
BRANCH   7  14
ATOM     14  C   UNL     1       0.135  14.256  20.594  0.00  0.00    +0.000 A 
ATOM     15  C   UNL     1       1.310  15.047  20.567  0.00  0.00    +0.000 A 
ATOM     16  N   UNL     1       1.146  16.209  19.930  0.00  0.00    +0.000 NA
ATOM     17  N   UNL     1      -0.147  16.191  19.577  0.00  0.00    +0.000 N 
ATOM     18  C   UNL     1      -0.796  15.052  19.955  0.00  0.00    +0.000 A 
ATOM     19  H   UNL     1      -0.521  16.993  19.080  0.00  0.00    +0.000 HD
ENDBRANCH   7  14
BRANCH  10  20
ATOM     20  C   UNL     1      -1.151  10.268  17.875  0.00  0.00    +0.000 C 
BRANCH  20  21
ATOM     21  O   UNL     1      -1.626  11.400  17.148  0.00  0.00    +0.000 OA
ATOM     22  H   UNL     1      -2.464  11.140  16.723  0.00  0.00    +0.000 HD
ENDBRANCH  20  21
ENDBRANCH  10  20
BRANCH  12  23
ATOM     23  C   UNL     1       2.570   7.449  19.246  0.00  0.00    +0.000 C 
BRANCH  23  24
ATOM     24  C   UNL     1       2.586   6.063  18.633  0.00  0.00    +0.000 A 
ATOM     25  C   UNL     1       1.624   5.126  19.056  0.00  0.00    +0.000 A 
ATOM     26  C   UNL     1       1.689   3.801  18.628  0.00  0.00    +0.000 A 
ATOM     27  C   UNL     1       2.705   3.408  17.768  0.00  0.00    +0.000 A 
ATOM     28  F   UNL     1       2.771   2.131  17.369  0.00  0.00    +0.000 F 
ATOM     29  C   UNL     1       3.668   4.309  17.335  0.00  0.00    +0.000 A 
ATOM     30  C   UNL     1       3.614   5.634  17.772  0.00  0.00    +0.000 A 
ATOM     31 CL   UNL     1       4.900   6.686  17.294  0.00  0.00    +0.000 Cl
ENDBRANCH  23  24
ENDBRANCH  12  23
TORSDOF 5
ENDMDL
MODEL 3
REMARK VINA RESULT:      -7.7      6.142      8.947
REMARK  Name = 
REMARK  6 active torsions:
REMARK  status: ('A' for Active; 'I' for Inactive)
REMARK    1  A    between atoms: C_1  and  C_2
REMARK    2  A    between atoms: C_7  and  C_8
REMARK    3  A    between atoms: C_15  and  C_16
REMARK    4  A    between atoms: C_16  and  O_17
REMARK    5  A    between atoms: C_19  and  C_21
REMARK    6  A    between atoms: C_21  and  C_22
REMARK                            x       y       z     vdW  Elec       q    Type
REMARK                         _______ _______ _______ _____ _____    ______ ____
ROOT
ATOM      1  C   UNL     1       4.543   7.285  15.681  0.00  0.00    +0.000 C 
ATOM      2  C   UNL     1       4.958   6.525  16.948  0.00  0.00    +0.000 C 
ATOM      3  C   UNL     1       3.815   6.574  17.998  0.00  0.00    +0.000 A 
ATOM      4  C   UNL     1       3.106   7.775  18.189  0.00  0.00    +0.000 A 
ATOM      5  C   UNL     1       2.044   7.859  19.080  0.00  0.00    +0.000 A 
ATOM      6  C   UNL     1       1.681   6.744  19.825  0.00  0.00    +0.000 A 
ATOM      7  C   UNL     1       2.392   5.537  19.729  0.00  0.00    +0.000 A 
ATOM      8  C   UNL     1       3.490   5.462  18.827  0.00  0.00    +0.000 A 
ATOM      9  C   UNL     1       4.334   4.209  18.728  0.00  0.00    +0.000 C 
ATOM     10  C   UNL     1       5.703   4.452  18.099  0.00  0.00    +0.000 C 
ATOM     11  N   UNL     1       5.507   5.137  16.801  0.00  0.00    +0.000 N 
ATOM     12  C   UNL     1       5.970   4.443  15.672  0.00  0.00    +0.000 C 
ATOM     13  O   UNL     1       6.580   3.374  15.786  0.00  0.00    +0.000 OA
ENDROOT
BRANCH   7  14
ATOM     14  C   UNL     1       1.966   4.417  20.571  0.00  0.00    +0.000 A 
ATOM     15  C   UNL     1       2.482   3.879  21.775  0.00  0.00    +0.000 A 
ATOM     16  N   UNL     1       1.772   2.846  22.235  0.00  0.00    +0.000 NA
ATOM     17  N   UNL     1       0.817   2.687  21.309  0.00  0.00    +0.000 N 
ATOM     18  C   UNL     1       0.892   3.594  20.292  0.00  0.00    +0.000 A 
ATOM     19  H   UNL     1       0.145   1.936  21.434  0.00  0.00    +0.000 HD
ENDBRANCH   7  14
BRANCH  10  20
ATOM     20  C   UNL     1       6.665   5.189  19.063  0.00  0.00    +0.000 C 
BRANCH  20  21
ATOM     21  O   UNL     1       8.022   4.808  18.837  0.00  0.00    +0.000 OA
ATOM     22  H   UNL     1       8.028   3.850  18.658  0.00  0.00    +0.000 HD
ENDBRANCH  20  21
ENDBRANCH  10  20
BRANCH  12  23
ATOM     23  C   UNL     1       5.742   5.020  14.289  0.00  0.00    +0.000 C 
BRANCH  23  24
ATOM     24  C   UNL     1       6.074   4.151  13.093  0.00  0.00    +0.000 A 
ATOM     25  C   UNL     1       5.200   3.100  12.758  0.00  0.00    +0.000 A 
ATOM     26  C   UNL     1       5.537   2.188  11.758  0.00  0.00    +0.000 A 
ATOM     27  C   UNL     1       6.741   2.328  11.082  0.00  0.00    +0.000 A 
ATOM     28  F   UNL     1       7.067   1.443  10.131  0.00  0.00    +0.000 F 
ATOM     29  C   UNL     1       7.624   3.353  11.392  0.00  0.00    +0.000 A 
ATOM     30  C   UNL     1       7.296   4.260  12.401  0.00  0.00    +0.000 A 
ATOM     31 CL   UNL     1       8.479   5.448  12.824  0.00  0.00    +0.000 Cl
ENDBRANCH  23  24
ENDBRANCH  12  23
TORSDOF 5
ENDMDL
MODEL 4
REMARK VINA RESULT:      -7.4      6.190      8.892
REMARK  Name = 
REMARK  6 active torsions:
REMARK  status: ('A' for Active; 'I' for Inactive)
REMARK    1  A    between atoms: C_1  and  C_2
REMARK    2  A    between atoms: C_7  and  C_8
REMARK    3  A    between atoms: C_15  and  C_16
REMARK    4  A    between atoms: C_16  and  O_17
REMARK    5  A    between atoms: C_19  and  C_21
REMARK    6  A    between atoms: C_21  and  C_22
REMARK                            x       y       z     vdW  Elec       q    Type
REMARK                         _______ _______ _______ _____ _____    ______ ____
ROOT
ATOM      1  C   UNL     1       5.405   7.399  15.880  0.00  0.00    +0.000 C 
ATOM      2  C   UNL     1       5.658   6.781  17.261  0.00  0.00    +0.000 C 
ATOM      3  C   UNL     1       4.319   6.631  18.032  0.00  0.00    +0.000 A 
ATOM      4  C   UNL     1       3.369   7.668  17.972  0.00  0.00    +0.000 A 
ATOM      5  C   UNL     1       2.137   7.563  18.604  0.00  0.00    +0.000 A 
ATOM      6  C   UNL     1       1.833   6.423  19.337  0.00  0.00    +0.000 A 
ATOM      7  C   UNL     1       2.765   5.383  19.490  0.00  0.00    +0.000 A 
ATOM      8  C   UNL     1       4.033   5.503  18.855  0.00  0.00    +0.000 A 
ATOM      9  C   UNL     1       5.100   4.445  19.037  0.00  0.00    +0.000 C 
ATOM     10  C   UNL     1       6.504   4.942  18.702  0.00  0.00    +0.000 C 
ATOM     11  N   UNL     1       6.481   5.530  17.344  0.00  0.00    +0.000 N 
ATOM     12  C   UNL     1       7.312   4.909  16.399  0.00  0.00    +0.000 C 
ATOM     13  O   UNL     1       8.073   3.990  16.723  0.00  0.00    +0.000 OA
ENDROOT
BRANCH   7  14
ATOM     14  C   UNL     1       2.381   4.227  20.303  0.00  0.00    +0.000 A 
ATOM     15  C   UNL     1       2.468   3.968  21.693  0.00  0.00    +0.000 A 
ATOM     16  N   UNL     1       1.979   2.774  22.036  0.00  0.00    +0.000 NA
ATOM     17  N   UNL     1       1.609   2.240  20.863  0.00  0.00    +0.000 N 
ATOM     18  C   UNL     1       1.834   3.063  19.799  0.00  0.00    +0.000 A 
ATOM     19  H   UNL     1       1.210   1.307  20.864  0.00  0.00    +0.000 HD
ENDBRANCH   7  14
BRANCH  10  20
ATOM     20  C   UNL     1       7.063   5.889  19.792  0.00  0.00    +0.000 C 
BRANCH  20  21
ATOM     21  O   UNL     1       8.129   5.277  20.518  0.00  0.00    +0.000 OA
ATOM     22  H   UNL     1       7.747   4.904  21.333  0.00  0.00    +0.000 HD
ENDBRANCH  20  21
ENDBRANCH  10  20
BRANCH  12  23
ATOM     23  C   UNL     1       7.299   5.382  14.958  0.00  0.00    +0.000 C 
BRANCH  23  24
ATOM     24  C   UNL     1       6.704   4.460  13.914  0.00  0.00    +0.000 A 
ATOM     25  C   UNL     1       7.382   4.297  12.691  0.00  0.00    +0.000 A 
ATOM     26  C   UNL     1       6.802   3.575  11.648  0.00  0.00    +0.000 A 
ATOM     27  C   UNL     1       5.549   3.004  11.825  0.00  0.00    +0.000 A 
ATOM     28  F   UNL     1       4.989   2.322  10.818  0.00  0.00    +0.000 F 
ATOM     29  C   UNL     1       4.856   3.150  13.019  0.00  0.00    +0.000 A 
ATOM     30  C   UNL     1       5.428   3.882  14.060  0.00  0.00    +0.000 A 
ATOM     31 CL   UNL     1       4.476   4.128  15.483  0.00  0.00    +0.000 Cl
ENDBRANCH  23  24
ENDBRANCH  12  23
TORSDOF 5
ENDMDL
MODEL 5
REMARK VINA RESULT:      -7.3      1.405      1.934
REMARK  Name = 
REMARK  6 active torsions:
REMARK  status: ('A' for Active; 'I' for Inactive)
REMARK    1  A    between atoms: C_1  and  C_2
REMARK    2  A    between atoms: C_7  and  C_8
REMARK    3  A    between atoms: C_15  and  C_16
REMARK    4  A    between atoms: C_16  and  O_17
REMARK    5  A    between atoms: C_19  and  C_21
REMARK    6  A    between atoms: C_21  and  C_22
REMARK                            x       y       z     vdW  Elec       q    Type
REMARK                         _______ _______ _______ _____ _____    ______ ____
ROOT
ATOM      1  C   UNL     1       0.316   8.660  21.616  0.00  0.00    +0.000 C 
ATOM      2  C   UNL     1      -0.167   9.635  20.535  0.00  0.00    +0.000 C 
ATOM      3  C   UNL     1      -0.399  11.042  21.150  0.00  0.00    +0.000 A 
ATOM      4  C   UNL     1      -1.013  11.149  22.413  0.00  0.00    +0.000 A 
ATOM      5  C   UNL     1      -1.200  12.380  23.028  0.00  0.00    +0.000 A 
ATOM      6  C   UNL     1      -0.800  13.542  22.380  0.00  0.00    +0.000 A 
ATOM      7  C   UNL     1      -0.244  13.505  21.091  0.00  0.00    +0.000 A 
ATOM      8  C   UNL     1      -0.070  12.243  20.458  0.00  0.00    +0.000 A 
ATOM      9  C   UNL     1       0.464  12.146  19.045  0.00  0.00    +0.000 C 
ATOM     10  C   UNL     1       0.144  10.814  18.370  0.00  0.00    +0.000 C 
ATOM     11  N   UNL     1       0.606   9.720  19.252  0.00  0.00    +0.000 N 
ATOM     12  C   UNL     1       1.587   8.875  18.710  0.00  0.00    +0.000 C 
ATOM     13  O   UNL     1       1.962   9.001  17.539  0.00  0.00    +0.000 OA
ENDROOT
BRANCH   7  14
ATOM     14  C   UNL     1       0.124  14.776  20.463  0.00  0.00    +0.000 A 
ATOM     15  C   UNL     1      -0.563  15.632  19.568  0.00  0.00    +0.000 A 
ATOM     16  N   UNL     1       0.135  16.724  19.246  0.00  0.00    +0.000 NA
ATOM     17  N   UNL     1       1.293  16.558  19.900  0.00  0.00    +0.000 N 
ATOM     18  C   UNL     1       1.340  15.409  20.634  0.00  0.00    +0.000 A 
ATOM     19  H   UNL     1       2.009  17.270  19.798  0.00  0.00    +0.000 HD
ENDBRANCH   7  14
BRANCH  10  20
ATOM     20  C   UNL     1      -1.346  10.711  17.961  0.00  0.00    +0.000 C 
BRANCH  20  21
ATOM     21  O   UNL     1      -1.746  11.825  17.163  0.00  0.00    +0.000 OA
ATOM     22  H   UNL     1      -2.377  11.492  16.498  0.00  0.00    +0.000 HD
ENDBRANCH  20  21
ENDBRANCH  10  20
BRANCH  12  23
ATOM     23  C   UNL     1       2.187   7.774  19.563  0.00  0.00    +0.000 C 
BRANCH  23  24
ATOM     24  C   UNL     1       2.839   6.604  18.856  0.00  0.00    +0.000 A 
ATOM     25  C   UNL     1       3.773   6.866  17.835  0.00  0.00    +0.000 A 
ATOM     26  C   UNL     1       4.289   5.827  17.062  0.00  0.00    +0.000 A 
ATOM     27  C   UNL     1       3.885   4.522  17.311  0.00  0.00    +0.000 A 
ATOM     28  F   UNL     1       4.373   3.528  16.557  0.00  0.00    +0.000 F 
ATOM     29  C   UNL     1       2.964   4.234  18.309  0.00  0.00    +0.000 A 
ATOM     30  C   UNL     1       2.436   5.273  19.077  0.00  0.00    +0.000 A 
ATOM     31 CL   UNL     1       1.211   4.873  20.229  0.00  0.00    +0.000 Cl
ENDBRANCH  23  24
ENDBRANCH  12  23
TORSDOF 5
ENDMDL
MODEL 6
REMARK VINA RESULT:      -7.3      1.694      2.166
REMARK  Name = 
REMARK  6 active torsions:
REMARK  status: ('A' for Active; 'I' for Inactive)
REMARK    1  A    between atoms: C_1  and  C_2
REMARK    2  A    between atoms: C_7  and  C_8
REMARK    3  A    between atoms: C_15  and  C_16
REMARK    4  A    between atoms: C_16  and  O_17
REMARK    5  A    between atoms: C_19  and  C_21
REMARK    6  A    between atoms: C_21  and  C_22
REMARK                            x       y       z     vdW  Elec       q    Type
REMARK                         _______ _______ _______ _____ _____    ______ ____
ROOT
ATOM      1  C   UNL     1       0.846   8.192  21.313  0.00  0.00    +0.000 C 
ATOM      2  C   UNL     1       0.171   9.155  20.327  0.00  0.00    +0.000 C 
ATOM      3  C   UNL     1      -0.167  10.495  21.037  0.00  0.00    +0.000 A 
ATOM      4  C   UNL     1      -0.685  10.470  22.346  0.00  0.00    +0.000 A 
ATOM      5  C   UNL     1      -0.959  11.640  23.041  0.00  0.00    +0.000 A 
ATOM      6  C   UNL     1      -0.745  12.870  22.433  0.00  0.00    +0.000 A 
ATOM      7  C   UNL     1      -0.294  12.959  21.106  0.00  0.00    +0.000 A 
ATOM      8  C   UNL     1      -0.031  11.757  20.391  0.00  0.00    +0.000 A 
ATOM      9  C   UNL     1       0.395  11.791  18.939  0.00  0.00    +0.000 C 
ATOM     10  C   UNL     1       0.173  10.465  18.215  0.00  0.00    +0.000 C 
ATOM     11  N   UNL     1       0.824   9.390  18.997  0.00  0.00    +0.000 N 
ATOM     12  C   UNL     1       1.847   8.692  18.337  0.00  0.00    +0.000 C 
ATOM     13  O   UNL     1       2.110   8.917  17.150  0.00  0.00    +0.000 OA
ENDROOT
BRANCH   7  14
ATOM     14  C   UNL     1      -0.122  14.293  20.525  0.00  0.00    +0.000 A 
ATOM     15  C   UNL     1       1.024  15.096  20.301  0.00  0.00    +0.000 A 
ATOM     16  N   UNL     1       0.741  16.263  19.719  0.00  0.00    +0.000 NA
ATOM     17  N   UNL     1      -0.594  16.237  19.599  0.00  0.00    +0.000 N 
ATOM     18  C   UNL     1      -1.157  15.087  20.071  0.00  0.00    +0.000 A 
ATOM     19  H   UNL     1      -1.056  17.041  19.186  0.00  0.00    +0.000 HD
ENDBRANCH   7  14
BRANCH  10  20
ATOM     20  C   UNL     1      -1.324  10.209  17.913  0.00  0.00    +0.000 C 
BRANCH  20  21
ATOM     21  O   UNL     1      -1.711  10.786  16.666  0.00  0.00    +0.000 OA
ATOM     22  H   UNL     1      -1.221  11.623  16.571  0.00  0.00    +0.000 HD
ENDBRANCH  20  21
ENDBRANCH  10  20
BRANCH  12  23
ATOM     23  C   UNL     1       2.633   7.629  19.079  0.00  0.00    +0.000 C 
BRANCH  23  24
ATOM     24  C   UNL     1       3.359   6.582  18.260  0.00  0.00    +0.000 A 
ATOM     25  C   UNL     1       4.379   6.997  17.383  0.00  0.00    +0.000 A 
ATOM     26  C   UNL     1       4.975   6.090  16.507  0.00  0.00    +0.000 A 
ATOM     27  C   UNL     1       4.564   4.765  16.510  0.00  0.00    +0.000 A 
ATOM     28  F   UNL     1       5.129   3.899  15.658  0.00  0.00    +0.000 F 
ATOM     29  C   UNL     1       3.559   4.326  17.362  0.00  0.00    +0.000 A 
ATOM     30  C   UNL     1       2.952   5.234  18.231  0.00  0.00    +0.000 A 
ATOM     31 CL   UNL     1       1.631   4.663  19.190  0.00  0.00    +0.000 Cl
ENDBRANCH  23  24
ENDBRANCH  12  23
TORSDOF 5
ENDMDL
MODEL 7
REMARK VINA RESULT:      -7.0      3.515      4.751
REMARK  Name = 
REMARK  6 active torsions:
REMARK  status: ('A' for Active; 'I' for Inactive)
REMARK    1  A    between atoms: C_1  and  C_2
REMARK    2  A    between atoms: C_7  and  C_8
REMARK    3  A    between atoms: C_15  and  C_16
REMARK    4  A    between atoms: C_16  and  O_17
REMARK    5  A    between atoms: C_19  and  C_21
REMARK    6  A    between atoms: C_21  and  C_22
REMARK                            x       y       z     vdW  Elec       q    Type
REMARK                         _______ _______ _______ _____ _____    ______ ____
ROOT
ATOM      1  C   UNL     1      -2.058  10.480  17.492  0.00  0.00    +0.000 C 
ATOM      2  C   UNL     1      -1.796  11.778  18.266  0.00  0.00    +0.000 C 
ATOM      3  C   UNL     1      -2.996  12.092  19.201  0.00  0.00    +0.000 A 
ATOM      4  C   UNL     1      -4.307  11.895  18.730  0.00  0.00    +0.000 A 
ATOM      5  C   UNL     1      -5.412  12.115  19.542  0.00  0.00    +0.000 A 
ATOM      6  C   UNL     1      -5.232  12.566  20.843  0.00  0.00    +0.000 A 
ATOM      7  C   UNL     1      -3.953  12.846  21.349  0.00  0.00    +0.000 A 
ATOM      8  C   UNL     1      -2.825  12.635  20.508  0.00  0.00    +0.000 A 
ATOM      9  C   UNL     1      -1.427  12.980  20.976  0.00  0.00    +0.000 C 
ATOM     10  C   UNL     1      -0.431  13.144  19.830  0.00  0.00    +0.000 C 
ATOM     11  N   UNL     1      -0.488  11.931  18.984  0.00  0.00    +0.000 N 
ATOM     12  C   UNL     1       0.706  11.199  18.890  0.00  0.00    +0.000 C 
ATOM     13  O   UNL     1       1.748  11.607  19.416  0.00  0.00    +0.000 OA
ENDROOT
BRANCH   7  14
ATOM     14  C   UNL     1      -3.848  13.347  22.721  0.00  0.00    +0.000 A 
ATOM     15  C   UNL     1      -3.694  14.652  23.251  0.00  0.00    +0.000 A 
ATOM     16  N   UNL     1      -3.659  14.676  24.585  0.00  0.00    +0.000 NA
ATOM     17  N   UNL     1      -3.752  13.382  24.923  0.00  0.00    +0.000 N 
ATOM     18  C   UNL     1      -3.859  12.548  23.848  0.00  0.00    +0.000 A 
ATOM     19  H   UNL     1      -3.733  13.139  25.908  0.00  0.00    +0.000 HD
ENDBRANCH   7  14
BRANCH  10  20
ATOM     20  C   UNL     1      -0.646  14.467  19.054  0.00  0.00    +0.000 C 
BRANCH  20  21
ATOM     21  O   UNL     1       0.574  15.195  18.916  0.00  0.00    +0.000 OA
ATOM     22  H   UNL     1       0.495  15.741  18.113  0.00  0.00    +0.000 HD
ENDBRANCH  20  21
ENDBRANCH  10  20
BRANCH  12  23
ATOM     23  C   UNL     1       0.730   9.896  18.116  0.00  0.00    +0.000 C 
BRANCH  23  24
ATOM     24  C   UNL     1       1.584   8.766  18.654  0.00  0.00    +0.000 A 
ATOM     25  C   UNL     1       2.490   8.130  17.783  0.00  0.00    +0.000 A 
ATOM     26  C   UNL     1       3.191   6.996  18.194  0.00  0.00    +0.000 A 
ATOM     27  C   UNL     1       2.998   6.499  19.475  0.00  0.00    +0.000 A 
ATOM     28  F   UNL     1       3.663   5.402  19.861  0.00  0.00    +0.000 F 
ATOM     29  C   UNL     1       2.110   7.104  20.354  0.00  0.00    +0.000 A 
ATOM     30  C   UNL     1       1.398   8.231  19.943  0.00  0.00    +0.000 A 
ATOM     31 CL   UNL     1       0.224   8.878  21.035  0.00  0.00    +0.000 Cl
ENDBRANCH  23  24
ENDBRANCH  12  23
TORSDOF 5
ENDMDL
MODEL 8
REMARK VINA RESULT:      -7.0      6.319      8.939
REMARK  Name = 
REMARK  6 active torsions:
REMARK  status: ('A' for Active; 'I' for Inactive)
REMARK    1  A    between atoms: C_1  and  C_2
REMARK    2  A    between atoms: C_7  and  C_8
REMARK    3  A    between atoms: C_15  and  C_16
REMARK    4  A    between atoms: C_16  and  O_17
REMARK    5  A    between atoms: C_19  and  C_21
REMARK    6  A    between atoms: C_21  and  C_22
REMARK                            x       y       z     vdW  Elec       q    Type
REMARK                         _______ _______ _______ _____ _____    ______ ____
ROOT
ATOM      1  C   UNL     1       5.550   7.483  16.010  0.00  0.00    +0.000 C 
ATOM      2  C   UNL     1       5.728   6.801  17.373  0.00  0.00    +0.000 C 
ATOM      3  C   UNL     1       4.348   6.617  18.062  0.00  0.00    +0.000 A 
ATOM      4  C   UNL     1       3.402   7.658  17.998  0.00  0.00    +0.000 A 
ATOM      5  C   UNL     1       2.137   7.524  18.556  0.00  0.00    +0.000 A 
ATOM      6  C   UNL     1       1.796   6.352  19.217  0.00  0.00    +0.000 A 
ATOM      7  C   UNL     1       2.719   5.306  19.373  0.00  0.00    +0.000 A 
ATOM      8  C   UNL     1       4.019   5.453  18.814  0.00  0.00    +0.000 A 
ATOM      9  C   UNL     1       5.076   4.387  19.006  0.00  0.00    +0.000 C 
ATOM     10  C   UNL     1       6.496   4.897  18.772  0.00  0.00    +0.000 C 
ATOM     11  N   UNL     1       6.547   5.547  17.443  0.00  0.00    +0.000 N 
ATOM     12  C   UNL     1       7.429   4.969  16.517  0.00  0.00    +0.000 C 
ATOM     13  O   UNL     1       8.172   4.035  16.840  0.00  0.00    +0.000 OA
ENDROOT
BRANCH   7  14
ATOM     14  C   UNL     1       2.293   4.114  20.110  0.00  0.00    +0.000 A 
ATOM     15  C   UNL     1       2.218   3.825  21.495  0.00  0.00    +0.000 A 
ATOM     16  N   UNL     1       1.748   2.601  21.751  0.00  0.00    +0.000 NA
ATOM     17  N   UNL     1       1.554   2.080  20.531  0.00  0.00    +0.000 N 
ATOM     18  C   UNL     1       1.869   2.939  19.519  0.00  0.00    +0.000 A 
ATOM     19  H   UNL     1       1.204   1.130  20.464  0.00  0.00    +0.000 HD
ENDBRANCH   7  14
BRANCH  10  20
ATOM     20  C   UNL     1       6.994   5.792  19.933  0.00  0.00    +0.000 C 
BRANCH  20  21
ATOM     21  O   UNL     1       8.203   5.288  20.499  0.00  0.00    +0.000 OA
ATOM     22  H   UNL     1       8.697   6.051  20.853  0.00  0.00    +0.000 HD
ENDBRANCH  20  21
ENDBRANCH  10  20
BRANCH  12  23
ATOM     23  C   UNL     1       7.494   5.509  15.102  0.00  0.00    +0.000 C 
BRANCH  23  24
ATOM     24  C   UNL     1       6.799   4.722  14.009  0.00  0.00    +0.000 A 
ATOM     25  C   UNL     1       5.812   3.787  14.374  0.00  0.00    +0.000 A 
ATOM     26  C   UNL     1       5.249   2.940  13.419  0.00  0.00    +0.000 A 
ATOM     27  C   UNL     1       5.661   3.031  12.096  0.00  0.00    +0.000 A 
ATOM     28  F   UNL     1       5.128   2.207  11.184  0.00  0.00    +0.000 F 
ATOM     29  C   UNL     1       6.634   3.942  11.708  0.00  0.00    +0.000 A 
ATOM     30  C   UNL     1       7.208   4.782  12.663  0.00  0.00    +0.000 A 
ATOM     31 CL   UNL     1       8.493   5.818  12.148  0.00  0.00    +0.000 Cl
ENDBRANCH  23  24
ENDBRANCH  12  23
TORSDOF 5
ENDMDL
MODEL 9
REMARK VINA RESULT:      -6.8      1.997      2.552
REMARK  Name = 
REMARK  6 active torsions:
REMARK  status: ('A' for Active; 'I' for Inactive)
REMARK    1  A    between atoms: C_1  and  C_2
REMARK    2  A    between atoms: C_7  and  C_8
REMARK    3  A    between atoms: C_15  and  C_16
REMARK    4  A    between atoms: C_16  and  O_17
REMARK    5  A    between atoms: C_19  and  C_21
REMARK    6  A    between atoms: C_21  and  C_22
REMARK                            x       y       z     vdW  Elec       q    Type
REMARK                         _______ _______ _______ _____ _____    ______ ____
ROOT
ATOM      1  C   UNL     1       1.454   7.088  20.856  0.00  0.00    +0.000 C 
ATOM      2  C   UNL     1       0.781   8.181  20.016  0.00  0.00    +0.000 C 
ATOM      3  C   UNL     1       0.293   9.336  20.933  0.00  0.00    +0.000 A 
ATOM      4  C   UNL     1      -0.314   9.027  22.165  0.00  0.00    +0.000 A 
ATOM      5  C   UNL     1      -0.724  10.022  23.043  0.00  0.00    +0.000 A 
ATOM      6  C   UNL     1      -0.560  11.357  22.696  0.00  0.00    +0.000 A 
ATOM      7  C   UNL     1      -0.023  11.728  21.453  0.00  0.00    +0.000 A 
ATOM      8  C   UNL     1       0.380  10.705  20.550  0.00  0.00    +0.000 A 
ATOM      9  C   UNL     1       0.904  11.044  19.171  0.00  0.00    +0.000 C 
ATOM     10  C   UNL     1       0.835   9.872  18.195  0.00  0.00    +0.000 C 
ATOM     11  N   UNL     1       1.507   8.707  18.814  0.00  0.00    +0.000 N 
ATOM     12  C   UNL     1       2.625   8.213  18.123  0.00  0.00    +0.000 C 
ATOM     13  O   UNL     1       2.954   8.678  17.026  0.00  0.00    +0.000 OA
ENDROOT
BRANCH   7  14
ATOM     14  C   UNL     1       0.089  13.157  21.149  0.00  0.00    +0.000 A 
ATOM     15  C   UNL     1       1.152  14.081  21.290  0.00  0.00    +0.000 A 
ATOM     16  N   UNL     1       0.840  15.309  20.869  0.00  0.00    +0.000 NA
ATOM     17  N   UNL     1      -0.441  15.192  20.490  0.00  0.00    +0.000 N 
ATOM     18  C   UNL     1      -0.937  13.931  20.643  0.00  0.00    +0.000 A 
ATOM     19  H   UNL     1      -0.915  16.017  20.137  0.00  0.00    +0.000 HD
ENDBRANCH   7  14
BRANCH  10  20
ATOM     20  C   UNL     1      -0.613   9.589  17.725  0.00  0.00    +0.000 C 
BRANCH  20  21
ATOM     21  O   UNL     1      -1.271  10.787  17.313  0.00  0.00    +0.000 OA
ATOM     22  H   UNL     1      -2.192  10.551  17.096  0.00  0.00    +0.000 HD
ENDBRANCH  20  21
ENDBRANCH  10  20
BRANCH  12  23
ATOM     23  C   UNL     1       3.434   7.076  18.716  0.00  0.00    +0.000 C 
BRANCH  23  24
ATOM     24  C   UNL     1       4.047   6.069  17.764  0.00  0.00    +0.000 A 
ATOM     25  C   UNL     1       3.389   4.840  17.565  0.00  0.00    +0.000 A 
ATOM     26  C   UNL     1       3.988   3.830  16.813  0.00  0.00    +0.000 A 
ATOM     27  C   UNL     1       5.237   4.045  16.248  0.00  0.00    +0.000 A 
ATOM     28  F   UNL     1       5.814   3.067  15.537  0.00  0.00    +0.000 F 
ATOM     29  C   UNL     1       5.910   5.246  16.429  0.00  0.00    +0.000 A 
ATOM     30  C   UNL     1       5.320   6.255  17.191  0.00  0.00    +0.000 A 
ATOM     31 CL   UNL     1       6.247   7.686  17.479  0.00  0.00    +0.000 Cl
ENDBRANCH  23  24
ENDBRANCH  12  23
TORSDOF 5
ENDMDL
