MODEL 1
REMARK VINA RESULT:      -9.2      0.000      0.000
REMARK  Name = 
REMARK  5 active torsions:
REMARK  status: ('A' for Active; 'I' for Inactive)
REMARK    1  A    between atoms: C_2  and  C_5
REMARK    2  A    between atoms: C_8  and  N_9
REMARK    3  A    between atoms: N_9  and  C_10
REMARK    4  A    between atoms: C_16  and  C_17
REMARK    5  A    between atoms: C_22  and  C_23
REMARK                            x       y       z     vdW  Elec       q    Type
REMARK                         _______ _______ _______ _____ _____    ______ ____
ROOT
ATOM      1  C   UNL     1       0.121  10.239  20.073  0.00  0.00    +0.000 A 
ATOM      2  N   UNL     1      -0.197  10.135  21.380  0.00  0.00    +0.000 NA
ATOM      3  C   UNL     1       0.353   9.130  22.061  0.00  0.00    +0.000 A 
ATOM      4  N   UNL     1       1.210   8.233  21.573  0.00  0.00    +0.000 NA
ATOM      5  C   UNL     1       1.491   8.320  20.272  0.00  0.00    +0.000 A 
ATOM      6  C   UNL     1       2.365   7.377  19.742  0.00  0.00    +0.000 A 
ATOM      7  C   UNL     1       2.662   7.294  18.369  0.00  0.00    +0.000 A 
ATOM      8  C   UNL     1       2.124   8.292  17.545  0.00  0.00    +0.000 A 
ATOM      9  C   UNL     1       1.291   9.286  18.058  0.00  0.00    +0.000 A 
ATOM     10  C   UNL     1       0.951   9.299  19.429  0.00  0.00    +0.000 A 
ENDROOT
BRANCH   7  11
ATOM     11  C   UNL     1       3.542   6.247  17.803  0.00  0.00    +0.000 A 
ATOM     12  N   UNL     1       4.767   6.738  17.450  0.00  0.00    +0.000 NA
ATOM     13  C   UNL     1       5.705   5.894  16.976  0.00  0.00    +0.000 A 
ATOM     14  C   UNL     1       5.506   4.540  16.845  0.00  0.00    +0.000 A 
ATOM     15  C   UNL     1       4.254   4.041  17.177  0.00  0.00    +0.000 A 
ATOM     16  C   UNL     1       3.227   4.896  17.628  0.00  0.00    +0.000 A 
BRANCH  16  17
ATOM     17  C   UNL     1       1.884   4.276  17.878  0.00  0.00    +0.000 C 
ATOM     18  F   UNL     1       0.843   4.810  17.189  0.00  0.00    +0.000 F 
ATOM     19  F   UNL     1       1.865   2.949  17.554  0.00  0.00    +0.000 F 
ATOM     20  F   UNL     1       1.538   4.328  19.196  0.00  0.00    +0.000 F 
ENDBRANCH  16  17
ENDBRANCH   7  11
BRANCH   1  21
ATOM     21  N   UNL     1      -0.478  11.296  19.330  0.00  0.00    +0.000 N 
ATOM     22  H   UNL     1      -0.243  12.179  19.775  0.00  0.00    +0.000 HD
BRANCH  21  26
ATOM     23  C   UNL     1      -4.537  11.677  18.356  0.00  0.00    +0.000 A 
ATOM     24  C   UNL     1      -3.720  10.834  17.599  0.00  0.00    +0.000 A 
ATOM     25  C   UNL     1      -2.375  10.687  17.945  0.00  0.00    +0.000 A 
ATOM     26  C   UNL     1      -1.868  11.350  19.058  0.00  0.00    +0.000 A 
ATOM     27  C   UNL     1      -2.744  12.195  19.738  0.00  0.00    +0.000 A 
ATOM     28  N   UNL     1      -4.046  12.375  19.417  0.00  0.00    +0.000 NA
BRANCH  23  30
ATOM     29  F   UNL     1      -6.705  10.670  18.033  0.00  0.00    +0.000 F 
ATOM     30  C   UNL     1      -6.004  11.843  17.992  0.00  0.00    +0.000 C 
ATOM     31  F   UNL     1      -6.188  12.327  16.729  0.00  0.00    +0.000 F 
ATOM     32  F   UNL     1      -6.672  12.694  18.824  0.00  0.00    +0.000 F 
ENDBRANCH  23  30
ENDBRANCH  21  26
ENDBRANCH   1  21
TORSDOF 5
ENDMDL
MODEL 2
REMARK VINA RESULT:      -8.9      0.597      1.108
REMARK  Name = 
REMARK  5 active torsions:
REMARK  status: ('A' for Active; 'I' for Inactive)
REMARK    1  A    between atoms: C_2  and  C_5
REMARK    2  A    between atoms: C_8  and  N_9
REMARK    3  A    between atoms: N_9  and  C_10
REMARK    4  A    between atoms: C_16  and  C_17
REMARK    5  A    between atoms: C_22  and  C_23
REMARK                            x       y       z     vdW  Elec       q    Type
REMARK                         _______ _______ _______ _____ _____    ______ ____
ROOT
ATOM      1  C   UNL     1       0.517   9.810  19.954  0.00  0.00    +0.000 A 
ATOM      2  N   UNL     1       0.130   9.607  21.230  0.00  0.00    +0.000 NA
ATOM      3  C   UNL     1       0.610   8.527  21.846  0.00  0.00    +0.000 A 
ATOM      4  N   UNL     1       1.459   7.642  21.322  0.00  0.00    +0.000 NA
ATOM      5  C   UNL     1       1.807   7.829  20.049  0.00  0.00    +0.000 A 
ATOM      6  C   UNL     1       2.673   6.901  19.480  0.00  0.00    +0.000 A 
ATOM      7  C   UNL     1       3.036   6.924  18.120  0.00  0.00    +0.000 A 
ATOM      8  C   UNL     1       2.575   8.009  17.362  0.00  0.00    +0.000 A 
ATOM      9  C   UNL     1       1.752   8.987  17.920  0.00  0.00    +0.000 A 
ATOM     10  C   UNL     1       1.345   8.897  19.270  0.00  0.00    +0.000 A 
ENDROOT
BRANCH   7  11
ATOM     11  C   UNL     1       3.905   5.895  17.507  0.00  0.00    +0.000 A 
ATOM     12  N   UNL     1       5.067   6.425  17.022  0.00  0.00    +0.000 NA
ATOM     13  C   UNL     1       5.995   5.605  16.488  0.00  0.00    +0.000 A 
ATOM     14  C   UNL     1       5.846   4.240  16.421  0.00  0.00    +0.000 A 
ATOM     15  C   UNL     1       4.655   3.700  16.887  0.00  0.00    +0.000 A 
ATOM     16  C   UNL     1       3.637   4.527  17.406  0.00  0.00    +0.000 A 
BRANCH  16  17
ATOM     17  C   UNL     1       2.354   3.859  17.804  0.00  0.00    +0.000 C 
ATOM     18  F   UNL     1       2.168   2.598  17.336  0.00  0.00    +0.000 F 
ATOM     19  F   UNL     1       2.237   3.743  19.160  0.00  0.00    +0.000 F 
ATOM     20  F   UNL     1       1.264   4.578  17.411  0.00  0.00    +0.000 F 
ENDBRANCH  16  17
ENDBRANCH   7  11
BRANCH   1  21
ATOM     21  N   UNL     1      -0.007  10.949  19.279  0.00  0.00    +0.000 N 
ATOM     22  H   UNL     1       0.292  11.785  19.774  0.00  0.00    +0.000 HD
BRANCH  21  26
ATOM     23  C   UNL     1      -4.029  11.661  18.337  0.00  0.00    +0.000 A 
ATOM     24  C   UNL     1      -3.299  10.729  17.596  0.00  0.00    +0.000 A 
ATOM     25  C   UNL     1      -1.968  10.474  17.932  0.00  0.00    +0.000 A 
ATOM     26  C   UNL     1      -1.390  11.118  19.020  0.00  0.00    +0.000 A 
ATOM     27  C   UNL     1      -2.179  12.056  19.686  0.00  0.00    +0.000 A 
ATOM     28  N   UNL     1      -3.464  12.341  19.373  0.00  0.00    +0.000 NA
BRANCH  23  30
ATOM     29  F   UNL     1      -6.034  12.939  18.745  0.00  0.00    +0.000 F 
ATOM     30  C   UNL     1      -5.480  11.946  17.985  0.00  0.00    +0.000 C 
ATOM     31  F   UNL     1      -6.293  10.864  18.160  0.00  0.00    +0.000 F 
ATOM     32  F   UNL     1      -5.652  12.342  16.691  0.00  0.00    +0.000 F 
ENDBRANCH  23  30
ENDBRANCH  21  26
ENDBRANCH   1  21
TORSDOF 5
ENDMDL
MODEL 3
REMARK VINA RESULT:      -8.8      0.815      1.354
REMARK  Name = 
REMARK  5 active torsions:
REMARK  status: ('A' for Active; 'I' for Inactive)
REMARK    1  A    between atoms: C_2  and  C_5
REMARK    2  A    between atoms: C_8  and  N_9
REMARK    3  A    between atoms: N_9  and  C_10
REMARK    4  A    between atoms: C_16  and  C_17
REMARK    5  A    between atoms: C_22  and  C_23
REMARK                            x       y       z     vdW  Elec       q    Type
REMARK                         _______ _______ _______ _____ _____    ______ ____
ROOT
ATOM      1  C   UNL     1       0.612  10.055  20.084  0.00  0.00    +0.000 A 
ATOM      2  N   UNL     1       0.194   9.869  21.353  0.00  0.00    +0.000 NA
ATOM      3  C   UNL     1       0.582   8.749  21.962  0.00  0.00    +0.000 A 
ATOM      4  N   UNL     1       1.367   7.807  21.438  0.00  0.00    +0.000 NA
ATOM      5  C   UNL     1       1.746   7.980  20.172  0.00  0.00    +0.000 A 
ATOM      6  C   UNL     1       2.546   6.995  19.603  0.00  0.00    +0.000 A 
ATOM      7  C   UNL     1       2.927   7.005  18.248  0.00  0.00    +0.000 A 
ATOM      8  C   UNL     1       2.561   8.130  17.497  0.00  0.00    +0.000 A 
ATOM      9  C   UNL     1       1.808   9.163  18.056  0.00  0.00    +0.000 A 
ATOM     10  C   UNL     1       1.377   9.089  19.399  0.00  0.00    +0.000 A 
ENDROOT
BRANCH   7  11
ATOM     11  C   UNL     1       3.724   5.919  17.634  0.00  0.00    +0.000 A 
ATOM     12  N   UNL     1       4.937   6.360  17.186  0.00  0.00    +0.000 NA
ATOM     13  C   UNL     1       5.807   5.476  16.657  0.00  0.00    +0.000 A 
ATOM     14  C   UNL     1       5.548   4.129  16.559  0.00  0.00    +0.000 A 
ATOM     15  C   UNL     1       4.306   3.682  16.986  0.00  0.00    +0.000 A 
ATOM     16  C   UNL     1       3.347   4.580  17.499  0.00  0.00    +0.000 A 
BRANCH  16  17
ATOM     17  C   UNL     1       2.003   4.014  17.853  0.00  0.00    +0.000 C 
ATOM     18  F   UNL     1       1.807   2.707  17.541  0.00  0.00    +0.000 F 
ATOM     19  F   UNL     1       1.756   4.087  19.195  0.00  0.00    +0.000 F 
ATOM     20  F   UNL     1       0.989   4.706  17.263  0.00  0.00    +0.000 F 
ENDBRANCH  16  17
ENDBRANCH   7  11
BRANCH   1  21
ATOM     21  N   UNL     1       0.186  11.238  19.416  0.00  0.00    +0.000 N 
ATOM     22  H   UNL     1       0.348  12.033  20.028  0.00  0.00    +0.000 HD
BRANCH  21  26
ATOM     23  C   UNL     1      -3.764  11.478  18.034  0.00  0.00    +0.000 A 
ATOM     24  C   UNL     1      -3.398  12.148  19.203  0.00  0.00    +0.000 A 
ATOM     25  C   UNL     1      -2.074  12.090  19.644  0.00  0.00    +0.000 A 
ATOM     26  C   UNL     1      -1.125  11.398  18.900  0.00  0.00    +0.000 A 
ATOM     27  C   UNL     1      -1.581  10.731  17.764  0.00  0.00    +0.000 A 
ATOM     28  N   UNL     1      -2.860  10.751  17.321  0.00  0.00    +0.000 NA
BRANCH  23  30
ATOM     29  F   UNL     1      -5.327  11.237  16.213  0.00  0.00    +0.000 F 
ATOM     30  C   UNL     1      -5.201  11.536  17.541  0.00  0.00    +0.000 C 
ATOM     31  F   UNL     1      -5.764  12.770  17.685  0.00  0.00    +0.000 F 
ATOM     32  F   UNL     1      -6.028  10.665  18.188  0.00  0.00    +0.000 F 
ENDBRANCH  23  30
ENDBRANCH  21  26
ENDBRANCH   1  21
TORSDOF 5
ENDMDL
MODEL 4
REMARK VINA RESULT:      -8.7      3.863      4.552
REMARK  Name = 
REMARK  5 active torsions:
REMARK  status: ('A' for Active; 'I' for Inactive)
REMARK    1  A    between atoms: C_2  and  C_5
REMARK    2  A    between atoms: C_8  and  N_9
REMARK    3  A    between atoms: N_9  and  C_10
REMARK    4  A    between atoms: C_16  and  C_17
REMARK    5  A    between atoms: C_22  and  C_23
REMARK                            x       y       z     vdW  Elec       q    Type
REMARK                         _______ _______ _______ _____ _____    ______ ____
ROOT
ATOM      1  C   UNL     1       0.350  10.406  19.797  0.00  0.00    +0.000 A 
ATOM      2  N   UNL     1      -0.076  10.378  21.076  0.00  0.00    +0.000 NA
ATOM      3  C   UNL     1       0.323   9.352  21.828  0.00  0.00    +0.000 A 
ATOM      4  N   UNL     1       1.128   8.364  21.436  0.00  0.00    +0.000 NA
ATOM      5  C   UNL     1       1.516   8.380  20.160  0.00  0.00    +0.000 A 
ATOM      6  C   UNL     1       2.337   7.342  19.729  0.00  0.00    +0.000 A 
ATOM      7  C   UNL     1       2.732   7.184  18.387  0.00  0.00    +0.000 A 
ATOM      8  C   UNL     1       2.355   8.197  17.495  0.00  0.00    +0.000 A 
ATOM      9  C   UNL     1       1.580   9.280  17.911  0.00  0.00    +0.000 A 
ATOM     10  C   UNL     1       1.137   9.373  19.249  0.00  0.00    +0.000 A 
ENDROOT
BRANCH   7  11
ATOM     11  C   UNL     1       3.551   6.043  17.924  0.00  0.00    +0.000 A 
ATOM     12  N   UNL     1       4.829   6.416  17.617  0.00  0.00    +0.000 NA
ATOM     13  C   UNL     1       5.719   5.476  17.239  0.00  0.00    +0.000 A 
ATOM     14  C   UNL     1       5.416   4.137  17.164  0.00  0.00    +0.000 A 
ATOM     15  C   UNL     1       4.112   3.757  17.447  0.00  0.00    +0.000 A 
ATOM     16  C   UNL     1       3.136   4.713  17.797  0.00  0.00    +0.000 A 
BRANCH  16  17
ATOM     17  C   UNL     1       1.736   4.215  18.001  0.00  0.00    +0.000 C 
ATOM     18  F   UNL     1       1.216   4.393  19.243  0.00  0.00    +0.000 F 
ATOM     19  F   UNL     1       0.847   4.831  17.166  0.00  0.00    +0.000 F 
ATOM     20  F   UNL     1       1.625   2.885  17.726  0.00  0.00    +0.000 F 
ENDBRANCH  16  17
ENDBRANCH   7  11
BRANCH   1  21
ATOM     21  N   UNL     1      -0.088  11.486  18.979  0.00  0.00    +0.000 N 
ATOM     22  H   UNL     1      -0.134  11.165  18.015  0.00  0.00    +0.000 HD
BRANCH  21  26
ATOM     23  C   UNL     1       1.819  15.200  18.601  0.00  0.00    +0.000 A 
ATOM     24  C   UNL     1       0.453  15.149  18.891  0.00  0.00    +0.000 A 
ATOM     25  C   UNL     1      -0.172  13.910  19.045  0.00  0.00    +0.000 A 
ATOM     26  C   UNL     1       0.573  12.739  18.945  0.00  0.00    +0.000 A 
ATOM     27  C   UNL     1       1.922  12.880  18.622  0.00  0.00    +0.000 A 
ATOM     28  N   UNL     1       2.553  14.064  18.446  0.00  0.00    +0.000 NA
BRANCH  23  30
ATOM     29  F   UNL     1       2.796  16.844  17.130  0.00  0.00    +0.000 F 
ATOM     30  C   UNL     1       2.512  16.543  18.433  0.00  0.00    +0.000 C 
ATOM     31  F   UNL     1       3.709  16.608  19.085  0.00  0.00    +0.000 F 
ATOM     32  F   UNL     1       1.772  17.592  18.895  0.00  0.00    +0.000 F 
ENDBRANCH  23  30
ENDBRANCH  21  26
ENDBRANCH   1  21
TORSDOF 5
ENDMDL
MODEL 5
REMARK VINA RESULT:      -8.6      3.823      4.459
REMARK  Name = 
REMARK  5 active torsions:
REMARK  status: ('A' for Active; 'I' for Inactive)
REMARK    1  A    between atoms: C_2  and  C_5
REMARK    2  A    between atoms: C_8  and  N_9
REMARK    3  A    between atoms: N_9  and  C_10
REMARK    4  A    between atoms: C_16  and  C_17
REMARK    5  A    between atoms: C_22  and  C_23
REMARK                            x       y       z     vdW  Elec       q    Type
REMARK                         _______ _______ _______ _____ _____    ______ ____
ROOT
ATOM      1  C   UNL     1       0.261  10.415  19.692  0.00  0.00    +0.000 A 
ATOM      2  N   UNL     1      -0.142  10.438  20.979  0.00  0.00    +0.000 NA
ATOM      3  C   UNL     1       0.298   9.460  21.771  0.00  0.00    +0.000 A 
ATOM      4  N   UNL     1       1.122   8.475  21.411  0.00  0.00    +0.000 NA
ATOM      5  C   UNL     1       1.486   8.439  20.129  0.00  0.00    +0.000 A 
ATOM      6  C   UNL     1       2.326   7.403  19.732  0.00  0.00    +0.000 A 
ATOM      7  C   UNL     1       2.700   7.190  18.392  0.00  0.00    +0.000 A 
ATOM      8  C   UNL     1       2.281   8.149  17.460  0.00  0.00    +0.000 A 
ATOM      9  C   UNL     1       1.486   9.231  17.838  0.00  0.00    +0.000 A 
ATOM     10  C   UNL     1       1.065   9.377  19.178  0.00  0.00    +0.000 A 
ENDROOT
BRANCH   7  11
ATOM     11  C   UNL     1       3.541   6.049  17.968  0.00  0.00    +0.000 A 
ATOM     12  N   UNL     1       4.820   6.431  17.676  0.00  0.00    +0.000 NA
ATOM     13  C   UNL     1       5.728   5.494  17.334  0.00  0.00    +0.000 A 
ATOM     14  C   UNL     1       5.442   4.150  17.282  0.00  0.00    +0.000 A 
ATOM     15  C   UNL     1       4.136   3.761  17.550  0.00  0.00    +0.000 A 
ATOM     16  C   UNL     1       3.144   4.713  17.862  0.00  0.00    +0.000 A 
BRANCH  16  17
ATOM     17  C   UNL     1       1.745   4.203  18.051  0.00  0.00    +0.000 C 
ATOM     18  F   UNL     1       1.204   4.391  19.282  0.00  0.00    +0.000 F 
ATOM     19  F   UNL     1       0.864   4.799  17.194  0.00  0.00    +0.000 F 
ATOM     20  F   UNL     1       1.652   2.868  17.791  0.00  0.00    +0.000 F 
ENDBRANCH  16  17
ENDBRANCH   7  11
BRANCH   1  21
ATOM     21  N   UNL     1      -0.220  11.442  18.832  0.00  0.00    +0.000 N 
ATOM     22  H   UNL     1      -0.301  11.067  17.891  0.00  0.00    +0.000 HD
BRANCH  21  26
ATOM     23  C   UNL     1       1.710  15.162  18.727  0.00  0.00    +0.000 A 
ATOM     24  C   UNL     1       2.464  13.989  18.646  0.00  0.00    +0.000 A 
ATOM     25  C   UNL     1       1.814  12.753  18.652  0.00  0.00    +0.000 A 
ATOM     26  C   UNL     1       0.426  12.697  18.701  0.00  0.00    +0.000 A 
ATOM     27  C   UNL     1      -0.247  13.914  18.813  0.00  0.00    +0.000 A 
ATOM     28  N   UNL     1       0.353  15.127  18.830  0.00  0.00    +0.000 NA
BRANCH  23  30
ATOM     29  F   UNL     1       1.826  17.422  19.564  0.00  0.00    +0.000 F 
ATOM     30  C   UNL     1       2.404  16.515  18.719  0.00  0.00    +0.000 C 
ATOM     31  F   UNL     1       2.393  17.111  17.491  0.00  0.00    +0.000 F 
ATOM     32  F   UNL     1       3.713  16.451  19.096  0.00  0.00    +0.000 F 
ENDBRANCH  23  30
ENDBRANCH  21  26
ENDBRANCH   1  21
TORSDOF 5
ENDMDL
MODEL 6
REMARK VINA RESULT:      -8.3      3.477      9.763
REMARK  Name = 
REMARK  5 active torsions:
REMARK  status: ('A' for Active; 'I' for Inactive)
REMARK    1  A    between atoms: C_2  and  C_5
REMARK    2  A    between atoms: C_8  and  N_9
REMARK    3  A    between atoms: N_9  and  C_10
REMARK    4  A    between atoms: C_16  and  C_17
REMARK    5  A    between atoms: C_22  and  C_23
REMARK                            x       y       z     vdW  Elec       q    Type
REMARK                         _______ _______ _______ _____ _____    ______ ____
ROOT
ATOM      1  C   UNL     1       1.389   8.647  20.205  0.00  0.00    +0.000 A 
ATOM      2  N   UNL     1       1.506   8.776  18.867  0.00  0.00    +0.000 NA
ATOM      3  C   UNL     1       0.860   9.792  18.296  0.00  0.00    +0.000 A 
ATOM      4  N   UNL     1       0.129  10.709  18.931  0.00  0.00    +0.000 NA
ATOM      5  C   UNL     1      -0.011  10.554  20.247  0.00  0.00    +0.000 A 
ATOM      6  C   UNL     1      -0.791  11.489  20.921  0.00  0.00    +0.000 A 
ATOM      7  C   UNL     1      -1.104  11.382  22.289  0.00  0.00    +0.000 A 
ATOM      8  C   UNL     1      -0.494  10.338  22.997  0.00  0.00    +0.000 A 
ATOM      9  C   UNL     1       0.340   9.418  22.360  0.00  0.00    +0.000 A 
ATOM     10  C   UNL     1       0.576   9.508  20.970  0.00  0.00    +0.000 A 
ENDROOT
BRANCH   7  11
ATOM     11  C   UNL     1      -1.987  12.344  22.985  0.00  0.00    +0.000 A 
ATOM     12  N   UNL     1      -3.074  11.735  23.544  0.00  0.00    +0.000 NA
ATOM     13  C   UNL     1      -3.944  12.469  24.268  0.00  0.00    +0.000 A 
ATOM     14  C   UNL     1      -3.785  13.815  24.499  0.00  0.00    +0.000 A 
ATOM     15  C   UNL     1      -2.697  14.444  23.909  0.00  0.00    +0.000 A 
ATOM     16  C   UNL     1      -1.792  13.724  23.102  0.00  0.00    +0.000 A 
BRANCH  16  17
ATOM     17  C   UNL     1      -0.698  14.508  22.439  0.00  0.00    +0.000 C 
ATOM     18  F   UNL     1       0.533  13.935  22.446  0.00  0.00    +0.000 F 
ATOM     19  F   UNL     1      -0.962  14.737  21.118  0.00  0.00    +0.000 F 
ATOM     20  F   UNL     1      -0.550  15.743  22.995  0.00  0.00    +0.000 F 
ENDBRANCH  16  17
ENDBRANCH   7  11
BRANCH   1  21
ATOM     21  N   UNL     1       2.057   7.553  20.824  0.00  0.00    +0.000 N 
ATOM     22  H   UNL     1       3.014   7.828  21.024  0.00  0.00    +0.000 HD
BRANCH  21  26
ATOM     23  C   UNL     1       2.436   3.668  19.295  0.00  0.00    +0.000 A 
ATOM     24  C   UNL     1       1.352   3.986  20.116  0.00  0.00    +0.000 A 
ATOM     25  C   UNL     1       1.214   5.289  20.599  0.00  0.00    +0.000 A 
ATOM     26  C   UNL     1       2.131   6.267  20.232  0.00  0.00    +0.000 A 
ATOM     27  C   UNL     1       3.200   5.857  19.436  0.00  0.00    +0.000 A 
ATOM     28  N   UNL     1       3.374   4.599  18.968  0.00  0.00    +0.000 NA
BRANCH  23  30
ATOM     29  F   UNL     1       2.489   2.179  17.399  0.00  0.00    +0.000 F 
ATOM     30  C   UNL     1       2.597   2.254  18.760  0.00  0.00    +0.000 C 
ATOM     31  F   UNL     1       1.657   1.392  19.243  0.00  0.00    +0.000 F 
ATOM     32  F   UNL     1       3.807   1.700  19.058  0.00  0.00    +0.000 F 
ENDBRANCH  23  30
ENDBRANCH  21  26
ENDBRANCH   1  21
TORSDOF 5
ENDMDL
MODEL 7
REMARK VINA RESULT:      -8.3      4.520      5.312
REMARK  Name = 
REMARK  5 active torsions:
REMARK  status: ('A' for Active; 'I' for Inactive)
REMARK    1  A    between atoms: C_2  and  C_5
REMARK    2  A    between atoms: C_8  and  N_9
REMARK    3  A    between atoms: N_9  and  C_10
REMARK    4  A    between atoms: C_16  and  C_17
REMARK    5  A    between atoms: C_22  and  C_23
REMARK                            x       y       z     vdW  Elec       q    Type
REMARK                         _______ _______ _______ _____ _____    ______ ____
ROOT
ATOM      1  C   UNL     1       0.796  10.534  19.592  0.00  0.00    +0.000 A 
ATOM      2  N   UNL     1       0.454  10.699  20.886  0.00  0.00    +0.000 NA
ATOM      3  C   UNL     1       0.732   9.697  21.720  0.00  0.00    +0.000 A 
ATOM      4  N   UNL     1       1.341   8.556  21.395  0.00  0.00    +0.000 NA
ATOM      5  C   UNL     1       1.643   8.386  20.107  0.00  0.00    +0.000 A 
ATOM      6  C   UNL     1       2.258   7.191  19.747  0.00  0.00    +0.000 A 
ATOM      7  C   UNL     1       2.534   6.843  18.412  0.00  0.00    +0.000 A 
ATOM      8  C   UNL     1       2.267   7.815  17.438  0.00  0.00    +0.000 A 
ATOM      9  C   UNL     1       1.704   9.046  17.776  0.00  0.00    +0.000 A 
ATOM     10  C   UNL     1       1.370   9.338  19.117  0.00  0.00    +0.000 A 
ENDROOT
BRANCH   7  11
ATOM     11  C   UNL     1       3.128   5.543  18.031  0.00  0.00    +0.000 A 
ATOM     12  N   UNL     1       2.420   4.486  18.531  0.00  0.00    +0.000 NA
ATOM     13  C   UNL     1       2.799   3.230  18.218  0.00  0.00    +0.000 A 
ATOM     14  C   UNL     1       3.862   2.946  17.394  0.00  0.00    +0.000 A 
ATOM     15  C   UNL     1       4.601   4.015  16.907  0.00  0.00    +0.000 A 
ATOM     16  C   UNL     1       4.270   5.343  17.250  0.00  0.00    +0.000 A 
BRANCH  16  17
ATOM     17  C   UNL     1       5.179   6.424  16.744  0.00  0.00    +0.000 C 
ATOM     18  F   UNL     1       5.442   7.435  17.611  0.00  0.00    +0.000 F 
ATOM     19  F   UNL     1       6.409   5.939  16.400  0.00  0.00    +0.000 F 
ATOM     20  F   UNL     1       4.694   7.007  15.611  0.00  0.00    +0.000 F 
ENDBRANCH  16  17
ENDBRANCH   7  11
BRANCH   1  21
ATOM     21  N   UNL     1       0.484  11.589  18.688  0.00  0.00    +0.000 N 
ATOM     22  H   UNL     1       0.526  11.227  17.739  0.00  0.00    +0.000 HD
BRANCH  21  26
ATOM     23  C   UNL     1       2.504  15.248  18.365  0.00  0.00    +0.000 A 
ATOM     24  C   UNL     1       1.163  15.230  18.756  0.00  0.00    +0.000 A 
ATOM     25  C   UNL     1       0.502  14.007  18.891  0.00  0.00    +0.000 A 
ATOM     26  C   UNL     1       1.190  12.818  18.671  0.00  0.00    +0.000 A 
ATOM     27  C   UNL     1       2.516  12.928  18.253  0.00  0.00    +0.000 A 
ATOM     28  N   UNL     1       3.179  14.097  18.094  0.00  0.00    +0.000 NA
BRANCH  23  30
ATOM     29  F   UNL     1       4.596  16.443  18.263  0.00  0.00    +0.000 F 
ATOM     30  C   UNL     1       3.236  16.572  18.217  0.00  0.00    +0.000 C 
ATOM     31  F   UNL     1       2.927  17.464  19.203  0.00  0.00    +0.000 F 
ATOM     32  F   UNL     1       2.971  17.205  17.039  0.00  0.00    +0.000 F 
ENDBRANCH  23  30
ENDBRANCH  21  26
ENDBRANCH   1  21
TORSDOF 5
ENDMDL
MODEL 8
REMARK VINA RESULT:      -8.3      1.870      2.196
REMARK  Name = 
REMARK  5 active torsions:
REMARK  status: ('A' for Active; 'I' for Inactive)
REMARK    1  A    between atoms: C_2  and  C_5
REMARK    2  A    between atoms: C_8  and  N_9
REMARK    3  A    between atoms: N_9  and  C_10
REMARK    4  A    between atoms: C_16  and  C_17
REMARK    5  A    between atoms: C_22  and  C_23
REMARK                            x       y       z     vdW  Elec       q    Type
REMARK                         _______ _______ _______ _____ _____    ______ ____
ROOT
ATOM      1  C   UNL     1       0.631  10.161  19.979  0.00  0.00    +0.000 A 
ATOM      2  N   UNL     1       0.462  10.266  21.313  0.00  0.00    +0.000 NA
ATOM      3  C   UNL     1       0.955   9.284  22.068  0.00  0.00    +0.000 A 
ATOM      4  N   UNL     1       1.623   8.219  21.624  0.00  0.00    +0.000 NA
ATOM      5  C   UNL     1       1.755   8.104  20.302  0.00  0.00    +0.000 A 
ATOM      6  C   UNL     1       2.429   6.986  19.822  0.00  0.00    +0.000 A 
ATOM      7  C   UNL     1       2.546   6.692  18.450  0.00  0.00    +0.000 A 
ATOM      8  C   UNL     1       2.047   7.648  17.555  0.00  0.00    +0.000 A 
ATOM      9  C   UNL     1       1.418   8.808  18.007  0.00  0.00    +0.000 A 
ATOM     10  C   UNL     1       1.249   9.039  19.390  0.00  0.00    +0.000 A 
ENDROOT
BRANCH   7  11
ATOM     11  C   UNL     1       3.208   5.468  17.949  0.00  0.00    +0.000 A 
ATOM     12  N   UNL     1       2.581   4.331  18.375  0.00  0.00    +0.000 NA
ATOM     13  C   UNL     1       3.028   3.131  17.951  0.00  0.00    +0.000 A 
ATOM     14  C   UNL     1       4.082   2.983  17.081  0.00  0.00    +0.000 A 
ATOM     15  C   UNL     1       4.739   4.134  16.667  0.00  0.00    +0.000 A 
ATOM     16  C   UNL     1       4.338   5.405  17.127  0.00  0.00    +0.000 A 
BRANCH  16  17
ATOM     17  C   UNL     1       5.164   6.580  16.692  0.00  0.00    +0.000 C 
ATOM     18  F   UNL     1       6.433   6.302  16.297  0.00  0.00    +0.000 F 
ATOM     19  F   UNL     1       4.607   7.229  15.627  0.00  0.00    +0.000 F 
ATOM     20  F   UNL     1       5.265   7.521  17.673  0.00  0.00    +0.000 F 
ENDBRANCH  16  17
ENDBRANCH   7  11
BRANCH   1  21
ATOM     21  N   UNL     1       0.089  11.193  19.162  0.00  0.00    +0.000 N 
ATOM     22  H   UNL     1       0.377  12.092  19.541  0.00  0.00    +0.000 HD
BRANCH  21  26
ATOM     23  C   UNL     1      -3.953  11.773  18.219  0.00  0.00    +0.000 A 
ATOM     24  C   UNL     1      -3.140  11.036  17.355  0.00  0.00    +0.000 A 
ATOM     25  C   UNL     1      -1.801  10.820  17.688  0.00  0.00    +0.000 A 
ATOM     26  C   UNL     1      -1.297  11.307  18.889  0.00  0.00    +0.000 A 
ATOM     27  C   UNL     1      -2.168  12.059  19.676  0.00  0.00    +0.000 A 
ATOM     28  N   UNL     1      -3.464  12.303  19.373  0.00  0.00    +0.000 NA
BRANCH  23  30
ATOM     29  F   UNL     1      -6.117  10.856  17.674  0.00  0.00    +0.000 F 
ATOM     30  C   UNL     1      -5.414  12.012  17.870  0.00  0.00    +0.000 C 
ATOM     31  F   UNL     1      -5.576  12.730  16.721  0.00  0.00    +0.000 F 
ATOM     32  F   UNL     1      -6.094  12.690  18.838  0.00  0.00    +0.000 F 
ENDBRANCH  23  30
ENDBRANCH  21  26
ENDBRANCH   1  21
TORSDOF 5
ENDMDL
MODEL 9
REMARK VINA RESULT:      -8.2      4.522      5.296
REMARK  Name = 
REMARK  5 active torsions:
REMARK  status: ('A' for Active; 'I' for Inactive)
REMARK    1  A    between atoms: C_2  and  C_5
REMARK    2  A    between atoms: C_8  and  N_9
REMARK    3  A    between atoms: N_9  and  C_10
REMARK    4  A    between atoms: C_16  and  C_17
REMARK    5  A    between atoms: C_22  and  C_23
REMARK                            x       y       z     vdW  Elec       q    Type
REMARK                         _______ _______ _______ _____ _____    ______ ____
ROOT
ATOM      1  C   UNL     1       0.729  10.561  19.575  0.00  0.00    +0.000 A 
ATOM      2  N   UNL     1       0.441  10.761  20.878  0.00  0.00    +0.000 NA
ATOM      3  C   UNL     1       0.775   9.791  21.729  0.00  0.00    +0.000 A 
ATOM      4  N   UNL     1       1.392   8.653  21.413  0.00  0.00    +0.000 NA
ATOM      5  C   UNL     1       1.641   8.446  20.120  0.00  0.00    +0.000 A 
ATOM      6  C   UNL     1       2.263   7.252  19.771  0.00  0.00    +0.000 A 
ATOM      7  C   UNL     1       2.487   6.866  18.436  0.00  0.00    +0.000 A 
ATOM      8  C   UNL     1       2.159   7.801  17.445  0.00  0.00    +0.000 A 
ATOM      9  C   UNL     1       1.587   9.032  17.768  0.00  0.00    +0.000 A 
ATOM     10  C   UNL     1       1.306   9.360  19.113  0.00  0.00    +0.000 A 
ENDROOT
BRANCH   7  11
ATOM     11  C   UNL     1       3.090   5.565  18.070  0.00  0.00    +0.000 A 
ATOM     12  N   UNL     1       2.410   4.512  18.613  0.00  0.00    +0.000 NA
ATOM     13  C   UNL     1       2.799   3.254  18.320  0.00  0.00    +0.000 A 
ATOM     14  C   UNL     1       3.845   2.964  17.475  0.00  0.00    +0.000 A 
ATOM     15  C   UNL     1       4.555   4.032  16.944  0.00  0.00    +0.000 A 
ATOM     16  C   UNL     1       4.215   5.363  17.265  0.00  0.00    +0.000 A 
BRANCH  16  17
ATOM     17  C   UNL     1       5.095   6.444  16.711  0.00  0.00    +0.000 C 
ATOM     18  F   UNL     1       4.607   7.117  15.638  0.00  0.00    +0.000 F 
ATOM     19  F   UNL     1       5.356   7.415  17.636  0.00  0.00    +0.000 F 
ATOM     20  F   UNL     1       6.316   5.965  16.340  0.00  0.00    +0.000 F 
ENDBRANCH  16  17
ENDBRANCH   7  11
BRANCH   1  21
ATOM     21  N   UNL     1       0.358  11.580  18.653  0.00  0.00    +0.000 N 
ATOM     22  H   UNL     1       0.279  11.168  17.728  0.00  0.00    +0.000 HD
BRANCH  21  26
ATOM     23  C   UNL     1       2.622  15.102  18.447  0.00  0.00    +0.000 A 
ATOM     24  C   UNL     1       3.233  13.871  18.196  0.00  0.00    +0.000 A 
ATOM     25  C   UNL     1       2.468  12.703  18.237  0.00  0.00    +0.000 A 
ATOM     26  C   UNL     1       1.103  12.775  18.490  0.00  0.00    +0.000 A 
ATOM     27  C   UNL     1       0.580  14.039  18.760  0.00  0.00    +0.000 A 
ATOM     28  N   UNL     1       1.297  15.187  18.748  0.00  0.00    +0.000 NA
BRANCH  23  30
ATOM     29  F   UNL     1       4.789  16.161  18.488  0.00  0.00    +0.000 F 
ATOM     30  C   UNL     1       3.442  16.381  18.402  0.00  0.00    +0.000 C 
ATOM     31  F   UNL     1       3.152  17.235  19.427  0.00  0.00    +0.000 F 
ATOM     32  F   UNL     1       3.264  17.095  17.254  0.00  0.00    +0.000 F 
ENDBRANCH  23  30
ENDBRANCH  21  26
ENDBRANCH   1  21
TORSDOF 5
ENDMDL
