MODEL 1
REMARK VINA RESULT:      -7.2      0.000      0.000
REMARK  Name = 
REMARK  7 active torsions:
REMARK  status: ('A' for Active; 'I' for Inactive)
REMARK    1  A    between atoms: C_1  and  C_2
REMARK    2  A    between atoms: C_5  and  C_6
REMARK    3  A    between atoms: C_6  and  N_7
REMARK    4  A    between atoms: C_9  and  C_10
REMARK    5  A    between atoms: C_11  and  C_13
REMARK    6  A    between atoms: N_19  and  C_20
REMARK    7  A    between atoms: N_28  and  C_29
REMARK                            x       y       z     vdW  Elec       q    Type
REMARK                         _______ _______ _______ _____ _____    ______ ____
ROOT
ATOM      1  C   UNL     1      -4.543  13.347  21.029  0.00  0.00    +0.000 A 
ATOM      2  N   UNL     1      -4.462  12.617  19.940  0.00  0.00    +0.000 NA
ATOM      3  C   UNL     1      -5.556  12.634  19.152  0.00  0.00    +0.000 A 
ATOM      4  C   UNL     1      -6.707  13.341  19.368  0.00  0.00    +0.000 A 
ATOM      5  C   UNL     1      -7.547  13.051  18.294  0.00  0.00    +0.000 A 
ATOM      6  N   UNL     1      -6.980  12.199  17.433  0.00  0.00    +0.000 NA
ATOM      7  N   UNL     1      -5.757  11.951  17.976  0.00  0.00    +0.000 N 
ATOM      8  C   UNL     1      -6.822  14.159  20.537  0.00  0.00    +0.000 A 
ATOM      9  O   UNL     1      -7.843  14.801  20.774  0.00  0.00    +0.000 OA
ATOM     10  N   UNL     1      -5.673  14.129  21.352  0.00  0.00    +0.000 N 
ATOM     11  C   UNL     1      -5.768  14.893  22.589  0.00  0.00    +0.000 C 
ENDROOT
BRANCH   1  16
ATOM     12  N   UNL     1      -1.463  11.820  21.749  0.00  0.00    +0.000 NA
ATOM     13  C   UNL     1      -1.915  11.794  23.146  0.00  0.00    +0.000 C 
ATOM     14  C   UNL     1      -3.342  12.319  23.075  0.00  0.00    +0.000 C 
ATOM     15  C   UNL     1      -3.828  12.859  24.416  0.00  0.00    +0.000 C 
ATOM     16  C   UNL     1      -3.300  13.386  21.966  0.00  0.00    +0.000 C 
ATOM     17  F   UNL     1      -3.131  14.607  22.568  0.00  0.00    +0.000 F 
ATOM     18  C   UNL     1      -1.996  13.083  21.196  0.00  0.00    +0.000 C 
BRANCH  12  19
ATOM     19  C   UNL     1       0.010  11.720  21.691  0.00  0.00    +0.000 C 
BRANCH  19  24
ATOM     20  C   UNL     1       2.265   8.046  17.944  0.00  0.00    +0.000 C 
ATOM     21  C   UNL     1       1.666   8.997  18.931  0.00  0.00    +0.000 A 
ATOM     22  C   UNL     1       1.347  10.300  18.569  0.00  0.00    +0.000 A 
ATOM     23  N   UNL     1       0.794  11.189  19.427  0.00  0.00    +0.000 NA
ATOM     24  C   UNL     1       0.567  10.736  20.689  0.00  0.00    +0.000 A 
ATOM     25  C   UNL     1       0.888   9.433  21.051  0.00  0.00    +0.000 A 
ATOM     26  N   UNL     1       1.436   8.541  20.187  0.00  0.00    +0.000 NA
ENDBRANCH  19  24
ENDBRANCH  12  19
ENDBRANCH   1  16
BRANCH   7  27
ATOM     27  C   UNL     1      -4.858  11.056  17.257  0.00  0.00    +0.000 C 
ATOM     28  C   UNL     1      -3.708  10.527  18.118  0.00  0.00    +0.000 C 
ATOM     29  C   UNL     1      -2.795   9.639  17.282  0.00  0.00    +0.000 C 
ATOM     30  O   UNL     1      -2.337  10.334  16.124  0.00  0.00    +0.000 OA
ATOM     31  C   UNL     1      -3.408  10.695  15.252  0.00  0.00    +0.000 C 
ATOM     32  C   UNL     1      -4.357  11.661  15.943  0.00  0.00    +0.000 C 
ENDBRANCH   7  27
TORSDOF 4
ENDMDL
MODEL 2
REMARK VINA RESULT:      -7.1      2.778      3.646
REMARK  Name = 
REMARK  7 active torsions:
REMARK  status: ('A' for Active; 'I' for Inactive)
REMARK    1  A    between atoms: C_1  and  C_2
REMARK    2  A    between atoms: C_5  and  C_6
REMARK    3  A    between atoms: C_6  and  N_7
REMARK    4  A    between atoms: C_9  and  C_10
REMARK    5  A    between atoms: C_11  and  C_13
REMARK    6  A    between atoms: N_19  and  C_20
REMARK    7  A    between atoms: N_28  and  C_29
REMARK                            x       y       z     vdW  Elec       q    Type
REMARK                         _______ _______ _______ _____ _____    ______ ____
ROOT
ATOM      1  C   UNL     1      -4.088  12.807  21.716  0.00  0.00    +0.000 A 
ATOM      2  N   UNL     1      -3.849  12.398  20.490  0.00  0.00    +0.000 NA
ATOM      3  C   UNL     1      -4.943  12.161  19.739  0.00  0.00    +0.000 A 
ATOM      4  C   UNL     1      -6.247  12.324  20.120  0.00  0.00    +0.000 A 
ATOM      5  C   UNL     1      -7.020  11.962  19.019  0.00  0.00    +0.000 A 
ATOM      6  N   UNL     1      -6.266  11.581  17.982  0.00  0.00    +0.000 NA
ATOM      7  N   UNL     1      -4.991  11.708  18.442  0.00  0.00    +0.000 N 
ATOM      8  C   UNL     1      -6.541  12.782  21.444  0.00  0.00    +0.000 A 
ATOM      9  O   UNL     1      -7.699  12.929  21.830  0.00  0.00    +0.000 OA
ATOM     10  N   UNL     1      -5.389  13.022  22.219  0.00  0.00    +0.000 N 
ATOM     11  C   UNL     1      -5.640  13.426  23.596  0.00  0.00    +0.000 C 
ENDROOT
BRANCH   1  16
ATOM     12  N   UNL     1      -1.070  14.592  21.920  0.00  0.00    +0.000 NA
ATOM     13  C   UNL     1      -0.467  13.329  22.365  0.00  0.00    +0.000 C 
ATOM     14  C   UNL     1      -1.602  12.323  22.241  0.00  0.00    +0.000 C 
ATOM     15  C   UNL     1      -1.381  11.089  23.109  0.00  0.00    +0.000 C 
ATOM     16  C   UNL     1      -2.862  13.121  22.624  0.00  0.00    +0.000 C 
ATOM     17  F   UNL     1      -3.115  12.887  23.952  0.00  0.00    +0.000 F 
ATOM     18  C   UNL     1      -2.428  14.598  22.505  0.00  0.00    +0.000 C 
BRANCH  12  19
ATOM     19  C   UNL     1      -0.233  15.731  22.349  0.00  0.00    +0.000 C 
BRANCH  19  24
ATOM     20  C   UNL     1       5.144  15.584  20.426  0.00  0.00    +0.000 C 
ATOM     21  C   UNL     1       3.732  15.633  20.919  0.00  0.00    +0.000 A 
ATOM     22  C   UNL     1       3.444  15.561  22.276  0.00  0.00    +0.000 A 
ATOM     23  N   UNL     1       2.183  15.612  22.766  0.00  0.00    +0.000 NA
ATOM     24  C   UNL     1       1.191  15.734  21.843  0.00  0.00    +0.000 A 
ATOM     25  C   UNL     1       1.480  15.805  20.486  0.00  0.00    +0.000 A 
ATOM     26  N   UNL     1       2.746  15.760  19.998  0.00  0.00    +0.000 NA
ENDBRANCH  19  24
ENDBRANCH  12  19
ENDBRANCH   1  16
BRANCH   7  27
ATOM     27  C   UNL     1      -3.900  11.383  17.531  0.00  0.00    +0.000 C 
ATOM     28  C   UNL     1      -4.346  11.230  16.074  0.00  0.00    +0.000 C 
ATOM     29  C   UNL     1      -3.158  10.850  15.201  0.00  0.00    +0.000 C 
ATOM     30  O   UNL     1      -2.518   9.678  15.703  0.00  0.00    +0.000 OA
ATOM     31  C   UNL     1      -1.973   9.877  17.007  0.00  0.00    +0.000 C 
ATOM     32  C   UNL     1      -3.079  10.182  18.006  0.00  0.00    +0.000 C 
ENDBRANCH   7  27
TORSDOF 4
ENDMDL
MODEL 3
REMARK VINA RESULT:      -7.0      2.649      5.381
REMARK  Name = 
REMARK  7 active torsions:
REMARK  status: ('A' for Active; 'I' for Inactive)
REMARK    1  A    between atoms: C_1  and  C_2
REMARK    2  A    between atoms: C_5  and  C_6
REMARK    3  A    between atoms: C_6  and  N_7
REMARK    4  A    between atoms: C_9  and  C_10
REMARK    5  A    between atoms: C_11  and  C_13
REMARK    6  A    between atoms: N_19  and  C_20
REMARK    7  A    between atoms: N_28  and  C_29
REMARK                            x       y       z     vdW  Elec       q    Type
REMARK                         _______ _______ _______ _____ _____    ______ ____
ROOT
ATOM      1  C   UNL     1      -2.535  12.212  18.922  0.00  0.00    +0.000 A 
ATOM      2  N   UNL     1      -2.719  12.837  20.062  0.00  0.00    +0.000 NA
ATOM      3  C   UNL     1      -3.964  12.753  20.572  0.00  0.00    +0.000 A 
ATOM      4  C   UNL     1      -5.023  12.075  20.032  0.00  0.00    +0.000 A 
ATOM      5  C   UNL     1      -6.092  12.269  20.905  0.00  0.00    +0.000 A 
ATOM      6  N   UNL     1      -5.752  13.034  21.949  0.00  0.00    +0.000 NA
ATOM      7  N   UNL     1      -4.441  13.324  21.728  0.00  0.00    +0.000 N 
ATOM      8  C   UNL     1      -4.853  11.370  18.798  0.00  0.00    +0.000 A 
ATOM      9  O   UNL     1      -5.782  10.760  18.274  0.00  0.00    +0.000 OA
ATOM     10  N   UNL     1      -3.548  11.470  18.276  0.00  0.00    +0.000 N 
ATOM     11  C   UNL     1      -3.344  10.825  16.985  0.00  0.00    +0.000 C 
ENDROOT
BRANCH   1  16
ATOM     12  N   UNL     1       0.622  10.675  18.913  0.00  0.00    +0.000 NA
ATOM     13  C   UNL     1       1.172  12.028  19.063  0.00  0.00    +0.000 C 
ATOM     14  C   UNL     1      -0.062  12.905  19.217  0.00  0.00    +0.000 C 
ATOM     15  C   UNL     1       0.218  14.365  18.876  0.00  0.00    +0.000 C 
ATOM     16  C   UNL     1      -1.110  12.253  18.297  0.00  0.00    +0.000 C 
ATOM     17  F   UNL     1      -1.078  12.915  17.095  0.00  0.00    +0.000 F 
ATOM     18  C   UNL     1      -0.559  10.833  18.039  0.00  0.00    +0.000 C 
BRANCH  12  19
ATOM     19  C   UNL     1       1.651   9.768  18.364  0.00  0.00    +0.000 C 
BRANCH  19  24
ATOM     20  C   UNL     1       2.140   4.729  21.010  0.00  0.00    +0.000 C 
ATOM     21  C   UNL     1       2.026   6.046  20.311  0.00  0.00    +0.000 A 
ATOM     22  C   UNL     1       1.470   7.150  20.946  0.00  0.00    +0.000 A 
ATOM     23  N   UNL     1       1.356   8.362  20.354  0.00  0.00    +0.000 NA
ATOM     24  C   UNL     1       1.818   8.447  19.078  0.00  0.00    +0.000 A 
ATOM     25  C   UNL     1       2.374   7.342  18.443  0.00  0.00    +0.000 A 
ATOM     26  N   UNL     1       2.492   6.129  19.040  0.00  0.00    +0.000 NA
ENDBRANCH  19  24
ENDBRANCH  12  19
ENDBRANCH   1  16
BRANCH   7  27
ATOM     27  C   UNL     1      -3.746  14.143  22.714  0.00  0.00    +0.000 C 
ATOM     28  C   UNL     1      -2.745  13.356  23.563  0.00  0.00    +0.000 C 
ATOM     29  C   UNL     1      -2.098  14.274  24.593  0.00  0.00    +0.000 C 
ATOM     30  O   UNL     1      -3.091  14.926  25.381  0.00  0.00    +0.000 OA
ATOM     31  C   UNL     1      -3.930  15.775  24.599  0.00  0.00    +0.000 C 
ATOM     32  C   UNL     1      -4.709  14.962  23.577  0.00  0.00    +0.000 C 
ENDBRANCH   7  27
TORSDOF 4
ENDMDL
MODEL 4
REMARK VINA RESULT:      -7.0      2.065      4.832
REMARK  Name = 
REMARK  7 active torsions:
REMARK  status: ('A' for Active; 'I' for Inactive)
REMARK    1  A    between atoms: C_1  and  C_2
REMARK    2  A    between atoms: C_5  and  C_6
REMARK    3  A    between atoms: C_6  and  N_7
REMARK    4  A    between atoms: C_9  and  C_10
REMARK    5  A    between atoms: C_11  and  C_13
REMARK    6  A    between atoms: N_19  and  C_20
REMARK    7  A    between atoms: N_28  and  C_29
REMARK                            x       y       z     vdW  Elec       q    Type
REMARK                         _______ _______ _______ _____ _____    ______ ____
ROOT
ATOM      1  C   UNL     1      -1.703  11.308  19.353  0.00  0.00    +0.000 A 
ATOM      2  N   UNL     1      -2.780  11.936  19.766  0.00  0.00    +0.000 NA
ATOM      3  C   UNL     1      -3.796  11.980  18.881  0.00  0.00    +0.000 A 
ATOM      4  C   UNL     1      -3.815  11.426  17.631  0.00  0.00    +0.000 A 
ATOM      5  C   UNL     1      -5.066  11.722  17.094  0.00  0.00    +0.000 A 
ATOM      6  N   UNL     1      -5.817  12.434  17.942  0.00  0.00    +0.000 NA
ATOM      7  N   UNL     1      -5.021  12.585  19.035  0.00  0.00    +0.000 N 
ATOM      8  C   UNL     1      -2.663  10.721  17.155  0.00  0.00    +0.000 A 
ATOM      9  O   UNL     1      -2.634  10.220  16.034  0.00  0.00    +0.000 OA
ATOM     10  N   UNL     1      -1.608  10.687  18.089  0.00  0.00    +0.000 N 
ATOM     11  C   UNL     1      -0.388  10.038  17.625  0.00  0.00    +0.000 C 
ENDROOT
BRANCH   1  16
ATOM     12  N   UNL     1       0.306   9.078  21.177  0.00  0.00    +0.000 NA
ATOM     13  C   UNL     1       0.052   9.949  22.332  0.00  0.00    +0.000 C 
ATOM     14  C   UNL     1      -0.939  10.974  21.801  0.00  0.00    +0.000 C 
ATOM     15  C   UNL     1      -0.954  12.251  22.635  0.00  0.00    +0.000 C 
ATOM     16  C   UNL     1      -0.504  11.204  20.342  0.00  0.00    +0.000 C 
ATOM     17  F   UNL     1       0.300  12.315  20.316  0.00  0.00    +0.000 F 
ATOM     18  C   UNL     1       0.397   9.992  20.018  0.00  0.00    +0.000 C 
BRANCH  12  19
ATOM     19  C   UNL     1       1.529   8.281  21.403  0.00  0.00    +0.000 C 
BRANCH  19  24
ATOM     20  C   UNL     1       2.729   4.159  17.635  0.00  0.00    +0.000 C 
ATOM     21  C   UNL     1       2.402   5.231  18.625  0.00  0.00    +0.000 A 
ATOM     22  C   UNL     1       2.620   6.571  18.330  0.00  0.00    +0.000 A 
ATOM     23  N   UNL     1       2.329   7.572  19.193  0.00  0.00    +0.000 NA
ATOM     24  C   UNL     1       1.807   7.194  20.391  0.00  0.00    +0.000 A 
ATOM     25  C   UNL     1       1.590   5.853  20.685  0.00  0.00    +0.000 A 
ATOM     26  N   UNL     1       1.877   4.851  19.816  0.00  0.00    +0.000 NA
ENDBRANCH  19  24
ENDBRANCH  12  19
ENDBRANCH   1  16
BRANCH   7  27
ATOM     27  C   UNL     1      -5.560  13.313  20.178  0.00  0.00    +0.000 C 
ATOM     28  C   UNL     1      -6.340  12.427  21.153  0.00  0.00    +0.000 C 
ATOM     29  C   UNL     1      -6.903  13.271  22.289  0.00  0.00    +0.000 C 
ATOM     30  O   UNL     1      -7.688  14.346  21.778  0.00  0.00    +0.000 OA
ATOM     31  C   UNL     1      -6.917  15.250  20.989  0.00  0.00    +0.000 C 
ATOM     32  C   UNL     1      -6.362  14.548  19.760  0.00  0.00    +0.000 C 
ENDBRANCH   7  27
TORSDOF 4
ENDMDL
MODEL 5
REMARK VINA RESULT:      -7.0      2.914      5.884
REMARK  Name = 
REMARK  7 active torsions:
REMARK  status: ('A' for Active; 'I' for Inactive)
REMARK    1  A    between atoms: C_1  and  C_2
REMARK    2  A    between atoms: C_5  and  C_6
REMARK    3  A    between atoms: C_6  and  N_7
REMARK    4  A    between atoms: C_9  and  C_10
REMARK    5  A    between atoms: C_11  and  C_13
REMARK    6  A    between atoms: N_19  and  C_20
REMARK    7  A    between atoms: N_28  and  C_29
REMARK                            x       y       z     vdW  Elec       q    Type
REMARK                         _______ _______ _______ _____ _____    ______ ____
ROOT
ATOM      1  C   UNL     1      -0.791  11.587  20.296  0.00  0.00    +0.000 A 
ATOM      2  N   UNL     1      -1.877  12.324  20.342  0.00  0.00    +0.000 NA
ATOM      3  C   UNL     1      -2.477  12.391  21.547  0.00  0.00    +0.000 A 
ATOM      4  C   UNL     1      -2.055  11.794  22.703  0.00  0.00    +0.000 A 
ATOM      5  C   UNL     1      -2.983  12.147  23.682  0.00  0.00    +0.000 A 
ATOM      6  N   UNL     1      -3.955  12.924  23.192  0.00  0.00    +0.000 NA
ATOM      7  N   UNL     1      -3.630  13.063  21.877  0.00  0.00    +0.000 N 
ATOM      8  C   UNL     1      -0.867  10.996  22.692  0.00  0.00    +0.000 A 
ATOM      9  O   UNL     1      -0.462  10.432  23.705  0.00  0.00    +0.000 OA
ATOM     10  N   UNL     1      -0.253  10.931  21.425  0.00  0.00    +0.000 N 
ATOM     11  C   UNL     1       0.924  10.076  21.347  0.00  0.00    +0.000 C 
ENDROOT
BRANCH   1  16
ATOM     12  N   UNL     1       1.610   9.775  18.481  0.00  0.00    +0.000 NA
ATOM     13  C   UNL     1       2.218  11.076  18.177  0.00  0.00    +0.000 C 
ATOM     14  C   UNL     1       1.388  12.062  18.987  0.00  0.00    +0.000 C 
ATOM     15  C   UNL     1       1.491  13.486  18.449  0.00  0.00    +0.000 C 
ATOM     16  C   UNL     1      -0.041  11.491  18.935  0.00  0.00    +0.000 C 
ATOM     17  F   UNL     1      -0.707  12.127  17.918  0.00  0.00    +0.000 F 
ATOM     18  C   UNL     1       0.152  10.023  18.492  0.00  0.00    +0.000 C 
BRANCH  12  19
ATOM     19  C   UNL     1       2.034   8.771  17.484  0.00  0.00    +0.000 C 
BRANCH  19  24
ATOM     20  C   UNL     1       5.027   4.299  19.401  0.00  0.00    +0.000 C 
ATOM     21  C   UNL     1       4.256   5.477  18.895  0.00  0.00    +0.000 A 
ATOM     22  C   UNL     1       3.122   5.930  19.558  0.00  0.00    +0.000 A 
ATOM     23  N   UNL     1       2.402   6.998  19.141  0.00  0.00    +0.000 NA
ATOM     24  C   UNL     1       2.849   7.614  18.014  0.00  0.00    +0.000 A 
ATOM     25  C   UNL     1       3.983   7.160  17.352  0.00  0.00    +0.000 A 
ATOM     26  N   UNL     1       4.708   6.093  17.775  0.00  0.00    +0.000 NA
ENDBRANCH  19  24
ENDBRANCH  12  19
ENDBRANCH   1  16
BRANCH   7  27
ATOM     27  C   UNL     1      -4.495  13.888  21.042  0.00  0.00    +0.000 C 
ATOM     28  C   UNL     1      -5.185  15.019  21.810  0.00  0.00    +0.000 C 
ATOM     29  C   UNL     1      -6.100  15.801  20.877  0.00  0.00    +0.000 C 
ATOM     30  O   UNL     1      -7.028  14.930  20.234  0.00  0.00    +0.000 OA
ATOM     31  C   UNL     1      -6.380  13.970  19.401  0.00  0.00    +0.000 C 
ATOM     32  C   UNL     1      -5.491  13.056  20.232  0.00  0.00    +0.000 C 
ENDBRANCH   7  27
TORSDOF 4
ENDMDL
MODEL 6
REMARK VINA RESULT:      -6.9      2.222      4.869
REMARK  Name = 
REMARK  7 active torsions:
REMARK  status: ('A' for Active; 'I' for Inactive)
REMARK    1  A    between atoms: C_1  and  C_2
REMARK    2  A    between atoms: C_5  and  C_6
REMARK    3  A    between atoms: C_6  and  N_7
REMARK    4  A    between atoms: C_9  and  C_10
REMARK    5  A    between atoms: C_11  and  C_13
REMARK    6  A    between atoms: N_19  and  C_20
REMARK    7  A    between atoms: N_28  and  C_29
REMARK                            x       y       z     vdW  Elec       q    Type
REMARK                         _______ _______ _______ _____ _____    ______ ____
ROOT
ATOM      1  C   UNL     1      -1.636  11.223  19.494  0.00  0.00    +0.000 A 
ATOM      2  N   UNL     1      -2.788  11.664  19.946  0.00  0.00    +0.000 NA
ATOM      3  C   UNL     1      -3.762  11.784  19.023  0.00  0.00    +0.000 A 
ATOM      4  C   UNL     1      -3.670  11.476  17.693  0.00  0.00    +0.000 A 
ATOM      5  C   UNL     1      -4.919  11.757  17.142  0.00  0.00    +0.000 A 
ATOM      6  N   UNL     1      -5.773  12.227  18.057  0.00  0.00    +0.000 NA
ATOM      7  N   UNL     1      -5.047  12.239  19.208  0.00  0.00    +0.000 N 
ATOM      8  C   UNL     1      -2.434  10.978  17.170  0.00  0.00    +0.000 A 
ATOM      9  O   UNL     1      -2.305  10.701  15.980  0.00  0.00    +0.000 OA
ATOM     10  N   UNL     1      -1.424  10.861  18.146  0.00  0.00    +0.000 N 
ATOM     11  C   UNL     1      -0.126  10.422  17.648  0.00  0.00    +0.000 C 
ENDROOT
BRANCH   1  16
ATOM     12  N   UNL     1       0.366   8.857  21.146  0.00  0.00    +0.000 NA
ATOM     13  C   UNL     1       0.032   9.582  22.379  0.00  0.00    +0.000 C 
ATOM     14  C   UNL     1      -0.969  10.633  21.921  0.00  0.00    +0.000 C 
ATOM     15  C   UNL     1      -1.065  11.805  22.893  0.00  0.00    +0.000 C 
ATOM     16  C   UNL     1      -0.480  11.040  20.520  0.00  0.00    +0.000 C 
ATOM     17  F   UNL     1       0.287  12.170  20.658  0.00  0.00    +0.000 F 
ATOM     18  C   UNL     1       0.476   9.900  20.104  0.00  0.00    +0.000 C 
BRANCH  12  19
ATOM     19  C   UNL     1       1.604   8.075  21.338  0.00  0.00    +0.000 C 
BRANCH  19  24
ATOM     20  C   UNL     1       2.724   3.935  17.565  0.00  0.00    +0.000 C 
ATOM     21  C   UNL     1       2.418   5.011  18.558  0.00  0.00    +0.000 A 
ATOM     22  C   UNL     1       2.641   6.349  18.256  0.00  0.00    +0.000 A 
ATOM     23  N   UNL     1       2.369   7.355  19.120  0.00  0.00    +0.000 NA
ATOM     24  C   UNL     1       1.861   6.983  20.325  0.00  0.00    +0.000 A 
ATOM     25  C   UNL     1       1.639   5.645  20.627  0.00  0.00    +0.000 A 
ATOM     26  N   UNL     1       1.907   4.638  19.757  0.00  0.00    +0.000 NA
ENDBRANCH  19  24
ENDBRANCH  12  19
ENDBRANCH   1  16
BRANCH   7  27
ATOM     27  C   UNL     1      -5.705  12.689  20.429  0.00  0.00    +0.000 C 
ATOM     28  C   UNL     1      -4.741  12.901  21.599  0.00  0.00    +0.000 C 
ATOM     29  C   UNL     1      -5.513  13.326  22.841  0.00  0.00    +0.000 C 
ATOM     30  O   UNL     1      -6.540  12.384  23.143  0.00  0.00    +0.000 OA
ATOM     31  C   UNL     1      -7.518  12.301  22.107  0.00  0.00    +0.000 C 
ATOM     32  C   UNL     1      -6.888  11.798  20.817  0.00  0.00    +0.000 C 
ENDBRANCH   7  27
TORSDOF 4
ENDMDL
MODEL 7
REMARK VINA RESULT:      -6.9      2.406      5.055
REMARK  Name = 
REMARK  7 active torsions:
REMARK  status: ('A' for Active; 'I' for Inactive)
REMARK    1  A    between atoms: C_1  and  C_2
REMARK    2  A    between atoms: C_5  and  C_6
REMARK    3  A    between atoms: C_6  and  N_7
REMARK    4  A    between atoms: C_9  and  C_10
REMARK    5  A    between atoms: C_11  and  C_13
REMARK    6  A    between atoms: N_19  and  C_20
REMARK    7  A    between atoms: N_28  and  C_29
REMARK                            x       y       z     vdW  Elec       q    Type
REMARK                         _______ _______ _______ _____ _____    ______ ____
ROOT
ATOM      1  C   UNL     1      -2.525  12.184  18.967  0.00  0.00    +0.000 A 
ATOM      2  N   UNL     1      -3.029  12.614  20.102  0.00  0.00    +0.000 NA
ATOM      3  C   UNL     1      -4.360  12.455  20.238  0.00  0.00    +0.000 A 
ATOM      4  C   UNL     1      -5.211  11.881  19.333  0.00  0.00    +0.000 A 
ATOM      5  C   UNL     1      -6.480  11.935  19.907  0.00  0.00    +0.000 A 
ATOM      6  N   UNL     1      -6.459  12.516  21.111  0.00  0.00    +0.000 NA
ATOM      7  N   UNL     1      -5.149  12.832  21.299  0.00  0.00    +0.000 N 
ATOM      8  C   UNL     1      -4.692  11.387  18.094  0.00  0.00    +0.000 A 
ATOM      9  O   UNL     1      -5.424  10.875  17.250  0.00  0.00    +0.000 OA
ATOM     10  N   UNL     1      -3.300  11.563  17.964  0.00  0.00    +0.000 N 
ATOM     11  C   UNL     1      -2.736  11.137  16.690  0.00  0.00    +0.000 C 
ENDROOT
BRANCH   1  16
ATOM     12  N   UNL     1       0.547  10.500  19.224  0.00  0.00    +0.000 NA
ATOM     13  C   UNL     1       1.024  11.686  19.946  0.00  0.00    +0.000 C 
ATOM     14  C   UNL     1      -0.218  12.556  20.075  0.00  0.00    +0.000 C 
ATOM     15  C   UNL     1       0.123  14.022  20.320  0.00  0.00    +0.000 C 
ATOM     16  C   UNL     1      -0.987  12.319  18.763  0.00  0.00    +0.000 C 
ATOM     17  F   UNL     1      -0.656  13.330  17.897  0.00  0.00    +0.000 F 
ATOM     18  C   UNL     1      -0.372  11.022  18.191  0.00  0.00    +0.000 C 
BRANCH  12  19
ATOM     19  C   UNL     1       1.693   9.746  18.675  0.00  0.00    +0.000 C 
BRANCH  19  24
ATOM     20  C   UNL     1       2.401   4.401  20.562  0.00  0.00    +0.000 C 
ATOM     21  C   UNL     1       2.202   5.802  20.075  0.00  0.00    +0.000 A 
ATOM     22  C   UNL     1       2.587   6.177  18.794  0.00  0.00    +0.000 A 
ATOM     23  N   UNL     1       2.416   7.429  18.310  0.00  0.00    +0.000 NA
ATOM     24  C   UNL     1       1.842   8.323  19.159  0.00  0.00    +0.000 A 
ATOM     25  C   UNL     1       1.458   7.947  20.441  0.00  0.00    +0.000 A 
ATOM     26  N   UNL     1       1.625   6.689  20.922  0.00  0.00    +0.000 NA
ENDBRANCH  19  24
ENDBRANCH  12  19
ENDBRANCH   1  16
BRANCH   7  27
ATOM     27  C   UNL     1      -4.773  13.474  22.553  0.00  0.00    +0.000 C 
ATOM     28  C   UNL     1      -4.279  14.913  22.377  0.00  0.00    +0.000 C 
ATOM     29  C   UNL     1      -3.867  15.492  23.724  0.00  0.00    +0.000 C 
ATOM     30  O   UNL     1      -2.901  14.656  24.358  0.00  0.00    +0.000 OA
ATOM     31  C   UNL     1      -3.420  13.360  24.653  0.00  0.00    +0.000 C 
ATOM     32  C   UNL     1      -3.793  12.630  23.372  0.00  0.00    +0.000 C 
ENDBRANCH   7  27
TORSDOF 4
ENDMDL
MODEL 8
REMARK VINA RESULT:      -6.8      2.153      5.092
REMARK  Name = 
REMARK  7 active torsions:
REMARK  status: ('A' for Active; 'I' for Inactive)
REMARK    1  A    between atoms: C_1  and  C_2
REMARK    2  A    between atoms: C_5  and  C_6
REMARK    3  A    between atoms: C_6  and  N_7
REMARK    4  A    between atoms: C_9  and  C_10
REMARK    5  A    between atoms: C_11  and  C_13
REMARK    6  A    between atoms: N_19  and  C_20
REMARK    7  A    between atoms: N_28  and  C_29
REMARK                            x       y       z     vdW  Elec       q    Type
REMARK                         _______ _______ _______ _____ _____    ______ ____
ROOT
ATOM      1  C   UNL     1      -1.503  11.081  19.377  0.00  0.00    +0.000 A 
ATOM      2  N   UNL     1      -2.601  11.665  19.801  0.00  0.00    +0.000 NA
ATOM      3  C   UNL     1      -3.584  11.775  18.885  0.00  0.00    +0.000 A 
ATOM      4  C   UNL     1      -3.551  11.327  17.593  0.00  0.00    +0.000 A 
ATOM      5  C   UNL     1      -4.785  11.659  17.036  0.00  0.00    +0.000 A 
ATOM      6  N   UNL     1      -5.574  12.292  17.912  0.00  0.00    +0.000 NA
ATOM      7  N   UNL     1      -4.820  12.357  19.043  0.00  0.00    +0.000 N 
ATOM      8  C   UNL     1      -2.376  10.673  17.104  0.00  0.00    +0.000 A 
ATOM      9  O   UNL     1      -2.301  10.267  15.947  0.00  0.00    +0.000 OA
ATOM     10  N   UNL     1      -1.355  10.568  18.071  0.00  0.00    +0.000 N 
ATOM     11  C   UNL     1      -0.113   9.969  17.600  0.00  0.00    +0.000 C 
ENDROOT
BRANCH   1  16
ATOM     12  N   UNL     1       0.512   8.723  21.025  0.00  0.00    +0.000 NA
ATOM     13  C   UNL     1       0.183   9.450  22.258  0.00  0.00    +0.000 C 
ATOM     14  C   UNL     1      -0.822  10.498  21.803  0.00  0.00    +0.000 C 
ATOM     15  C   UNL     1      -0.915  11.672  22.772  0.00  0.00    +0.000 C 
ATOM     16  C   UNL     1      -0.340  10.903  20.398  0.00  0.00    +0.000 C 
ATOM     17  F   UNL     1       0.425  12.035  20.530  0.00  0.00    +0.000 F 
ATOM     18  C   UNL     1       0.616   9.764  19.980  0.00  0.00    +0.000 C 
BRANCH  12  19
ATOM     19  C   UNL     1       1.753   7.943  21.212  0.00  0.00    +0.000 C 
BRANCH  19  24
ATOM     20  C   UNL     1       2.378   3.592  17.564  0.00  0.00    +0.000 C 
ATOM     21  C   UNL     1       2.228   4.737  18.516  0.00  0.00    +0.000 A 
ATOM     22  C   UNL     1       1.622   4.565  19.754  0.00  0.00    +0.000 A 
ATOM     23  N   UNL     1       1.476   5.571  20.649  0.00  0.00    +0.000 NA
ATOM     24  C   UNL     1       1.955   6.784  20.265  0.00  0.00    +0.000 A 
ATOM     25  C   UNL     1       2.560   6.955  19.026  0.00  0.00    +0.000 A 
ATOM     26  N   UNL     1       2.712   5.944  18.133  0.00  0.00    +0.000 NA
ENDBRANCH  19  24
ENDBRANCH  12  19
ENDBRANCH   1  16
BRANCH   7  27
ATOM     27  C   UNL     1      -5.407  12.984  20.222  0.00  0.00    +0.000 C 
ATOM     28  C   UNL     1      -6.928  12.829  20.301  0.00  0.00    +0.000 C 
ATOM     29  C   UNL     1      -7.463  13.547  21.533  0.00  0.00    +0.000 C 
ATOM     30  O   UNL     1      -7.051  14.912  21.539  0.00  0.00    +0.000 OA
ATOM     31  C   UNL     1      -5.633  15.048  21.615  0.00  0.00    +0.000 C 
ATOM     32  C   UNL     1      -4.972  14.442  20.387  0.00  0.00    +0.000 C 
ENDBRANCH   7  27
TORSDOF 4
ENDMDL
MODEL 9
REMARK VINA RESULT:      -6.8      2.686      6.375
REMARK  Name = 
REMARK  7 active torsions:
REMARK  status: ('A' for Active; 'I' for Inactive)
REMARK    1  A    between atoms: C_1  and  C_2
REMARK    2  A    between atoms: C_5  and  C_6
REMARK    3  A    between atoms: C_6  and  N_7
REMARK    4  A    between atoms: C_9  and  C_10
REMARK    5  A    between atoms: C_11  and  C_13
REMARK    6  A    between atoms: N_19  and  C_20
REMARK    7  A    between atoms: N_28  and  C_29
REMARK                            x       y       z     vdW  Elec       q    Type
REMARK                         _______ _______ _______ _____ _____    ______ ____
ROOT
ATOM      1  C   UNL     1      -4.665  12.295  19.083  0.00  0.00    +0.000 A 
ATOM      2  N   UNL     1      -3.515  11.988  19.639  0.00  0.00    +0.000 NA
ATOM      3  C   UNL     1      -2.644  11.339  18.842  0.00  0.00    +0.000 A 
ATOM      4  C   UNL     1      -2.836  10.997  17.531  0.00  0.00    +0.000 A 
ATOM      5  C   UNL     1      -1.670  10.350  17.125  0.00  0.00    +0.000 A 
ATOM      6  N   UNL     1      -0.774  10.268  18.115  0.00  0.00    +0.000 NA
ATOM      7  N   UNL     1      -1.389  10.880  19.164  0.00  0.00    +0.000 N 
ATOM      8  C   UNL     1      -4.071  11.330  16.889  0.00  0.00    +0.000 A 
ATOM      9  O   UNL     1      -4.287  11.031  15.717  0.00  0.00    +0.000 OA
ATOM     10  N   UNL     1      -4.973  12.005  17.736  0.00  0.00    +0.000 N 
ATOM     11  C   UNL     1      -6.272  12.306  17.147  0.00  0.00    +0.000 C 
ENDROOT
BRANCH   1  16
ATOM     12  N   UNL     1      -5.194  13.863  22.181  0.00  0.00    +0.000 NA
ATOM     13  C   UNL     1      -6.435  13.081  22.253  0.00  0.00    +0.000 C 
ATOM     14  C   UNL     1      -6.374  12.190  21.021  0.00  0.00    +0.000 C 
ATOM     15  C   UNL     1      -7.749  11.675  20.608  0.00  0.00    +0.000 C 
ATOM     16  C   UNL     1      -5.703  13.067  19.949  0.00  0.00    +0.000 C 
ATOM     17  F   UNL     1      -6.698  13.639  19.196  0.00  0.00    +0.000 F 
ATOM     18  C   UNL     1      -5.039  14.208  20.752  0.00  0.00    +0.000 C 
BRANCH  12  19
ATOM     19  C   UNL     1      -5.284  15.038  23.070  0.00  0.00    +0.000 C 
BRANCH  19  24
ATOM     20  C   UNL     1      -0.689  16.126  26.285  0.00  0.00    +0.000 C 
ATOM     21  C   UNL     1      -1.883  15.835  25.432  0.00  0.00    +0.000 A 
ATOM     22  C   UNL     1      -2.952  16.720  25.370  0.00  0.00    +0.000 A 
ATOM     23  N   UNL     1      -4.047  16.501  24.605  0.00  0.00    +0.000 NA
ATOM     24  C   UNL     1      -4.051  15.346  23.888  0.00  0.00    +0.000 A 
ATOM     25  C   UNL     1      -2.981  14.461  23.951  0.00  0.00    +0.000 A 
ATOM     26  N   UNL     1      -1.882  14.685  24.715  0.00  0.00    +0.000 NA
ENDBRANCH  19  24
ENDBRANCH  12  19
ENDBRANCH   1  16
BRANCH   7  27
ATOM     27  C   UNL     1      -0.658  10.981  20.421  0.00  0.00    +0.000 C 
ATOM     28  C   UNL     1      -0.346   9.624  21.057  0.00  0.00    +0.000 C 
ATOM     29  C   UNL     1       0.377   9.822  22.383  0.00  0.00    +0.000 C 
ATOM     30  O   UNL     1      -0.376  10.671  23.246  0.00  0.00    +0.000 OA
ATOM     31  C   UNL     1      -0.535  11.983  22.709  0.00  0.00    +0.000 C 
ATOM     32  C   UNL     1      -1.328  11.936  21.411  0.00  0.00    +0.000 C 
ENDBRANCH   7  27
TORSDOF 4
ENDMDL
