MODEL 1
REMARK VINA RESULT:      -7.8      0.000      0.000
REMARK  Name = 
REMARK  6 active torsions:
REMARK  status: ('A' for Active; 'I' for Inactive)
REMARK    1  A    between atoms: C_2  and  C_3
REMARK    2  A    between atoms: C_7  and  N_8
REMARK    3  A    between atoms: C_11  and  C_12
REMARK    4  A    between atoms: C_12  and  N_13
REMARK    5  A    between atoms: C_12  and  C_14
REMARK    6  A    between atoms: C_14  and  C_15
REMARK                            x       y       z     vdW  Elec       q    Type
REMARK                         _______ _______ _______ _____ _____    ______ ____
ROOT
ATOM      1  N   UNL     1       6.204   4.961  16.002  0.00  0.00    +0.000 N 
ATOM      2  C   UNL     1       6.086   6.371  16.415  0.00  0.00    +0.000 C 
ATOM      3  C   UNL     1       5.954   6.467  17.936  0.00  0.00    +0.000 C 
ATOM      4  C   UNL     1       4.752   5.651  18.476  0.00  0.00    +0.000 C 
ATOM      5  C   UNL     1       4.932   4.204  17.972  0.00  0.00    +0.000 C 
ATOM      6  C   UNL     1       5.089   4.106  16.452  0.00  0.00    +0.000 C 
ENDROOT
BRANCH   1  11
ATOM      7  C   UNL     1       6.407   3.497  12.559  0.00  0.00    +0.000 A 
ATOM      8  C   UNL     1       7.348   4.362  12.023  0.00  0.00    +0.000 A 
ATOM      9  N   UNL     1       7.899   5.383  12.714  0.00  0.00    +0.000 NA
ATOM     10  C   UNL     1       7.483   5.536  14.000  0.00  0.00    +0.000 A 
ATOM     11  C   UNL     1       6.545   4.726  14.655  0.00  0.00    +0.000 A 
ATOM     12  C   UNL     1       6.000   3.693  13.883  0.00  0.00    +0.000 A 
BRANCH   7  14
ATOM     13  N   UNL     1       5.433   1.560  11.142  0.00  0.00    +0.000 NA
ATOM     14  C   UNL     1       5.873   2.432  11.774  0.00  0.00    +0.000 C 
ENDBRANCH   7  14
ENDBRANCH   1  11
BRANCH   4  15
ATOM     15  C   UNL     1       3.372   6.317  18.144  0.00  0.00    +0.000 C 
BRANCH  15  16
ATOM     16  N   UNL     1       3.607   7.756  17.922  0.00  0.00    +0.000 NA
ATOM     17  H   UNL     1       4.587   7.914  17.687  0.00  0.00    +0.000 HD
ATOM     18  H   UNL     1       3.440   8.272  18.785  0.00  0.00    +0.000 HD
ENDBRANCH  15  16
BRANCH  15  19
ATOM     19  C   UNL     1       2.306   6.136  19.261  0.00  0.00    +0.000 C 
BRANCH  19  20
ATOM     20  C   UNL     1       1.795   4.725  19.508  0.00  0.00    +0.000 A 
ATOM     21  C   UNL     1       1.914   4.131  20.776  0.00  0.00    +0.000 A 
ATOM     22  C   UNL     1       1.602   2.782  20.954  0.00  0.00    +0.000 A 
ATOM     23  F   UNL     1       1.768   2.221  22.160  0.00  0.00    +0.000 F 
ATOM     24  C   UNL     1       1.153   1.999  19.898  0.00  0.00    +0.000 A 
ATOM     25  C   UNL     1       0.989   2.584  18.645  0.00  0.00    +0.000 A 
ATOM     26  C   UNL     1       1.310   3.931  18.459  0.00  0.00    +0.000 A 
ATOM     27  F   UNL     1       1.187   4.452  17.230  0.00  0.00    +0.000 F 
ENDBRANCH  19  20
ENDBRANCH  15  19
ENDBRANCH   4  15
TORSDOF 6
ENDMDL
MODEL 2
REMARK VINA RESULT:      -7.5      2.585      3.588
REMARK  Name = 
REMARK  6 active torsions:
REMARK  status: ('A' for Active; 'I' for Inactive)
REMARK    1  A    between atoms: C_2  and  C_3
REMARK    2  A    between atoms: C_7  and  N_8
REMARK    3  A    between atoms: C_11  and  C_12
REMARK    4  A    between atoms: C_12  and  N_13
REMARK    5  A    between atoms: C_12  and  C_14
REMARK    6  A    between atoms: C_14  and  C_15
REMARK                            x       y       z     vdW  Elec       q    Type
REMARK                         _______ _______ _______ _____ _____    ______ ____
ROOT
ATOM      1  N   UNL     1       5.497   4.303  17.247  0.00  0.00    +0.000 N 
ATOM      2  C   UNL     1       5.301   5.548  18.012  0.00  0.00    +0.000 C 
ATOM      3  C   UNL     1       4.939   5.227  19.462  0.00  0.00    +0.000 C 
ATOM      4  C   UNL     1       3.679   4.331  19.571  0.00  0.00    +0.000 C 
ATOM      5  C   UNL     1       3.950   3.073  18.720  0.00  0.00    +0.000 C 
ATOM      6  C   UNL     1       4.336   3.392  17.272  0.00  0.00    +0.000 C 
ENDROOT
BRANCH   1  11
ATOM      7  C   UNL     1       6.168   3.906  13.582  0.00  0.00    +0.000 A 
ATOM      8  C   UNL     1       7.244   4.773  13.475  0.00  0.00    +0.000 A 
ATOM      9  N   UNL     1       7.742   5.473  14.517  0.00  0.00    +0.000 NA
ATOM     10  C   UNL     1       7.130   5.288  15.717  0.00  0.00    +0.000 A 
ATOM     11  C   UNL     1       6.040   4.437  15.953  0.00  0.00    +0.000 A 
ATOM     12  C   UNL     1       5.561   3.749  14.832  0.00  0.00    +0.000 A 
BRANCH   7  14
ATOM     13  N   UNL     1       5.316   2.599  11.515  0.00  0.00    +0.000 NA
ATOM     14  C   UNL     1       5.699   3.191  12.440  0.00  0.00    +0.000 C 
ENDBRANCH   7  14
ENDBRANCH   1  11
BRANCH   4  15
ATOM     15  C   UNL     1       2.357   5.104  19.234  0.00  0.00    +0.000 C 
BRANCH  15  16
ATOM     16  N   UNL     1       1.534   4.236  18.371  0.00  0.00    +0.000 NA
ATOM     17  H   UNL     1       1.548   4.586  17.414  0.00  0.00    +0.000 HD
ATOM     18  H   UNL     1       0.560   4.275  18.669  0.00  0.00    +0.000 HD
ENDBRANCH  15  16
BRANCH  15  19
ATOM     19  C   UNL     1       2.594   6.465  18.521  0.00  0.00    +0.000 C 
BRANCH  19  20
ATOM     20  C   UNL     1       2.050   7.709  19.204  0.00  0.00    +0.000 A 
ATOM     21  C   UNL     1       1.657   7.673  20.553  0.00  0.00    +0.000 A 
ATOM     22  C   UNL     1       1.001   8.764  21.126  0.00  0.00    +0.000 A 
ATOM     23  F   UNL     1       0.592   8.692  22.400  0.00  0.00    +0.000 F 
ATOM     24  C   UNL     1       0.735   9.913  20.392  0.00  0.00    +0.000 A 
ATOM     25  C   UNL     1       1.155   9.981  19.066  0.00  0.00    +0.000 A 
ATOM     26  C   UNL     1       1.803   8.887  18.485  0.00  0.00    +0.000 A 
ATOM     27  F   UNL     1       2.152   8.966  17.194  0.00  0.00    +0.000 F 
ENDBRANCH  19  20
ENDBRANCH  15  19
ENDBRANCH   4  15
TORSDOF 6
ENDMDL
MODEL 3
REMARK VINA RESULT:      -7.4      3.457      7.771
REMARK  Name = 
REMARK  6 active torsions:
REMARK  status: ('A' for Active; 'I' for Inactive)
REMARK    1  A    between atoms: C_2  and  C_3
REMARK    2  A    between atoms: C_7  and  N_8
REMARK    3  A    between atoms: C_11  and  C_12
REMARK    4  A    between atoms: C_12  and  N_13
REMARK    5  A    between atoms: C_12  and  C_14
REMARK    6  A    between atoms: C_14  and  C_15
REMARK                            x       y       z     vdW  Elec       q    Type
REMARK                         _______ _______ _______ _____ _____    ______ ____
ROOT
ATOM      1  N   UNL     1       1.574   4.835  20.045  0.00  0.00    +0.000 N 
ATOM      2  C   UNL     1       1.309   4.251  18.718  0.00  0.00    +0.000 C 
ATOM      3  C   UNL     1       1.090   2.743  18.837  0.00  0.00    +0.000 C 
ATOM      4  C   UNL     1       2.289   2.024  19.506  0.00  0.00    +0.000 C 
ATOM      5  C   UNL     1       2.521   2.713  20.866  0.00  0.00    +0.000 C 
ATOM      6  C   UNL     1       2.717   4.228  20.754  0.00  0.00    +0.000 C 
ENDROOT
BRANCH   1  11
ATOM      7  C   UNL     1       1.158   8.362  21.241  0.00  0.00    +0.000 A 
ATOM      8  C   UNL     1       1.629   9.017  20.114  0.00  0.00    +0.000 A 
ATOM      9  N   UNL     1       2.074   8.377  19.012  0.00  0.00    +0.000 NA
ATOM     10  C   UNL     1       2.042   7.017  19.048  0.00  0.00    +0.000 A 
ATOM     11  C   UNL     1       1.585   6.242  20.124  0.00  0.00    +0.000 A 
ATOM     12  C   UNL     1       1.149   6.963  21.242  0.00  0.00    +0.000 A 
BRANCH   7  14
ATOM     13  N   UNL     1       0.314   9.716  23.280  0.00  0.00    +0.000 NA
ATOM     14  C   UNL     1       0.694   9.103  22.367  0.00  0.00    +0.000 C 
ENDBRANCH   7  14
ENDBRANCH   1  11
BRANCH   4  15
ATOM     15  C   UNL     1       3.542   1.938  18.568  0.00  0.00    +0.000 C 
BRANCH  15  16
ATOM     16  N   UNL     1       4.097   0.576  18.680  0.00  0.00    +0.000 NA
ATOM     17  H   UNL     1       3.338  -0.104  18.717  0.00  0.00    +0.000 HD
ATOM     18  H   UNL     1       4.603   0.479  19.559  0.00  0.00    +0.000 HD
ENDBRANCH  15  16
BRANCH  15  19
ATOM     19  C   UNL     1       4.649   2.975  18.909  0.00  0.00    +0.000 C 
BRANCH  19  20
ATOM     20  C   UNL     1       4.902   4.078  17.893  0.00  0.00    +0.000 A 
ATOM     21  C   UNL     1       4.808   3.819  16.515  0.00  0.00    +0.000 A 
ATOM     22  C   UNL     1       5.207   4.782  15.588  0.00  0.00    +0.000 A 
ATOM     23  F   UNL     1       5.154   4.499  14.279  0.00  0.00    +0.000 F 
ATOM     24  C   UNL     1       5.687   6.021  15.995  0.00  0.00    +0.000 A 
ATOM     25  C   UNL     1       5.747   6.309  17.356  0.00  0.00    +0.000 A 
ATOM     26  C   UNL     1       5.359   5.343  18.289  0.00  0.00    +0.000 A 
ATOM     27  F   UNL     1       5.473   5.633  19.592  0.00  0.00    +0.000 F 
ENDBRANCH  19  20
ENDBRANCH  15  19
ENDBRANCH   4  15
TORSDOF 6
ENDMDL
MODEL 4
REMARK VINA RESULT:      -7.3      0.919      1.616
REMARK  Name = 
REMARK  6 active torsions:
REMARK  status: ('A' for Active; 'I' for Inactive)
REMARK    1  A    between atoms: C_2  and  C_3
REMARK    2  A    between atoms: C_7  and  N_8
REMARK    3  A    between atoms: C_11  and  C_12
REMARK    4  A    between atoms: C_12  and  N_13
REMARK    5  A    between atoms: C_12  and  C_14
REMARK    6  A    between atoms: C_14  and  C_15
REMARK                            x       y       z     vdW  Elec       q    Type
REMARK                         _______ _______ _______ _____ _____    ______ ____
ROOT
ATOM      1  N   UNL     1       6.205   5.118  15.921  0.00  0.00    +0.000 N 
ATOM      2  C   UNL     1       5.971   6.538  16.240  0.00  0.00    +0.000 C 
ATOM      3  C   UNL     1       5.839   6.726  17.751  0.00  0.00    +0.000 C 
ATOM      4  C   UNL     1       4.713   5.851  18.358  0.00  0.00    +0.000 C 
ATOM      5  C   UNL     1       5.012   4.393  17.951  0.00  0.00    +0.000 C 
ATOM      6  C   UNL     1       5.168   4.205  16.439  0.00  0.00    +0.000 C 
ENDROOT
BRANCH   1  11
ATOM      7  C   UNL     1       6.416   3.515  12.540  0.00  0.00    +0.000 A 
ATOM      8  C   UNL     1       7.386   4.334  11.985  0.00  0.00    +0.000 A 
ATOM      9  N   UNL     1       7.954   5.366  12.643  0.00  0.00    +0.000 NA
ATOM     10  C   UNL     1       7.525   5.581  13.916  0.00  0.00    +0.000 A 
ATOM     11  C   UNL     1       6.557   4.821  14.589  0.00  0.00    +0.000 A 
ATOM     12  C   UNL     1       5.996   3.773  13.850  0.00  0.00    +0.000 A 
BRANCH   7  14
ATOM     13  N   UNL     1       5.424   1.551  11.174  0.00  0.00    +0.000 NA
ATOM     14  C   UNL     1       5.864   2.434  11.790  0.00  0.00    +0.000 C 
ENDBRANCH   7  14
ENDBRANCH   1  11
BRANCH   4  15
ATOM     15  C   UNL     1       3.280   6.374  17.997  0.00  0.00    +0.000 C 
BRANCH  15  16
ATOM     16  N   UNL     1       3.396   7.804  17.654  0.00  0.00    +0.000 NA
ATOM     17  H   UNL     1       2.664   8.334  18.126  0.00  0.00    +0.000 HD
ATOM     18  H   UNL     1       3.235   7.935  16.656  0.00  0.00    +0.000 HD
ENDBRANCH  15  16
BRANCH  15  19
ATOM     19  C   UNL     1       2.245   6.202  19.145  0.00  0.00    +0.000 C 
BRANCH  19  20
ATOM     20  C   UNL     1       1.945   4.782  19.599  0.00  0.00    +0.000 A 
ATOM     21  C   UNL     1       1.369   3.853  18.716  0.00  0.00    +0.000 A 
ATOM     22  C   UNL     1       0.938   2.611  19.183  0.00  0.00    +0.000 A 
ATOM     23  F   UNL     1       0.349   1.756  18.335  0.00  0.00    +0.000 F 
ATOM     24  C   UNL     1       1.080   2.252  20.518  0.00  0.00    +0.000 A 
ATOM     25  C   UNL     1       1.687   3.145  21.397  0.00  0.00    +0.000 A 
ATOM     26  C   UNL     1       2.110   4.395  20.937  0.00  0.00    +0.000 A 
ATOM     27  F   UNL     1       2.647   5.250  21.818  0.00  0.00    +0.000 F 
ENDBRANCH  19  20
ENDBRANCH  15  19
ENDBRANCH   4  15
TORSDOF 6
ENDMDL
MODEL 5
REMARK VINA RESULT:      -7.2      5.127      8.143
REMARK  Name = 
REMARK  6 active torsions:
REMARK  status: ('A' for Active; 'I' for Inactive)
REMARK    1  A    between atoms: C_2  and  C_3
REMARK    2  A    between atoms: C_7  and  N_8
REMARK    3  A    between atoms: C_11  and  C_12
REMARK    4  A    between atoms: C_12  and  N_13
REMARK    5  A    between atoms: C_12  and  C_14
REMARK    6  A    between atoms: C_14  and  C_15
REMARK                            x       y       z     vdW  Elec       q    Type
REMARK                         _______ _______ _______ _____ _____    ______ ____
ROOT
ATOM      1  N   UNL     1      -0.525  10.421  18.421  0.00  0.00    +0.000 N 
ATOM      2  C   UNL     1      -0.529  10.046  19.847  0.00  0.00    +0.000 C 
ATOM      3  C   UNL     1       0.892  10.089  20.409  0.00  0.00    +0.000 C 
ATOM      4  C   UNL     1       1.867   9.179  19.621  0.00  0.00    +0.000 C 
ATOM      5  C   UNL     1       1.786   9.611  18.142  0.00  0.00    +0.000 C 
ATOM      6  C   UNL     1       0.361   9.591  17.582  0.00  0.00    +0.000 C 
ENDROOT
BRANCH   1  11
ATOM      7  C   UNL     1      -3.352  10.527  15.965  0.00  0.00    +0.000 A 
ATOM      8  C   UNL     1      -4.296  11.153  16.765  0.00  0.00    +0.000 A 
ATOM      9  N   UNL     1      -4.061  11.523  18.041  0.00  0.00    +0.000 NA
ATOM     10  C   UNL     1      -2.821  11.253  18.531  0.00  0.00    +0.000 A 
ATOM     11  C   UNL     1      -1.783  10.632  17.822  0.00  0.00    +0.000 A 
ATOM     12  C   UNL     1      -2.091  10.260  16.508  0.00  0.00    +0.000 A 
BRANCH   7  14
ATOM     13  N   UNL     1      -3.913   9.875  13.522  0.00  0.00    +0.000 NA
ATOM     14  C   UNL     1      -3.666  10.171  14.619  0.00  0.00    +0.000 C 
ENDBRANCH   7  14
ENDBRANCH   1  11
BRANCH   4  15
ATOM     15  C   UNL     1       1.624   7.654  19.895  0.00  0.00    +0.000 C 
BRANCH  15  16
ATOM     16  N   UNL     1       1.401   7.486  21.343  0.00  0.00    +0.000 NA
ATOM     17  H   UNL     1       1.988   8.139  21.862  0.00  0.00    +0.000 HD
ATOM     18  H   UNL     1       1.696   6.555  21.633  0.00  0.00    +0.000 HD
ENDBRANCH  15  16
BRANCH  15  19
ATOM     19  C   UNL     1       2.801   6.743  19.445  0.00  0.00    +0.000 C 
BRANCH  19  20
ATOM     20  C   UNL     1       2.442   5.397  18.836  0.00  0.00    +0.000 A 
ATOM     21  C   UNL     1       1.466   4.579  19.430  0.00  0.00    +0.000 A 
ATOM     22  C   UNL     1       1.263   3.277  18.970  0.00  0.00    +0.000 A 
ATOM     23  F   UNL     1       0.361   2.495  19.580  0.00  0.00    +0.000 F 
ATOM     24  C   UNL     1       1.999   2.762  17.910  0.00  0.00    +0.000 A 
ATOM     25  C   UNL     1       2.940   3.575  17.283  0.00  0.00    +0.000 A 
ATOM     26  C   UNL     1       3.155   4.876  17.747  0.00  0.00    +0.000 A 
ATOM     27  F   UNL     1       4.101   5.616  17.153  0.00  0.00    +0.000 F 
ENDBRANCH  19  20
ENDBRANCH  15  19
ENDBRANCH   4  15
TORSDOF 6
ENDMDL
MODEL 6
REMARK VINA RESULT:      -7.1      2.336      3.820
REMARK  Name = 
REMARK  6 active torsions:
REMARK  status: ('A' for Active; 'I' for Inactive)
REMARK    1  A    between atoms: C_2  and  C_3
REMARK    2  A    between atoms: C_7  and  N_8
REMARK    3  A    between atoms: C_11  and  C_12
REMARK    4  A    between atoms: C_12  and  N_13
REMARK    5  A    between atoms: C_12  and  C_14
REMARK    6  A    between atoms: C_14  and  C_15
REMARK                            x       y       z     vdW  Elec       q    Type
REMARK                         _______ _______ _______ _____ _____    ______ ____
ROOT
ATOM      1  N   UNL     1       4.806   3.454  17.483  0.00  0.00    +0.000 N 
ATOM      2  C   UNL     1       5.027   3.992  18.838  0.00  0.00    +0.000 C 
ATOM      3  C   UNL     1       4.279   3.148  19.870  0.00  0.00    +0.000 C 
ATOM      4  C   UNL     1       2.761   3.061  19.574  0.00  0.00    +0.000 C 
ATOM      5  C   UNL     1       2.617   2.527  18.134  0.00  0.00    +0.000 C 
ATOM      6  C   UNL     1       3.384   3.355  17.099  0.00  0.00    +0.000 C 
ENDROOT
BRANCH   1  11
ATOM      7  C   UNL     1       6.397   4.118  14.157  0.00  0.00    +0.000 A 
ATOM      8  C   UNL     1       7.256   5.136  14.540  0.00  0.00    +0.000 A 
ATOM      9  N   UNL     1       7.331   5.612  15.801  0.00  0.00    +0.000 NA
ATOM     10  C   UNL     1       6.505   5.034  16.715  0.00  0.00    +0.000 A 
ATOM     11  C   UNL     1       5.599   3.997  16.452  0.00  0.00    +0.000 A 
ATOM     12  C   UNL     1       5.558   3.556  15.125  0.00  0.00    +0.000 A 
BRANCH   7  14
ATOM     13  N   UNL     1       6.357   3.274  11.709  0.00  0.00    +0.000 NA
ATOM     14  C   UNL     1       6.377   3.658  12.806  0.00  0.00    +0.000 C 
ENDBRANCH   7  14
ENDBRANCH   1  11
BRANCH   4  15
ATOM     15  C   UNL     1       2.009   4.404  19.875  0.00  0.00    +0.000 C 
BRANCH  15  16
ATOM     16  N   UNL     1       1.124   4.692  18.731  0.00  0.00    +0.000 NA
ATOM     17  H   UNL     1       1.501   4.264  17.886  0.00  0.00    +0.000 HD
ATOM     18  H   UNL     1       1.105   5.695  18.552  0.00  0.00    +0.000 HD
ENDBRANCH  15  16
BRANCH  15  19
ATOM     19  C   UNL     1       2.958   5.612  20.110  0.00  0.00    +0.000 C 
BRANCH  19  20
ATOM     20  C   UNL     1       2.486   6.970  19.612  0.00  0.00    +0.000 A 
ATOM     21  C   UNL     1       1.672   7.786  20.416  0.00  0.00    +0.000 A 
ATOM     22  C   UNL     1       1.103   8.947  19.893  0.00  0.00    +0.000 A 
ATOM     23  F   UNL     1       0.291   9.687  20.661  0.00  0.00    +0.000 F 
ATOM     24  C   UNL     1       1.336   9.337  18.579  0.00  0.00    +0.000 A 
ATOM     25  C   UNL     1       2.174   8.562  17.783  0.00  0.00    +0.000 A 
ATOM     26  C   UNL     1       2.738   7.392  18.299  0.00  0.00    +0.000 A 
ATOM     27  F   UNL     1       3.502   6.643  17.492  0.00  0.00    +0.000 F 
ENDBRANCH  19  20
ENDBRANCH  15  19
ENDBRANCH   4  15
TORSDOF 6
ENDMDL
MODEL 7
REMARK VINA RESULT:      -7.0      1.389      1.589
REMARK  Name = 
REMARK  6 active torsions:
REMARK  status: ('A' for Active; 'I' for Inactive)
REMARK    1  A    between atoms: C_2  and  C_3
REMARK    2  A    between atoms: C_7  and  N_8
REMARK    3  A    between atoms: C_11  and  C_12
REMARK    4  A    between atoms: C_12  and  N_13
REMARK    5  A    between atoms: C_12  and  C_14
REMARK    6  A    between atoms: C_14  and  C_15
REMARK                            x       y       z     vdW  Elec       q    Type
REMARK                         _______ _______ _______ _____ _____    ______ ____
ROOT
ATOM      1  N   UNL     1       6.742   5.418  15.691  0.00  0.00    +0.000 N 
ATOM      2  C   UNL     1       5.514   6.075  16.174  0.00  0.00    +0.000 C 
ATOM      3  C   UNL     1       5.768   6.741  17.526  0.00  0.00    +0.000 C 
ATOM      4  C   UNL     1       6.290   5.741  18.588  0.00  0.00    +0.000 C 
ATOM      5  C   UNL     1       7.548   5.074  17.994  0.00  0.00    +0.000 C 
ATOM      6  C   UNL     1       7.304   4.426  16.628  0.00  0.00    +0.000 C 
ENDROOT
BRANCH   1  11
ATOM      7  C   UNL     1       5.669   3.859  12.456  0.00  0.00    +0.000 A 
ATOM      8  C   UNL     1       6.850   4.022  11.749  0.00  0.00    +0.000 A 
ATOM      9  N   UNL     1       7.950   4.613  12.262  0.00  0.00    +0.000 NA
ATOM     10  C   UNL     1       7.855   5.056  13.545  0.00  0.00    +0.000 A 
ATOM     11  C   UNL     1       6.722   4.944  14.363  0.00  0.00    +0.000 A 
ATOM     12  C   UNL     1       5.610   4.335  13.771  0.00  0.00    +0.000 A 
BRANCH   7  14
ATOM     13  N   UNL     1       3.636   2.684  11.365  0.00  0.00    +0.000 NA
ATOM     14  C   UNL     1       4.547   3.217  11.854  0.00  0.00    +0.000 C 
ENDBRANCH   7  14
ENDBRANCH   1  11
BRANCH   4  15
ATOM     15  C   UNL     1       5.177   4.758  19.091  0.00  0.00    +0.000 C 
BRANCH  15  16
ATOM     16  N   UNL     1       5.434   3.438  18.486  0.00  0.00    +0.000 NA
ATOM     17  H   UNL     1       6.408   3.377  18.190  0.00  0.00    +0.000 HD
ATOM     18  H   UNL     1       4.878   3.330  17.639  0.00  0.00    +0.000 HD
ENDBRANCH  15  16
BRANCH  15  19
ATOM     19  C   UNL     1       3.734   5.215  18.736  0.00  0.00    +0.000 C 
BRANCH  19  20
ATOM     20  C   UNL     1       2.596   4.289  19.138  0.00  0.00    +0.000 A 
ATOM     21  C   UNL     1       2.307   4.054  20.493  0.00  0.00    +0.000 A 
ATOM     22  C   UNL     1       1.380   3.076  20.857  0.00  0.00    +0.000 A 
ATOM     23  F   UNL     1       1.153   2.834  22.155  0.00  0.00    +0.000 F 
ATOM     24  C   UNL     1       0.709   2.326  19.899  0.00  0.00    +0.000 A 
ATOM     25  C   UNL     1       0.952   2.576  18.551  0.00  0.00    +0.000 A 
ATOM     26  C   UNL     1       1.888   3.547  18.182  0.00  0.00    +0.000 A 
ATOM     27  F   UNL     1       2.134   3.730  16.878  0.00  0.00    +0.000 F 
ENDBRANCH  19  20
ENDBRANCH  15  19
ENDBRANCH   4  15
TORSDOF 6
ENDMDL
MODEL 8
REMARK VINA RESULT:      -7.0      2.462      3.862
REMARK  Name = 
REMARK  6 active torsions:
REMARK  status: ('A' for Active; 'I' for Inactive)
REMARK    1  A    between atoms: C_2  and  C_3
REMARK    2  A    between atoms: C_7  and  N_8
REMARK    3  A    between atoms: C_11  and  C_12
REMARK    4  A    between atoms: C_12  and  N_13
REMARK    5  A    between atoms: C_12  and  C_14
REMARK    6  A    between atoms: C_14  and  C_15
REMARK                            x       y       z     vdW  Elec       q    Type
REMARK                         _______ _______ _______ _____ _____    ______ ____
ROOT
ATOM      1  N   UNL     1       4.668   3.192  17.864  0.00  0.00    +0.000 N 
ATOM      2  C   UNL     1       4.978   3.589  19.250  0.00  0.00    +0.000 C 
ATOM      3  C   UNL     1       4.481   2.525  20.229  0.00  0.00    +0.000 C 
ATOM      4  C   UNL     1       2.963   2.250  20.081  0.00  0.00    +0.000 C 
ATOM      5  C   UNL     1       2.719   1.877  18.604  0.00  0.00    +0.000 C 
ATOM      6  C   UNL     1       3.237   2.929  17.619  0.00  0.00    +0.000 C 
ENDROOT
BRANCH   1  11
ATOM      7  C   UNL     1       6.067   4.319  14.576  0.00  0.00    +0.000 A 
ATOM      8  C   UNL     1       6.450   5.599  14.944  0.00  0.00    +0.000 A 
ATOM      9  N   UNL     1       6.268   6.103  16.184  0.00  0.00    +0.000 NA
ATOM     10  C   UNL     1       5.676   5.280  17.090  0.00  0.00    +0.000 A 
ATOM     11  C   UNL     1       5.250   3.967  16.841  0.00  0.00    +0.000 A 
ATOM     12  C   UNL     1       5.454   3.506  15.536  0.00  0.00    +0.000 A 
BRANCH   7  14
ATOM     13  N   UNL     1       6.480   3.455  12.170  0.00  0.00    +0.000 NA
ATOM     14  C   UNL     1       6.298   3.848  13.250  0.00  0.00    +0.000 C 
ENDBRANCH   7  14
ENDBRANCH   1  11
BRANCH   4  15
ATOM     15  C   UNL     1       2.080   3.418  20.639  0.00  0.00    +0.000 C 
BRANCH  15  16
ATOM     16  N   UNL     1       0.989   2.820  21.432  0.00  0.00    +0.000 NA
ATOM     17  H   UNL     1       1.213   2.873  22.425  0.00  0.00    +0.000 HD
ATOM     18  H   UNL     1       0.909   1.827  21.216  0.00  0.00    +0.000 HD
ENDBRANCH  15  16
BRANCH  15  19
ATOM     19  C   UNL     1       1.474   4.327  19.533  0.00  0.00    +0.000 C 
BRANCH  19  20
ATOM     20  C   UNL     1       1.729   5.822  19.647  0.00  0.00    +0.000 A 
ATOM     21  C   UNL     1       1.362   6.524  20.808  0.00  0.00    +0.000 A 
ATOM     22  C   UNL     1       1.439   7.918  20.842  0.00  0.00    +0.000 A 
ATOM     23  F   UNL     1       1.039   8.573  21.940  0.00  0.00    +0.000 F 
ATOM     24  C   UNL     1       1.892   8.643  19.746  0.00  0.00    +0.000 A 
ATOM     25  C   UNL     1       2.299   7.959  18.604  0.00  0.00    +0.000 A 
ATOM     26  C   UNL     1       2.214   6.564  18.562  0.00  0.00    +0.000 A 
ATOM     27  F   UNL     1       2.568   5.939  17.431  0.00  0.00    +0.000 F 
ENDBRANCH  19  20
ENDBRANCH  15  19
ENDBRANCH   4  15
TORSDOF 6
ENDMDL
MODEL 9
REMARK VINA RESULT:      -7.0      3.587      7.770
REMARK  Name = 
REMARK  6 active torsions:
REMARK  status: ('A' for Active; 'I' for Inactive)
REMARK    1  A    between atoms: C_2  and  C_3
REMARK    2  A    between atoms: C_7  and  N_8
REMARK    3  A    between atoms: C_11  and  C_12
REMARK    4  A    between atoms: C_12  and  N_13
REMARK    5  A    between atoms: C_12  and  C_14
REMARK    6  A    between atoms: C_14  and  C_15
REMARK                            x       y       z     vdW  Elec       q    Type
REMARK                         _______ _______ _______ _____ _____    ______ ____
ROOT
ATOM      1  N   UNL     1       1.580   5.153  19.977  0.00  0.00    +0.000 N 
ATOM      2  C   UNL     1       1.489   4.622  18.604  0.00  0.00    +0.000 C 
ATOM      3  C   UNL     1       1.300   3.106  18.635  0.00  0.00    +0.000 C 
ATOM      4  C   UNL     1       2.431   2.385  19.411  0.00  0.00    +0.000 C 
ATOM      5  C   UNL     1       2.483   3.020  20.817  0.00  0.00    +0.000 C 
ATOM      6  C   UNL     1       2.649   4.542  20.790  0.00  0.00    +0.000 C 
ENDROOT
BRANCH   1  11
ATOM      7  C   UNL     1       1.068   8.610  21.328  0.00  0.00    +0.000 A 
ATOM      8  C   UNL     1       1.485   9.328  20.218  0.00  0.00    +0.000 A 
ATOM      9  N   UNL     1       1.924   8.750  19.080  0.00  0.00    +0.000 NA
ATOM     10  C   UNL     1       1.942   7.390  19.060  0.00  0.00    +0.000 A 
ATOM     11  C   UNL     1       1.542   6.555  20.113  0.00  0.00    +0.000 A 
ATOM     12  C   UNL     1       1.109   7.213  21.271  0.00  0.00    +0.000 A 
BRANCH   7  14
ATOM     13  N   UNL     1       0.228   9.829  23.453  0.00  0.00    +0.000 NA
ATOM     14  C   UNL     1       0.607   9.287  22.496  0.00  0.00    +0.000 C 
ENDBRANCH   7  14
ENDBRANCH   1  11
BRANCH   4  15
ATOM     15  C   UNL     1       3.788   2.370  18.625  0.00  0.00    +0.000 C 
BRANCH  15  16
ATOM     16  N   UNL     1       4.248   0.971  18.546  0.00  0.00    +0.000 NA
ATOM     17  H   UNL     1       4.582   0.664  19.459  0.00  0.00    +0.000 HD
ATOM     18  H   UNL     1       5.048   0.904  17.919  0.00  0.00    +0.000 HD
ENDBRANCH  15  16
BRANCH  15  19
ATOM     19  C   UNL     1       4.898   3.241  19.279  0.00  0.00    +0.000 C 
BRANCH  19  20
ATOM     20  C   UNL     1       5.546   4.306  18.408  0.00  0.00    +0.000 A 
ATOM     21  C   UNL     1       6.621   5.071  18.891  0.00  0.00    +0.000 A 
ATOM     22  C   UNL     1       7.098   6.158  18.157  0.00  0.00    +0.000 A 
ATOM     23  F   UNL     1       8.092   6.906  18.657  0.00  0.00    +0.000 F 
ATOM     24  C   UNL     1       6.542   6.502  16.931  0.00  0.00    +0.000 A 
ATOM     25  C   UNL     1       5.504   5.727  16.418  0.00  0.00    +0.000 A 
ATOM     26  C   UNL     1       5.016   4.644  17.155  0.00  0.00    +0.000 A 
ATOM     27  F   UNL     1       3.985   3.948  16.656  0.00  0.00    +0.000 F 
ENDBRANCH  19  20
ENDBRANCH  15  19
ENDBRANCH   4  15
TORSDOF 6
ENDMDL
