MODEL 1
REMARK VINA RESULT:      -7.9      0.000      0.000
REMARK  Name = 
REMARK  9 active torsions:
REMARK  status: ('A' for Active; 'I' for Inactive)
REMARK    1  A    between atoms: C_1  and  O_2
REMARK    2  A    between atoms: O_2  and  C_3
REMARK    3  A    between atoms: C_9  and  C_10
REMARK    4  A    between atoms: C_10  and  C_11
REMARK    5  A    between atoms: C_11  and  C_12
REMARK    6  A    between atoms: C_12  and  C_13
REMARK    7  A    between atoms: C_21  and  C_22
REMARK    8  A    between atoms: N_23  and  C_24
REMARK    9  A    between atoms: C_24  and  C_25
REMARK                            x       y       z     vdW  Elec       q    Type
REMARK                         _______ _______ _______ _____ _____    ______ ____
ROOT
ATOM      1  C   UNL     1       2.011   2.950  18.009  0.00  0.00    +0.000 A 
ATOM      2  C   UNL     1       3.115   2.151  17.707  0.00  0.00    +0.000 A 
ATOM      3  C   UNL     1       4.337   2.719  17.351  0.00  0.00    +0.000 A 
ATOM      4  C   UNL     1       4.439   4.120  17.299  0.00  0.00    +0.000 A 
ATOM      5  C   UNL     1       3.364   4.944  17.634  0.00  0.00    +0.000 A 
ATOM      6  C   UNL     1       2.131   4.343  17.967  0.00  0.00    +0.000 A 
ATOM      7  C   UNL     1       3.821   6.302  17.576  0.00  0.00    +0.000 A 
ATOM      8  C   UNL     1       5.148   6.273  17.158  0.00  0.00    +0.000 A 
ATOM      9  C   UNL     1       6.129   7.375  16.944  0.00  0.00    +0.000 C 
ATOM     10  N   UNL     1       5.490   4.946  16.950  0.00  0.00    +0.000 N 
ENDROOT
BRANCH   1  12
ATOM     11  C   UNL     1       0.315   2.776  19.644  0.00  0.00    +0.000 C 
ATOM     12  O   UNL     1       0.764   2.484  18.324  0.00  0.00    +0.000 OA
ENDBRANCH   1  12
BRANCH   7  13
ATOM     13  C   UNL     1       2.996   7.491  17.972  0.00  0.00    +0.000 C 
BRANCH  13  14
ATOM     14  C   UNL     1       2.595   7.548  19.441  0.00  0.00    +0.000 C 
BRANCH  14  15
ATOM     15  C   UNL     1       1.138   7.937  19.703  0.00  0.00    +0.000 C 
BRANCH  15  16
ATOM     16  C   UNL     1       1.017   9.451  19.765  0.00  0.00    +0.000 C 
ATOM     17  O   UNL     1       0.844  10.116  18.741  0.00  0.00    +0.000 OA
ATOM     18  N   UNL     1       1.073  10.050  21.006  0.00  0.00    +0.000 N 
ATOM     19  C   UNL     1       1.250   9.378  22.294  0.00  0.00    +0.000 C 
ATOM     20  C   UNL     1      -0.036   9.490  23.124  0.00  0.00    +0.000 C 
ATOM     21  O   UNL     1      -0.450  10.861  23.260  0.00  0.00    +0.000 OA
ATOM     22  C   UNL     1      -0.662  11.471  21.974  0.00  0.00    +0.000 C 
ATOM     23  C   UNL     1       0.621  11.439  21.136  0.00  0.00    +0.000 C 
ENDBRANCH  15  16
ENDBRANCH  14  15
ENDBRANCH  13  14
ENDBRANCH   7  13
BRANCH  10  24
ATOM     24  C   UNL     1       6.757   4.475  16.377  0.00  0.00    +0.000 C 
BRANCH  24  25
ATOM     25  C   UNL     1       6.751   4.418  14.868  0.00  0.00    +0.000 A 
ATOM     26  C   UNL     1       5.881   3.581  14.153  0.00  0.00    +0.000 A 
ATOM     27  C   UNL     1       5.948   3.507  12.761  0.00  0.00    +0.000 A 
ATOM     28  C   UNL     1       6.863   4.289  12.063  0.00  0.00    +0.000 A 
ATOM     29  C   UNL     1       7.692   5.170  12.752  0.00  0.00    +0.000 A 
ATOM     30  C   UNL     1       7.630   5.241  14.145  0.00  0.00    +0.000 A 
ENDBRANCH  24  25
ENDBRANCH  10  24
TORSDOF 7
ENDMDL
MODEL 2
REMARK VINA RESULT:      -7.7      1.680      1.888
REMARK  Name = 
REMARK  9 active torsions:
REMARK  status: ('A' for Active; 'I' for Inactive)
REMARK    1  A    between atoms: C_1  and  O_2
REMARK    2  A    between atoms: O_2  and  C_3
REMARK    3  A    between atoms: C_9  and  C_10
REMARK    4  A    between atoms: C_10  and  C_11
REMARK    5  A    between atoms: C_11  and  C_12
REMARK    6  A    between atoms: C_12  and  C_13
REMARK    7  A    between atoms: C_21  and  C_22
REMARK    8  A    between atoms: N_23  and  C_24
REMARK    9  A    between atoms: C_24  and  C_25
REMARK                            x       y       z     vdW  Elec       q    Type
REMARK                         _______ _______ _______ _____ _____    ______ ____
ROOT
ATOM      1  C   UNL     1       2.246   2.931  18.229  0.00  0.00    +0.000 A 
ATOM      2  C   UNL     1       3.316   2.130  17.828  0.00  0.00    +0.000 A 
ATOM      3  C   UNL     1       4.534   2.694  17.453  0.00  0.00    +0.000 A 
ATOM      4  C   UNL     1       4.666   4.093  17.482  0.00  0.00    +0.000 A 
ATOM      5  C   UNL     1       3.627   4.917  17.916  0.00  0.00    +0.000 A 
ATOM      6  C   UNL     1       2.396   4.321  18.267  0.00  0.00    +0.000 A 
ATOM      7  C   UNL     1       4.112   6.266  17.921  0.00  0.00    +0.000 A 
ATOM      8  C   UNL     1       5.418   6.236  17.442  0.00  0.00    +0.000 A 
ATOM      9  C   UNL     1       6.414   7.328  17.252  0.00  0.00    +0.000 C 
ATOM     10  N   UNL     1       5.720   4.917  17.138  0.00  0.00    +0.000 N 
ENDROOT
BRANCH   1  12
ATOM     11  C   UNL     1       0.486   2.962  19.806  0.00  0.00    +0.000 C 
ATOM     12  O   UNL     1       1.003   2.472  18.571  0.00  0.00    +0.000 OA
ENDBRANCH   1  12
BRANCH   7  13
ATOM     13  C   UNL     1       3.333   7.445  18.426  0.00  0.00    +0.000 C 
BRANCH  13  14
ATOM     14  C   UNL     1       2.525   8.193  17.373  0.00  0.00    +0.000 C 
BRANCH  14  15
ATOM     15  C   UNL     1       1.245   8.858  17.885  0.00  0.00    +0.000 C 
BRANCH  15  16
ATOM     16  C   UNL     1       1.535  10.303  18.259  0.00  0.00    +0.000 C 
ATOM     17  O   UNL     1       2.573  10.857  17.891  0.00  0.00    +0.000 OA
ATOM     18  N   UNL     1       0.583  10.980  18.993  0.00  0.00    +0.000 N 
ATOM     19  C   UNL     1      -0.694  10.449  19.470  0.00  0.00    +0.000 C 
ATOM     20  C   UNL     1      -1.853  11.133  18.732  0.00  0.00    +0.000 C 
ATOM     21  O   UNL     1      -1.767  12.564  18.840  0.00  0.00    +0.000 OA
ATOM     22  C   UNL     1      -0.518  13.052  18.315  0.00  0.00    +0.000 C 
ATOM     23  C   UNL     1       0.667  12.441  19.071  0.00  0.00    +0.000 C 
ENDBRANCH  15  16
ENDBRANCH  14  15
ENDBRANCH  13  14
ENDBRANCH   7  13
BRANCH  10  24
ATOM     24  C   UNL     1       6.949   4.458  16.479  0.00  0.00    +0.000 C 
BRANCH  24  25
ATOM     25  C   UNL     1       6.847   4.417  14.973  0.00  0.00    +0.000 A 
ATOM     26  C   UNL     1       5.905   3.619  14.307  0.00  0.00    +0.000 A 
ATOM     27  C   UNL     1       5.882   3.558  12.913  0.00  0.00    +0.000 A 
ATOM     28  C   UNL     1       6.779   4.315  12.166  0.00  0.00    +0.000 A 
ATOM     29  C   UNL     1       7.679   5.160  12.809  0.00  0.00    +0.000 A 
ATOM     30  C   UNL     1       7.708   5.218  14.204  0.00  0.00    +0.000 A 
ENDBRANCH  24  25
ENDBRANCH  10  24
TORSDOF 7
ENDMDL
MODEL 3
REMARK VINA RESULT:      -7.5      1.093      1.414
REMARK  Name = 
REMARK  9 active torsions:
REMARK  status: ('A' for Active; 'I' for Inactive)
REMARK    1  A    between atoms: C_1  and  O_2
REMARK    2  A    between atoms: O_2  and  C_3
REMARK    3  A    between atoms: C_9  and  C_10
REMARK    4  A    between atoms: C_10  and  C_11
REMARK    5  A    between atoms: C_11  and  C_12
REMARK    6  A    between atoms: C_12  and  C_13
REMARK    7  A    between atoms: C_21  and  C_22
REMARK    8  A    between atoms: N_23  and  C_24
REMARK    9  A    between atoms: C_24  and  C_25
REMARK                            x       y       z     vdW  Elec       q    Type
REMARK                         _______ _______ _______ _____ _____    ______ ____
ROOT
ATOM      1  C   UNL     1       1.902   3.561  17.977  0.00  0.00    +0.000 A 
ATOM      2  C   UNL     1       2.927   2.648  17.725  0.00  0.00    +0.000 A 
ATOM      3  C   UNL     1       4.200   3.081  17.354  0.00  0.00    +0.000 A 
ATOM      4  C   UNL     1       4.433   4.461  17.234  0.00  0.00    +0.000 A 
ATOM      5  C   UNL     1       3.439   5.399  17.518  0.00  0.00    +0.000 A 
ATOM      6  C   UNL     1       2.153   4.933  17.868  0.00  0.00    +0.000 A 
ATOM      7  C   UNL     1       4.022   6.703  17.399  0.00  0.00    +0.000 A 
ATOM      8  C   UNL     1       5.342   6.529  16.995  0.00  0.00    +0.000 A 
ATOM      9  C   UNL     1       6.424   7.522  16.738  0.00  0.00    +0.000 C 
ATOM     10  N   UNL     1       5.559   5.167  16.856  0.00  0.00    +0.000 N 
ENDROOT
BRANCH   1  12
ATOM     11  C   UNL     1       0.469   2.116  19.178  0.00  0.00    +0.000 C 
ATOM     12  O   UNL     1       0.615   3.231  18.302  0.00  0.00    +0.000 OA
ENDBRANCH   1  12
BRANCH   7  13
ATOM     13  C   UNL     1       3.310   7.983  17.728  0.00  0.00    +0.000 C 
BRANCH  13  14
ATOM     14  C   UNL     1       2.317   7.899  18.880  0.00  0.00    +0.000 C 
BRANCH  14  15
ATOM     15  C   UNL     1       1.454   9.146  19.087  0.00  0.00    +0.000 C 
BRANCH  15  16
ATOM     16  C   UNL     1       0.928   9.173  20.513  0.00  0.00    +0.000 C 
ATOM     17  O   UNL     1       1.549   8.628  21.428  0.00  0.00    +0.000 OA
ATOM     18  N   UNL     1      -0.246   9.856  20.753  0.00  0.00    +0.000 N 
ATOM     19  C   UNL     1      -1.063  10.562  19.765  0.00  0.00    +0.000 C 
ATOM     20  C   UNL     1      -1.005  12.074  20.023  0.00  0.00    +0.000 C 
ATOM     21  O   UNL     1      -1.370  12.386  21.379  0.00  0.00    +0.000 OA
ATOM     22  C   UNL     1      -0.512  11.712  22.317  0.00  0.00    +0.000 C 
ATOM     23  C   UNL     1      -0.592  10.192  22.137  0.00  0.00    +0.000 C 
ENDBRANCH  15  16
ENDBRANCH  14  15
ENDBRANCH  13  14
ENDBRANCH   7  13
BRANCH  10  24
ATOM     24  C   UNL     1       6.779   4.552  16.319  0.00  0.00    +0.000 C 
BRANCH  24  25
ATOM     25  C   UNL     1       6.794   4.461  14.811  0.00  0.00    +0.000 A 
ATOM     26  C   UNL     1       5.935   3.608  14.103  0.00  0.00    +0.000 A 
ATOM     27  C   UNL     1       6.022   3.502  12.715  0.00  0.00    +0.000 A 
ATOM     28  C   UNL     1       6.946   4.269  12.012  0.00  0.00    +0.000 A 
ATOM     29  C   UNL     1       7.765   5.166  12.693  0.00  0.00    +0.000 A 
ATOM     30  C   UNL     1       7.684   5.268  14.084  0.00  0.00    +0.000 A 
ENDBRANCH  24  25
ENDBRANCH  10  24
TORSDOF 7
ENDMDL
MODEL 4
REMARK VINA RESULT:      -7.5      4.310      7.398
REMARK  Name = 
REMARK  9 active torsions:
REMARK  status: ('A' for Active; 'I' for Inactive)
REMARK    1  A    between atoms: C_1  and  O_2
REMARK    2  A    between atoms: O_2  and  C_3
REMARK    3  A    between atoms: C_9  and  C_10
REMARK    4  A    between atoms: C_10  and  C_11
REMARK    5  A    between atoms: C_11  and  C_12
REMARK    6  A    between atoms: C_12  and  C_13
REMARK    7  A    between atoms: C_21  and  C_22
REMARK    8  A    between atoms: N_23  and  C_24
REMARK    9  A    between atoms: C_24  and  C_25
REMARK                            x       y       z     vdW  Elec       q    Type
REMARK                         _______ _______ _______ _____ _____    ______ ____
ROOT
ATOM      1  C   UNL     1      -0.672  10.266  22.652  0.00  0.00    +0.000 A 
ATOM      2  C   UNL     1       0.332   9.430  23.142  0.00  0.00    +0.000 A 
ATOM      3  C   UNL     1       1.195   8.760  22.277  0.00  0.00    +0.000 A 
ATOM      4  C   UNL     1       1.034   8.941  20.893  0.00  0.00    +0.000 A 
ATOM      5  C   UNL     1       0.066   9.801  20.374  0.00  0.00    +0.000 A 
ATOM      6  C   UNL     1      -0.811  10.448  21.272  0.00  0.00    +0.000 A 
ATOM      7  C   UNL     1       0.229   9.837  18.950  0.00  0.00    +0.000 A 
ATOM      8  C   UNL     1       1.260   8.958  18.633  0.00  0.00    +0.000 A 
ATOM      9  C   UNL     1       1.876   8.608  17.321  0.00  0.00    +0.000 C 
ATOM     10  N   UNL     1       1.704   8.390  19.817  0.00  0.00    +0.000 N 
ENDROOT
BRANCH   1  12
ATOM     11  C   UNL     1      -1.739  12.317  23.140  0.00  0.00    +0.000 C 
ATOM     12  O   UNL     1      -1.592  10.928  23.420  0.00  0.00    +0.000 OA
ENDBRANCH   1  12
BRANCH   7  13
ATOM     13  C   UNL     1      -0.551  10.729  18.030  0.00  0.00    +0.000 C 
BRANCH  13  14
ATOM     14  C   UNL     1      -2.015  10.352  17.843  0.00  0.00    +0.000 C 
BRANCH  14  15
ATOM     15  C   UNL     1      -2.961  11.528  17.583  0.00  0.00    +0.000 C 
BRANCH  15  16
ATOM     16  C   UNL     1      -3.612  11.956  18.888  0.00  0.00    +0.000 C 
ATOM     17  O   UNL     1      -2.955  12.507  19.774  0.00  0.00    +0.000 OA
ATOM     18  N   UNL     1      -4.967  11.739  19.032  0.00  0.00    +0.000 N 
ATOM     19  C   UNL     1      -5.862  11.121  18.053  0.00  0.00    +0.000 C 
ATOM     20  C   UNL     1      -6.844  12.166  17.509  0.00  0.00    +0.000 C 
ATOM     21  O   UNL     1      -7.550  12.824  18.575  0.00  0.00    +0.000 OA
ATOM     22  C   UNL     1      -6.637  13.462  19.487  0.00  0.00    +0.000 C 
ATOM     23  C   UNL     1      -5.679  12.438  20.106  0.00  0.00    +0.000 C 
ENDBRANCH  15  16
ENDBRANCH  14  15
ENDBRANCH  13  14
ENDBRANCH   7  13
BRANCH  10  24
ATOM     24  C   UNL     1       2.691   7.309  19.922  0.00  0.00    +0.000 C 
BRANCH  24  25
ATOM     25  C   UNL     1       2.107   5.935  19.697  0.00  0.00    +0.000 A 
ATOM     26  C   UNL     1       1.489   5.205  20.723  0.00  0.00    +0.000 A 
ATOM     27  C   UNL     1       1.018   3.912  20.493  0.00  0.00    +0.000 A 
ATOM     28  C   UNL     1       1.129   3.342  19.229  0.00  0.00    +0.000 A 
ATOM     29  C   UNL     1       1.683   4.075  18.183  0.00  0.00    +0.000 A 
ATOM     30  C   UNL     1       2.162   5.367  18.413  0.00  0.00    +0.000 A 
ENDBRANCH  24  25
ENDBRANCH  10  24
TORSDOF 7
ENDMDL
MODEL 5
REMARK VINA RESULT:      -7.4      1.315      1.514
REMARK  Name = 
REMARK  9 active torsions:
REMARK  status: ('A' for Active; 'I' for Inactive)
REMARK    1  A    between atoms: C_1  and  O_2
REMARK    2  A    between atoms: O_2  and  C_3
REMARK    3  A    between atoms: C_9  and  C_10
REMARK    4  A    between atoms: C_10  and  C_11
REMARK    5  A    between atoms: C_11  and  C_12
REMARK    6  A    between atoms: C_12  and  C_13
REMARK    7  A    between atoms: C_21  and  C_22
REMARK    8  A    between atoms: N_23  and  C_24
REMARK    9  A    between atoms: C_24  and  C_25
REMARK                            x       y       z     vdW  Elec       q    Type
REMARK                         _______ _______ _______ _____ _____    ______ ____
ROOT
ATOM      1  C   UNL     1       2.005   3.710  17.897  0.00  0.00    +0.000 A 
ATOM      2  C   UNL     1       2.986   2.770  17.578  0.00  0.00    +0.000 A 
ATOM      3  C   UNL     1       4.279   3.167  17.242  0.00  0.00    +0.000 A 
ATOM      4  C   UNL     1       4.580   4.539  17.227  0.00  0.00    +0.000 A 
ATOM      5  C   UNL     1       3.631   5.500  17.580  0.00  0.00    +0.000 A 
ATOM      6  C   UNL     1       2.323   5.072  17.892  0.00  0.00    +0.000 A 
ATOM      7  C   UNL     1       4.278   6.780  17.560  0.00  0.00    +0.000 A 
ATOM      8  C   UNL     1       5.590   6.572  17.146  0.00  0.00    +0.000 A 
ATOM      9  C   UNL     1       6.720   7.527  16.966  0.00  0.00    +0.000 C 
ATOM     10  N   UNL     1       5.741   5.215  16.905  0.00  0.00    +0.000 N 
ENDROOT
BRANCH   1  12
ATOM     11  C   UNL     1       0.492   2.210  18.918  0.00  0.00    +0.000 C 
ATOM     12  O   UNL     1       0.701   3.420  18.194  0.00  0.00    +0.000 OA
ENDBRANCH   1  12
BRANCH   7  13
ATOM     13  C   UNL     1       3.627   8.064  17.984  0.00  0.00    +0.000 C 
BRANCH  13  14
ATOM     14  C   UNL     1       2.108   8.093  17.876  0.00  0.00    +0.000 C 
BRANCH  14  15
ATOM     15  C   UNL     1       1.393   8.885  18.974  0.00  0.00    +0.000 C 
BRANCH  15  16
ATOM     16  C   UNL     1       0.413   9.862  18.342  0.00  0.00    +0.000 C 
ATOM     17  O   UNL     1      -0.321   9.513  17.416  0.00  0.00    +0.000 OA
ATOM     18  N   UNL     1       0.351  11.137  18.864  0.00  0.00    +0.000 N 
ATOM     19  C   UNL     1       1.146  11.668  19.972  0.00  0.00    +0.000 C 
ATOM     20  C   UNL     1       0.243  11.932  21.184  0.00  0.00    +0.000 C 
ATOM     21  O   UNL     1      -0.865  12.780  20.834  0.00  0.00    +0.000 OA
ATOM     22  C   UNL     1      -1.650  12.199  19.776  0.00  0.00    +0.000 C 
ATOM     23  C   UNL     1      -0.798  11.980  18.521  0.00  0.00    +0.000 C 
ENDBRANCH  15  16
ENDBRANCH  14  15
ENDBRANCH  13  14
ENDBRANCH   7  13
BRANCH  10  24
ATOM     24  C   UNL     1       6.932   4.584  16.324  0.00  0.00    +0.000 C 
BRANCH  24  25
ATOM     25  C   UNL     1       6.898   4.506  14.816  0.00  0.00    +0.000 A 
ATOM     26  C   UNL     1       6.028   3.647  14.129  0.00  0.00    +0.000 A 
ATOM     27  C   UNL     1       6.070   3.555  12.738  0.00  0.00    +0.000 A 
ATOM     28  C   UNL     1       6.960   4.341  12.012  0.00  0.00    +0.000 A 
ATOM     29  C   UNL     1       7.787   5.244  12.673  0.00  0.00    +0.000 A 
ATOM     30  C   UNL     1       7.751   5.333  14.067  0.00  0.00    +0.000 A 
ENDBRANCH  24  25
ENDBRANCH  10  24
TORSDOF 7
ENDMDL
MODEL 6
REMARK VINA RESULT:      -7.3      0.974      1.643
REMARK  Name = 
REMARK  9 active torsions:
REMARK  status: ('A' for Active; 'I' for Inactive)
REMARK    1  A    between atoms: C_1  and  O_2
REMARK    2  A    between atoms: O_2  and  C_3
REMARK    3  A    between atoms: C_9  and  C_10
REMARK    4  A    between atoms: C_10  and  C_11
REMARK    5  A    between atoms: C_11  and  C_12
REMARK    6  A    between atoms: C_12  and  C_13
REMARK    7  A    between atoms: C_21  and  C_22
REMARK    8  A    between atoms: N_23  and  C_24
REMARK    9  A    between atoms: C_24  and  C_25
REMARK                            x       y       z     vdW  Elec       q    Type
REMARK                         _______ _______ _______ _____ _____    ______ ____
ROOT
ATOM      1  C   UNL     1       2.070   2.798  18.270  0.00  0.00    +0.000 A 
ATOM      2  C   UNL     1       3.208   2.044  17.982  0.00  0.00    +0.000 A 
ATOM      3  C   UNL     1       4.393   2.658  17.579  0.00  0.00    +0.000 A 
ATOM      4  C   UNL     1       4.421   4.058  17.464  0.00  0.00    +0.000 A 
ATOM      5  C   UNL     1       3.310   4.840  17.783  0.00  0.00    +0.000 A 
ATOM      6  C   UNL     1       2.116   4.192  18.165  0.00  0.00    +0.000 A 
ATOM      7  C   UNL     1       3.695   6.216  17.658  0.00  0.00    +0.000 A 
ATOM      8  C   UNL     1       5.014   6.236  17.216  0.00  0.00    +0.000 A 
ATOM      9  C   UNL     1       5.933   7.376  16.936  0.00  0.00    +0.000 C 
ATOM     10  N   UNL     1       5.422   4.921  17.060  0.00  0.00    +0.000 N 
ENDROOT
BRANCH   1  12
ATOM     11  C   UNL     1       0.325   2.760  19.863  0.00  0.00    +0.000 C 
ATOM     12  O   UNL     1       0.854   2.283  18.628  0.00  0.00    +0.000 OA
ENDBRANCH   1  12
BRANCH   7  13
ATOM     13  C   UNL     1       2.815   7.378  18.016  0.00  0.00    +0.000 C 
BRANCH  13  14
ATOM     14  C   UNL     1       2.713   7.683  19.506  0.00  0.00    +0.000 C 
BRANCH  14  15
ATOM     15  C   UNL     1       1.305   7.572  20.097  0.00  0.00    +0.000 C 
BRANCH  15  16
ATOM     16  C   UNL     1       1.062   8.728  21.055  0.00  0.00    +0.000 C 
ATOM     17  O   UNL     1       1.466   8.683  22.219  0.00  0.00    +0.000 OA
ATOM     18  N   UNL     1       0.406   9.840  20.568  0.00  0.00    +0.000 N 
ATOM     19  C   UNL     1      -0.101  10.029  19.209  0.00  0.00    +0.000 C 
ATOM     20  C   UNL     1       0.711  11.118  18.495  0.00  0.00    +0.000 C 
ATOM     21  O   UNL     1       0.734  12.337  19.259  0.00  0.00    +0.000 OA
ATOM     22  C   UNL     1       1.285  12.118  20.571  0.00  0.00    +0.000 C 
ATOM     23  C   UNL     1       0.461  11.082  21.344  0.00  0.00    +0.000 C 
ENDBRANCH  15  16
ENDBRANCH  14  15
ENDBRANCH  13  14
ENDBRANCH   7  13
BRANCH  10  24
ATOM     24  C   UNL     1       6.702   4.491  16.484  0.00  0.00    +0.000 C 
BRANCH  24  25
ATOM     25  C   UNL     1       6.690   4.422  14.975  0.00  0.00    +0.000 A 
ATOM     26  C   UNL     1       5.763   3.643  14.267  0.00  0.00    +0.000 A 
ATOM     27  C   UNL     1       5.823   3.552  12.876  0.00  0.00    +0.000 A 
ATOM     28  C   UNL     1       6.791   4.261  12.171  0.00  0.00    +0.000 A 
ATOM     29  C   UNL     1       7.680   5.088  12.853  0.00  0.00    +0.000 A 
ATOM     30  C   UNL     1       7.626   5.174  14.246  0.00  0.00    +0.000 A 
ENDBRANCH  24  25
ENDBRANCH  10  24
TORSDOF 7
ENDMDL
MODEL 7
REMARK VINA RESULT:      -7.1      4.894      8.562
REMARK  Name = 
REMARK  9 active torsions:
REMARK  status: ('A' for Active; 'I' for Inactive)
REMARK    1  A    between atoms: C_1  and  O_2
REMARK    2  A    between atoms: O_2  and  C_3
REMARK    3  A    between atoms: C_9  and  C_10
REMARK    4  A    between atoms: C_10  and  C_11
REMARK    5  A    between atoms: C_11  and  C_12
REMARK    6  A    between atoms: C_12  and  C_13
REMARK    7  A    between atoms: C_21  and  C_22
REMARK    8  A    between atoms: N_23  and  C_24
REMARK    9  A    between atoms: C_24  and  C_25
REMARK                            x       y       z     vdW  Elec       q    Type
REMARK                         _______ _______ _______ _____ _____    ______ ____
ROOT
ATOM      1  C   UNL     1      -3.833  10.803  17.561  0.00  0.00    +0.000 A 
ATOM      2  C   UNL     1      -2.892  10.026  16.884  0.00  0.00    +0.000 A 
ATOM      3  C   UNL     1      -1.551  10.027  17.265  0.00  0.00    +0.000 A 
ATOM      4  C   UNL     1      -1.160  10.831  18.349  0.00  0.00    +0.000 A 
ATOM      5  C   UNL     1      -2.084  11.587  19.070  0.00  0.00    +0.000 A 
ATOM      6  C   UNL     1      -3.431  11.587  18.647  0.00  0.00    +0.000 A 
ATOM      7  C   UNL     1      -1.388  12.205  20.160  0.00  0.00    +0.000 A 
ATOM      8  C   UNL     1      -0.047  11.851  20.046  0.00  0.00    +0.000 A 
ATOM      9  C   UNL     1       1.127  12.180  20.904  0.00  0.00    +0.000 C 
ATOM     10  N   UNL     1       0.079  11.056  18.917  0.00  0.00    +0.000 N 
ENDROOT
BRANCH   1  12
ATOM     11  C   UNL     1      -6.050  11.078  18.329  0.00  0.00    +0.000 C 
ATOM     12  O   UNL     1      -5.157  10.901  17.233  0.00  0.00    +0.000 OA
ENDBRANCH   1  12
BRANCH   7  13
ATOM     13  C   UNL     1      -2.047  13.018  21.235  0.00  0.00    +0.000 C 
BRANCH  13  14
ATOM     14  C   UNL     1      -2.370  12.263  22.519  0.00  0.00    +0.000 C 
BRANCH  14  15
ATOM     15  C   UNL     1      -3.333  12.979  23.469  0.00  0.00    +0.000 C 
BRANCH  15  16
ATOM     16  C   UNL     1      -4.671  13.189  22.778  0.00  0.00    +0.000 C 
ATOM     17  O   UNL     1      -5.340  12.230  22.386  0.00  0.00    +0.000 OA
ATOM     18  N   UNL     1      -5.125  14.484  22.636  0.00  0.00    +0.000 N 
ATOM     19  C   UNL     1      -4.444  15.702  23.076  0.00  0.00    +0.000 C 
ATOM     20  C   UNL     1      -5.221  16.348  24.230  0.00  0.00    +0.000 C 
ATOM     21  O   UNL     1      -6.595  16.573  23.871  0.00  0.00    +0.000 OA
ATOM     22  C   UNL     1      -7.243  15.345  23.494  0.00  0.00    +0.000 C 
ATOM     23  C   UNL     1      -6.535  14.699  22.297  0.00  0.00    +0.000 C 
ENDBRANCH  15  16
ENDBRANCH  14  15
ENDBRANCH  13  14
ENDBRANCH   7  13
BRANCH  10  24
ATOM     24  C   UNL     1       1.347  10.576  18.354  0.00  0.00    +0.000 C 
BRANCH  24  25
ATOM     25  C   UNL     1       1.691   9.163  18.764  0.00  0.00    +0.000 A 
ATOM     26  C   UNL     1       1.408   8.664  20.044  0.00  0.00    +0.000 A 
ATOM     27  C   UNL     1       1.798   7.375  20.408  0.00  0.00    +0.000 A 
ATOM     28  C   UNL     1       2.448   6.556  19.490  0.00  0.00    +0.000 A 
ATOM     29  C   UNL     1       2.682   7.013  18.196  0.00  0.00    +0.000 A 
ATOM     30  C   UNL     1       2.298   8.306  17.831  0.00  0.00    +0.000 A 
ENDBRANCH  24  25
ENDBRANCH  10  24
TORSDOF 7
ENDMDL
MODEL 8
REMARK VINA RESULT:      -7.0      3.422     10.062
REMARK  Name = 
REMARK  9 active torsions:
REMARK  status: ('A' for Active; 'I' for Inactive)
REMARK    1  A    between atoms: C_1  and  O_2
REMARK    2  A    between atoms: O_2  and  C_3
REMARK    3  A    between atoms: C_9  and  C_10
REMARK    4  A    between atoms: C_10  and  C_11
REMARK    5  A    between atoms: C_11  and  C_12
REMARK    6  A    between atoms: C_12  and  C_13
REMARK    7  A    between atoms: C_21  and  C_22
REMARK    8  A    between atoms: N_23  and  C_24
REMARK    9  A    between atoms: C_24  and  C_25
REMARK                            x       y       z     vdW  Elec       q    Type
REMARK                         _______ _______ _______ _____ _____    ______ ____
ROOT
ATOM      1  C   UNL     1      -2.738  10.227  16.655  0.00  0.00    +0.000 A 
ATOM      2  C   UNL     1      -3.314  11.392  17.162  0.00  0.00    +0.000 A 
ATOM      3  C   UNL     1      -2.658  12.157  18.127  0.00  0.00    +0.000 A 
ATOM      4  C   UNL     1      -1.401  11.729  18.584  0.00  0.00    +0.000 A 
ATOM      5  C   UNL     1      -0.783  10.589  18.067  0.00  0.00    +0.000 A 
ATOM      6  C   UNL     1      -1.479   9.821  17.110  0.00  0.00    +0.000 A 
ATOM      7  C   UNL     1       0.517  10.488  18.665  0.00  0.00    +0.000 A 
ATOM      8  C   UNL     1       0.637  11.539  19.569  0.00  0.00    +0.000 A 
ATOM      9  C   UNL     1       1.769  11.944  20.451  0.00  0.00    +0.000 C 
ATOM     10  N   UNL     1      -0.551  12.252  19.540  0.00  0.00    +0.000 N 
ENDROOT
BRANCH   1  12
ATOM     11  C   UNL     1      -3.589   9.965  14.467  0.00  0.00    +0.000 C 
ATOM     12  O   UNL     1      -3.323   9.391  15.743  0.00  0.00    +0.000 OA
ENDBRANCH   1  12
BRANCH   7  13
ATOM     13  C   UNL     1       1.542   9.457  18.294  0.00  0.00    +0.000 C 
BRANCH  13  14
ATOM     14  C   UNL     1       1.732   8.333  19.306  0.00  0.00    +0.000 C 
BRANCH  14  15
ATOM     15  C   UNL     1       2.543   7.136  18.804  0.00  0.00    +0.000 C 
BRANCH  15  16
ATOM     16  C   UNL     1       2.316   5.945  19.722  0.00  0.00    +0.000 C 
ATOM     17  O   UNL     1       1.680   6.065  20.771  0.00  0.00    +0.000 OA
ATOM     18  N   UNL     1       2.817   4.722  19.324  0.00  0.00    +0.000 N 
ATOM     19  C   UNL     1       3.565   4.441  18.098  0.00  0.00    +0.000 C 
ATOM     20  C   UNL     1       2.723   3.563  17.163  0.00  0.00    +0.000 C 
ATOM     21  O   UNL     1       2.274   2.371  17.830  0.00  0.00    +0.000 OA
ATOM     22  C   UNL     1       1.501   2.691  19.002  0.00  0.00    +0.000 C 
ATOM     23  C   UNL     1       2.329   3.514  19.995  0.00  0.00    +0.000 C 
ENDBRANCH  15  16
ENDBRANCH  14  15
ENDBRANCH  13  14
ENDBRANCH   7  13
BRANCH  10  24
ATOM     24  C   UNL     1      -0.898  13.361  20.437  0.00  0.00    +0.000 C 
BRANCH  24  25
ATOM     25  C   UNL     1      -1.871  12.973  21.526  0.00  0.00    +0.000 A 
ATOM     26  C   UNL     1      -3.157  13.525  21.613  0.00  0.00    +0.000 A 
ATOM     27  C   UNL     1      -4.005  13.191  22.670  0.00  0.00    +0.000 A 
ATOM     28  C   UNL     1      -3.592  12.279  23.636  0.00  0.00    +0.000 A 
ATOM     29  C   UNL     1      -2.342  11.674  23.531  0.00  0.00    +0.000 A 
ATOM     30  C   UNL     1      -1.489  12.013  22.478  0.00  0.00    +0.000 A 
ENDBRANCH  24  25
ENDBRANCH  10  24
TORSDOF 7
ENDMDL
MODEL 9
REMARK VINA RESULT:      -7.0      4.368      7.376
REMARK  Name = 
REMARK  9 active torsions:
REMARK  status: ('A' for Active; 'I' for Inactive)
REMARK    1  A    between atoms: C_1  and  O_2
REMARK    2  A    between atoms: O_2  and  C_3
REMARK    3  A    between atoms: C_9  and  C_10
REMARK    4  A    between atoms: C_10  and  C_11
REMARK    5  A    between atoms: C_11  and  C_12
REMARK    6  A    between atoms: C_12  and  C_13
REMARK    7  A    between atoms: C_21  and  C_22
REMARK    8  A    between atoms: N_23  and  C_24
REMARK    9  A    between atoms: C_24  and  C_25
REMARK                            x       y       z     vdW  Elec       q    Type
REMARK                         _______ _______ _______ _____ _____    ______ ____
ROOT
ATOM      1  C   UNL     1       2.649   8.119  17.804  0.00  0.00    +0.000 A 
ATOM      2  C   UNL     1       2.149   7.093  18.607  0.00  0.00    +0.000 A 
ATOM      3  C   UNL     1       2.967   6.043  19.022  0.00  0.00    +0.000 A 
ATOM      4  C   UNL     1       4.311   6.034  18.613  0.00  0.00    +0.000 A 
ATOM      5  C   UNL     1       4.849   7.066  17.843  0.00  0.00    +0.000 A 
ATOM      6  C   UNL     1       3.993   8.104  17.416  0.00  0.00    +0.000 A 
ATOM      7  C   UNL     1       6.250   6.809  17.685  0.00  0.00    +0.000 A 
ATOM      8  C   UNL     1       6.521   5.600  18.319  0.00  0.00    +0.000 A 
ATOM      9  C   UNL     1       7.800   4.855  18.495  0.00  0.00    +0.000 C 
ATOM     10  N   UNL     1       5.326   5.123  18.835  0.00  0.00    +0.000 N 
ENDROOT
BRANCH   1  12
ATOM     11  C   UNL     1       1.808  10.297  18.170  0.00  0.00    +0.000 C 
ATOM     12  O   UNL     1       1.915   9.164  17.312  0.00  0.00    +0.000 OA
ENDBRANCH   1  12
BRANCH   7  13
ATOM     13  C   UNL     1       7.212   7.742  17.009  0.00  0.00    +0.000 C 
BRANCH  13  14
ATOM     14  C   UNL     1       8.237   8.398  17.926  0.00  0.00    +0.000 C 
BRANCH  14  15
ATOM     15  C   UNL     1       8.335   9.921  17.807  0.00  0.00    +0.000 C 
BRANCH  15  16
ATOM     16  C   UNL     1       9.099  10.479  18.997  0.00  0.00    +0.000 C 
ATOM     17  O   UNL     1       9.243   9.814  20.025  0.00  0.00    +0.000 OA
ATOM     18  N   UNL     1       9.653  11.736  18.875  0.00  0.00    +0.000 N 
ATOM     19  C   UNL     1       9.575  12.614  17.706  0.00  0.00    +0.000 C 
ATOM     20  C   UNL     1      10.963  12.757  17.067  0.00  0.00    +0.000 C 
ATOM     21  O   UNL     1      11.939  13.190  18.030  0.00  0.00    +0.000 OA
ATOM     22  C   UNL     1      12.020  12.274  19.137  0.00  0.00    +0.000 C 
ATOM     23  C   UNL     1      10.667  12.154  19.847  0.00  0.00    +0.000 C 
ENDBRANCH  15  16
ENDBRANCH  14  15
ENDBRANCH  13  14
ENDBRANCH   7  13
BRANCH  10  24
ATOM     24  C   UNL     1       5.137   3.811  19.465  0.00  0.00    +0.000 C 
BRANCH  24  25
ATOM     25  C   UNL     1       3.781   3.202  19.195  0.00  0.00    +0.000 A 
ATOM     26  C   UNL     1       2.812   3.055  20.198  0.00  0.00    +0.000 A 
ATOM     27  C   UNL     1       1.595   2.430  19.927  0.00  0.00    +0.000 A 
ATOM     28  C   UNL     1       1.317   1.970  18.643  0.00  0.00    +0.000 A 
ATOM     29  C   UNL     1       2.242   2.162  17.621  0.00  0.00    +0.000 A 
ATOM     30  C   UNL     1       3.464   2.782  17.893  0.00  0.00    +0.000 A 
ENDBRANCH  24  25
ENDBRANCH  10  24
TORSDOF 7
ENDMDL
