MODEL 1
REMARK VINA RESULT:      -9.1      0.000      0.000
REMARK  Name = 
REMARK  5 active torsions:
REMARK  status: ('A' for Active; 'I' for Inactive)
REMARK    1  A    between atoms: C_9  and  S_10
REMARK    2  A    between atoms: S_10  and  C_11
REMARK    3  A    between atoms: C_11  and  C_12
REMARK    4  A    between atoms: N_23  and  C_24
REMARK    5  A    between atoms: C_24  and  C_25
REMARK                            x       y       z     vdW  Elec       q    Type
REMARK                         _______ _______ _______ _____ _____    ______ ____
ROOT
ATOM      1  O   UNL     1       3.572   3.010  17.094  0.00  0.00    +0.000 OA
ATOM      2  C   UNL     1       3.188   3.901  17.853  0.00  0.00    +0.000 A 
ATOM      3  C   UNL     1       2.375   3.670  19.004  0.00  0.00    +0.000 A 
ATOM      4  S   UNL     1       1.953   2.120  19.562  0.00  0.00    +0.000 S 
ATOM      5  C   UNL     1       1.214   2.789  20.963  0.00  0.00    +0.000 A 
ATOM      6  C   UNL     1       1.295   4.175  20.968  0.00  0.00    +0.000 A 
ATOM      7  C   UNL     1       1.902   4.684  19.783  0.00  0.00    +0.000 A 
ATOM      8  N   UNL     1       2.056   6.046  19.409  0.00  0.00    +0.000 NA
ATOM      9  C   UNL     1       2.837   6.277  18.386  0.00  0.00    +0.000 A 
ATOM     10  N   UNL     1       3.521   5.261  17.668  0.00  0.00    +0.000 N 
ENDROOT
BRANCH   9  11
ATOM     11  S   UNL     1       3.191   7.984  17.920  0.00  0.00    +0.000 S 
BRANCH  11  12
ATOM     12  C   UNL     1       1.570   8.801  17.575  0.00  0.00    +0.000 C 
BRANCH  12  13
ATOM     13  C   UNL     1       0.905   9.673  18.716  0.00  0.00    +0.000 A 
ATOM     14  C   UNL     1       0.134  10.756  18.494  0.00  0.00    +0.000 A 
ATOM     15  C   UNL     1      -0.095  11.683  19.629  0.00  0.00    +0.000 A 
ATOM     16  O   UNL     1      -0.161  12.895  19.438  0.00  0.00    +0.000 OA
ATOM     17  N   UNL     1      -0.257  11.039  20.830  0.00  0.00    +0.000 N 
ATOM     18  C   UNL     1      -0.875  11.698  21.890  0.00  0.00    +0.000 A 
ATOM     19  C   UNL     1      -1.083  11.108  23.062  0.00  0.00    +0.000 A 
ATOM     20  C   UNL     1      -0.595   9.761  23.267  0.00  0.00    +0.000 A 
ATOM     21  C   UNL     1       0.087   9.131  22.304  0.00  0.00    +0.000 A 
ATOM     22  C   UNL     1       0.290   9.776  20.964  0.00  0.00    +0.000 A 
ATOM     23  N   UNL     1       0.925   9.152  19.999  0.00  0.00    +0.000 NA
ENDBRANCH  12  13
ENDBRANCH  11  12
ENDBRANCH   9  11
BRANCH  10  24
ATOM     24  C   UNL     1       4.577   5.477  16.709  0.00  0.00    +0.000 C 
BRANCH  24  25
ATOM     25  C   UNL     1       5.913   5.886  17.326  0.00  0.00    +0.000 A 
ATOM     26  C   UNL     1       6.540   7.079  16.919  0.00  0.00    +0.000 A 
ATOM     27  C   UNL     1       7.645   7.581  17.610  0.00  0.00    +0.000 A 
ATOM     28  C   UNL     1       8.162   6.884  18.698  0.00  0.00    +0.000 A 
ATOM     29  C   UNL     1       7.608   5.657  19.058  0.00  0.00    +0.000 A 
ATOM     30  C   UNL     1       6.496   5.154  18.371  0.00  0.00    +0.000 A 
ENDBRANCH  24  25
ENDBRANCH  10  24
TORSDOF 5
ENDMDL
MODEL 2
REMARK VINA RESULT:      -8.4      1.625      2.538
REMARK  Name = 
REMARK  5 active torsions:
REMARK  status: ('A' for Active; 'I' for Inactive)
REMARK    1  A    between atoms: C_9  and  S_10
REMARK    2  A    between atoms: S_10  and  C_11
REMARK    3  A    between atoms: C_11  and  C_12
REMARK    4  A    between atoms: N_23  and  C_24
REMARK    5  A    between atoms: C_24  and  C_25
REMARK                            x       y       z     vdW  Elec       q    Type
REMARK                         _______ _______ _______ _____ _____    ______ ____
ROOT
ATOM      1  O   UNL     1       3.843   3.176  17.256  0.00  0.00    +0.000 OA
ATOM      2  C   UNL     1       3.319   4.037  17.964  0.00  0.00    +0.000 A 
ATOM      3  C   UNL     1       2.543   3.747  19.126  0.00  0.00    +0.000 A 
ATOM      4  S   UNL     1       2.361   2.183  19.769  0.00  0.00    +0.000 S 
ATOM      5  C   UNL     1       1.516   2.804  21.132  0.00  0.00    +0.000 A 
ATOM      6  C   UNL     1       1.381   4.185  21.059  0.00  0.00    +0.000 A 
ATOM      7  C   UNL     1       1.912   4.716  19.848  0.00  0.00    +0.000 A 
ATOM      8  N   UNL     1       1.856   6.063  19.399  0.00  0.00    +0.000 NA
ATOM      9  C   UNL     1       2.599   6.356  18.364  0.00  0.00    +0.000 A 
ATOM     10  N   UNL     1       3.439   5.420  17.704  0.00  0.00    +0.000 N 
ENDROOT
BRANCH   9  11
ATOM     11  S   UNL     1       2.688   8.069  17.804  0.00  0.00    +0.000 S 
BRANCH  11  12
ATOM     12  C   UNL     1       2.074   9.126  19.189  0.00  0.00    +0.000 C 
BRANCH  12  13
ATOM     13  C   UNL     1       0.667   9.835  19.032  0.00  0.00    +0.000 A 
ATOM     14  C   UNL     1       0.293  10.941  19.705  0.00  0.00    +0.000 A 
ATOM     15  C   UNL     1      -1.154  11.263  19.753  0.00  0.00    +0.000 A 
ATOM     16  O   UNL     1      -1.650  11.749  20.767  0.00  0.00    +0.000 OA
ATOM     17  N   UNL     1      -1.805  11.002  18.574  0.00  0.00    +0.000 N 
ATOM     18  C   UNL     1      -3.029  11.612  18.310  0.00  0.00    +0.000 A 
ATOM     19  C   UNL     1      -3.684  11.416  17.170  0.00  0.00    +0.000 A 
ATOM     20  C   UNL     1      -3.142  10.491  16.199  0.00  0.00    +0.000 A 
ATOM     21  C   UNL     1      -2.017   9.815  16.457  0.00  0.00    +0.000 A 
ATOM     22  C   UNL     1      -1.252  10.061  17.724  0.00  0.00    +0.000 A 
ATOM     23  N   UNL     1      -0.126   9.431  17.971  0.00  0.00    +0.000 NA
ENDBRANCH  12  13
ENDBRANCH  11  12
ENDBRANCH   9  11
BRANCH  10  24
ATOM     24  C   UNL     1       4.457   5.745  16.734  0.00  0.00    +0.000 C 
BRANCH  24  25
ATOM     25  C   UNL     1       5.821   6.069  17.339  0.00  0.00    +0.000 A 
ATOM     26  C   UNL     1       6.496   7.245  16.961  0.00  0.00    +0.000 A 
ATOM     27  C   UNL     1       7.636   7.671  17.648  0.00  0.00    +0.000 A 
ATOM     28  C   UNL     1       8.138   6.913  18.701  0.00  0.00    +0.000 A 
ATOM     29  C   UNL     1       7.534   5.701  19.029  0.00  0.00    +0.000 A 
ATOM     30  C   UNL     1       6.388   5.275  18.346  0.00  0.00    +0.000 A 
ENDBRANCH  24  25
ENDBRANCH  10  24
TORSDOF 5
ENDMDL
MODEL 3
REMARK VINA RESULT:      -8.4      1.292      1.788
REMARK  Name = 
REMARK  5 active torsions:
REMARK  status: ('A' for Active; 'I' for Inactive)
REMARK    1  A    between atoms: C_9  and  S_10
REMARK    2  A    between atoms: S_10  and  C_11
REMARK    3  A    between atoms: C_11  and  C_12
REMARK    4  A    between atoms: N_23  and  C_24
REMARK    5  A    between atoms: C_24  and  C_25
REMARK                            x       y       z     vdW  Elec       q    Type
REMARK                         _______ _______ _______ _____ _____    ______ ____
ROOT
ATOM      1  O   UNL     1       3.617   3.416  16.829  0.00  0.00    +0.000 OA
ATOM      2  C   UNL     1       3.196   4.222  17.660  0.00  0.00    +0.000 A 
ATOM      3  C   UNL     1       2.400   3.858  18.787  0.00  0.00    +0.000 A 
ATOM      4  S   UNL     1       2.053   2.249  19.214  0.00  0.00    +0.000 S 
ATOM      5  C   UNL     1       1.291   2.763  20.668  0.00  0.00    +0.000 A 
ATOM      6  C   UNL     1       1.307   4.147  20.788  0.00  0.00    +0.000 A 
ATOM      7  C   UNL     1       1.885   4.781  19.649  0.00  0.00    +0.000 A 
ATOM      8  N   UNL     1       1.974   6.175  19.391  0.00  0.00    +0.000 NA
ATOM      9  C   UNL     1       2.738   6.527  18.390  0.00  0.00    +0.000 A 
ATOM     10  N   UNL     1       3.465   5.607  17.589  0.00  0.00    +0.000 N 
ENDROOT
BRANCH   9  11
ATOM     11  S   UNL     1       3.010   8.281  18.069  0.00  0.00    +0.000 S 
BRANCH  11  12
ATOM     12  C   UNL     1       1.369   9.019  17.652  0.00  0.00    +0.000 C 
BRANCH  12  13
ATOM     13  C   UNL     1       0.611   9.852  18.764  0.00  0.00    +0.000 A 
ATOM     14  C   UNL     1       1.205  10.399  19.843  0.00  0.00    +0.000 A 
ATOM     15  C   UNL     1       0.339  10.807  20.976  0.00  0.00    +0.000 A 
ATOM     16  O   UNL     1       0.726  10.670  22.134  0.00  0.00    +0.000 OA
ATOM     17  N   UNL     1      -0.851  11.359  20.574  0.00  0.00    +0.000 N 
ATOM     18  C   UNL     1      -1.578  12.152  21.459  0.00  0.00    +0.000 A 
ATOM     19  C   UNL     1      -2.720  12.734  21.109  0.00  0.00    +0.000 A 
ATOM     20  C   UNL     1      -3.259  12.486  19.790  0.00  0.00    +0.000 A 
ATOM     21  C   UNL     1      -2.638  11.655  18.946  0.00  0.00    +0.000 A 
ATOM     22  C   UNL     1      -1.328  11.026  19.319  0.00  0.00    +0.000 A 
ATOM     23  N   UNL     1      -0.690  10.238  18.485  0.00  0.00    +0.000 NA
ENDBRANCH  12  13
ENDBRANCH  11  12
ENDBRANCH   9  11
BRANCH  10  24
ATOM     24  C   UNL     1       4.505   5.951  16.651  0.00  0.00    +0.000 C 
BRANCH  24  25
ATOM     25  C   UNL     1       5.871   6.200  17.289  0.00  0.00    +0.000 A 
ATOM     26  C   UNL     1       6.569   7.391  17.012  0.00  0.00    +0.000 A 
ATOM     27  C   UNL     1       7.711   7.738  17.738  0.00  0.00    +0.000 A 
ATOM     28  C   UNL     1       8.191   6.889  18.730  0.00  0.00    +0.000 A 
ATOM     29  C   UNL     1       7.563   5.665  18.955  0.00  0.00    +0.000 A 
ATOM     30  C   UNL     1       6.415   5.317  18.232  0.00  0.00    +0.000 A 
ENDBRANCH  24  25
ENDBRANCH  10  24
TORSDOF 5
ENDMDL
MODEL 4
REMARK VINA RESULT:      -8.2      1.736      2.569
REMARK  Name = 
REMARK  5 active torsions:
REMARK  status: ('A' for Active; 'I' for Inactive)
REMARK    1  A    between atoms: C_9  and  S_10
REMARK    2  A    between atoms: S_10  and  C_11
REMARK    3  A    between atoms: C_11  and  C_12
REMARK    4  A    between atoms: N_23  and  C_24
REMARK    5  A    between atoms: C_24  and  C_25
REMARK                            x       y       z     vdW  Elec       q    Type
REMARK                         _______ _______ _______ _____ _____    ______ ____
ROOT
ATOM      1  O   UNL     1       3.771   3.259  16.994  0.00  0.00    +0.000 OA
ATOM      2  C   UNL     1       3.319   4.082  17.792  0.00  0.00    +0.000 A 
ATOM      3  C   UNL     1       2.538   3.734  18.935  0.00  0.00    +0.000 A 
ATOM      4  S   UNL     1       2.253   2.132  19.429  0.00  0.00    +0.000 S 
ATOM      5  C   UNL     1       1.472   2.676  20.861  0.00  0.00    +0.000 A 
ATOM      6  C   UNL     1       1.435   4.063  20.924  0.00  0.00    +0.000 A 
ATOM      7  C   UNL     1       1.987   4.671  19.759  0.00  0.00    +0.000 A 
ATOM      8  N   UNL     1       2.022   6.056  19.444  0.00  0.00    +0.000 NA
ATOM      9  C   UNL     1       2.772   6.395  18.428  0.00  0.00    +0.000 A 
ATOM     10  N   UNL     1       3.534   5.472  17.664  0.00  0.00    +0.000 N 
ENDROOT
BRANCH   9  11
ATOM     11  S   UNL     1       2.977   8.144  18.034  0.00  0.00    +0.000 S 
BRANCH  11  12
ATOM     12  C   UNL     1       1.284   8.866  17.868  0.00  0.00    +0.000 C 
BRANCH  12  13
ATOM     13  C   UNL     1       1.067  10.383  18.263  0.00  0.00    +0.000 A 
ATOM     14  C   UNL     1       0.047  10.834  19.020  0.00  0.00    +0.000 A 
ATOM     15  C   UNL     1      -0.246  12.288  18.987  0.00  0.00    +0.000 A 
ATOM     16  O   UNL     1      -1.406  12.689  19.041  0.00  0.00    +0.000 OA
ATOM     17  N   UNL     1       0.882  13.066  18.935  0.00  0.00    +0.000 N 
ATOM     18  C   UNL     1       0.815  14.406  19.308  0.00  0.00    +0.000 A 
ATOM     19  C   UNL     1       1.886  15.194  19.305  0.00  0.00    +0.000 A 
ATOM     20  C   UNL     1       3.147  14.662  18.839  0.00  0.00    +0.000 A 
ATOM     21  C   UNL     1       3.230  13.407  18.384  0.00  0.00    +0.000 A 
ATOM     22  C   UNL     1       2.035  12.500  18.421  0.00  0.00    +0.000 A 
ATOM     23  N   UNL     1       2.114  11.254  18.012  0.00  0.00    +0.000 NA
ENDBRANCH  12  13
ENDBRANCH  11  12
ENDBRANCH   9  11
BRANCH  10  24
ATOM     24  C   UNL     1       4.560   5.817  16.711  0.00  0.00    +0.000 C 
BRANCH  24  25
ATOM     25  C   UNL     1       5.918   6.134  17.334  0.00  0.00    +0.000 A 
ATOM     26  C   UNL     1       6.595   7.316  16.980  0.00  0.00    +0.000 A 
ATOM     27  C   UNL     1       7.728   7.732  17.685  0.00  0.00    +0.000 A 
ATOM     28  C   UNL     1       8.219   6.961  18.733  0.00  0.00    +0.000 A 
ATOM     29  C   UNL     1       7.612   5.744  19.038  0.00  0.00    +0.000 A 
ATOM     30  C   UNL     1       6.474   5.327  18.337  0.00  0.00    +0.000 A 
ENDBRANCH  24  25
ENDBRANCH  10  24
TORSDOF 5
ENDMDL
MODEL 5
REMARK VINA RESULT:      -8.2      1.109      1.384
REMARK  Name = 
REMARK  5 active torsions:
REMARK  status: ('A' for Active; 'I' for Inactive)
REMARK    1  A    between atoms: C_9  and  S_10
REMARK    2  A    between atoms: S_10  and  C_11
REMARK    3  A    between atoms: C_11  and  C_12
REMARK    4  A    between atoms: N_23  and  C_24
REMARK    5  A    between atoms: C_24  and  C_25
REMARK                            x       y       z     vdW  Elec       q    Type
REMARK                         _______ _______ _______ _____ _____    ______ ____
ROOT
ATOM      1  O   UNL     1       4.539   3.749  16.401  0.00  0.00    +0.000 OA
ATOM      2  C   UNL     1       3.809   4.231  17.268  0.00  0.00    +0.000 A 
ATOM      3  C   UNL     1       3.032   3.451  18.177  0.00  0.00    +0.000 A 
ATOM      4  S   UNL     1       3.124   1.756  18.279  0.00  0.00    +0.000 S 
ATOM      5  C   UNL     1       2.085   1.748  19.650  0.00  0.00    +0.000 A 
ATOM      6  C   UNL     1       1.683   3.033  19.990  0.00  0.00    +0.000 A 
ATOM      7  C   UNL     1       2.175   4.012  19.077  0.00  0.00    +0.000 A 
ATOM      8  N   UNL     1       1.881   5.402  19.063  0.00  0.00    +0.000 NA
ATOM      9  C   UNL     1       2.618   6.137  18.270  0.00  0.00    +0.000 A 
ATOM     10  N   UNL     1       3.667   5.623  17.464  0.00  0.00    +0.000 N 
ENDROOT
BRANCH   9  11
ATOM     11  S   UNL     1       2.400   7.928  18.281  0.00  0.00    +0.000 S 
BRANCH  11  12
ATOM     12  C   UNL     1       1.828   8.396  19.974  0.00  0.00    +0.000 C 
BRANCH  12  13
ATOM     13  C   UNL     1       0.770   9.565  20.118  0.00  0.00    +0.000 A 
ATOM     14  C   UNL     1       0.060  10.078  19.094  0.00  0.00    +0.000 A 
ATOM     15  C   UNL     1      -0.589  11.396  19.298  0.00  0.00    +0.000 A 
ATOM     16  O   UNL     1      -0.653  12.206  18.376  0.00  0.00    +0.000 OA
ATOM     17  N   UNL     1      -1.109  11.554  20.557  0.00  0.00    +0.000 N 
ATOM     18  C   UNL     1      -2.084  12.522  20.786  0.00  0.00    +0.000 A 
ATOM     19  C   UNL     1      -2.641  12.694  21.980  0.00  0.00    +0.000 A 
ATOM     20  C   UNL     1      -2.176  11.896  23.093  0.00  0.00    +0.000 A 
ATOM     21  C   UNL     1      -1.176  11.022  22.933  0.00  0.00    +0.000 A 
ATOM     22  C   UNL     1      -0.570  10.794  21.579  0.00  0.00    +0.000 A 
ATOM     23  N   UNL     1       0.387   9.912  21.402  0.00  0.00    +0.000 NA
ENDBRANCH  12  13
ENDBRANCH  11  12
ENDBRANCH   9  11
BRANCH  10  24
ATOM     24  C   UNL     1       4.661   6.411  16.777  0.00  0.00    +0.000 C 
BRANCH  24  25
ATOM     25  C   UNL     1       6.010   6.483  17.490  0.00  0.00    +0.000 A 
ATOM     26  C   UNL     1       6.908   7.525  17.191  0.00  0.00    +0.000 A 
ATOM     27  C   UNL     1       8.048   7.736  17.972  0.00  0.00    +0.000 A 
ATOM     28  C   UNL     1       8.326   6.891  19.043  0.00  0.00    +0.000 A 
ATOM     29  C   UNL     1       7.494   5.802  19.296  0.00  0.00    +0.000 A 
ATOM     30  C   UNL     1       6.348   5.592  18.519  0.00  0.00    +0.000 A 
ENDBRANCH  24  25
ENDBRANCH  10  24
TORSDOF 5
ENDMDL
MODEL 6
REMARK VINA RESULT:      -8.1      1.948      4.348
REMARK  Name = 
REMARK  5 active torsions:
REMARK  status: ('A' for Active; 'I' for Inactive)
REMARK    1  A    between atoms: C_9  and  S_10
REMARK    2  A    between atoms: S_10  and  C_11
REMARK    3  A    between atoms: C_11  and  C_12
REMARK    4  A    between atoms: N_23  and  C_24
REMARK    5  A    between atoms: C_24  and  C_25
REMARK                            x       y       z     vdW  Elec       q    Type
REMARK                         _______ _______ _______ _____ _____    ______ ____
ROOT
ATOM      1  O   UNL     1       5.446   5.025  19.877  0.00  0.00    +0.000 OA
ATOM      2  C   UNL     1       5.045   5.535  18.831  0.00  0.00    +0.000 A 
ATOM      3  C   UNL     1       5.751   5.469  17.592  0.00  0.00    +0.000 A 
ATOM      4  S   UNL     1       7.166   4.554  17.364  0.00  0.00    +0.000 S 
ATOM      5  C   UNL     1       7.160   4.902  15.679  0.00  0.00    +0.000 A 
ATOM      6  C   UNL     1       6.090   5.716  15.332  0.00  0.00    +0.000 A 
ATOM      7  C   UNL     1       5.320   6.107  16.467  0.00  0.00    +0.000 A 
ATOM      8  N   UNL     1       4.222   7.009  16.494  0.00  0.00    +0.000 NA
ATOM      9  C   UNL     1       3.536   7.045  17.606  0.00  0.00    +0.000 A 
ATOM     10  N   UNL     1       3.824   6.241  18.740  0.00  0.00    +0.000 N 
ENDROOT
BRANCH   9  11
ATOM     11  S   UNL     1       2.051   8.067  17.688  0.00  0.00    +0.000 S 
BRANCH  11  12
ATOM     12  C   UNL     1       1.904   8.675  19.427  0.00  0.00    +0.000 C 
BRANCH  12  13
ATOM     13  C   UNL     1       0.788   9.747  19.760  0.00  0.00    +0.000 A 
ATOM     14  C   UNL     1      -0.069  10.260  18.855  0.00  0.00    +0.000 A 
ATOM     15  C   UNL     1      -0.784  11.510  19.213  0.00  0.00    +0.000 A 
ATOM     16  O   UNL     1      -1.010  12.363  18.358  0.00  0.00    +0.000 OA
ATOM     17  N   UNL     1      -1.167  11.555  20.529  0.00  0.00    +0.000 N 
ATOM     18  C   UNL     1      -2.176  12.429  20.925  0.00  0.00    +0.000 A 
ATOM     19  C   UNL     1      -2.606  12.489  22.182  0.00  0.00    +0.000 A 
ATOM     20  C   UNL     1      -1.961  11.668  23.183  0.00  0.00    +0.000 A 
ATOM     21  C   UNL     1      -0.926  10.885  22.859  0.00  0.00    +0.000 A 
ATOM     22  C   UNL     1      -0.463  10.783  21.435  0.00  0.00    +0.000 A 
ATOM     23  N   UNL     1       0.529   9.990  21.098  0.00  0.00    +0.000 NA
ENDBRANCH  12  13
ENDBRANCH  11  12
ENDBRANCH   9  11
BRANCH  10  24
ATOM     24  C   UNL     1       2.960   6.057  19.881  0.00  0.00    +0.000 C 
BRANCH  24  25
ATOM     25  C   UNL     1       2.127   4.778  19.841  0.00  0.00    +0.000 A 
ATOM     26  C   UNL     1       1.695   4.259  18.606  0.00  0.00    +0.000 A 
ATOM     27  C   UNL     1       1.117   2.989  18.524  0.00  0.00    +0.000 A 
ATOM     28  C   UNL     1       0.934   2.231  19.676  0.00  0.00    +0.000 A 
ATOM     29  C   UNL     1       1.275   2.767  20.916  0.00  0.00    +0.000 A 
ATOM     30  C   UNL     1       1.859   4.037  21.001  0.00  0.00    +0.000 A 
ENDBRANCH  24  25
ENDBRANCH  10  24
TORSDOF 5
ENDMDL
MODEL 7
REMARK VINA RESULT:      -8.1      1.272      1.856
REMARK  Name = 
REMARK  5 active torsions:
REMARK  status: ('A' for Active; 'I' for Inactive)
REMARK    1  A    between atoms: C_9  and  S_10
REMARK    2  A    between atoms: S_10  and  C_11
REMARK    3  A    between atoms: C_11  and  C_12
REMARK    4  A    between atoms: N_23  and  C_24
REMARK    5  A    between atoms: C_24  and  C_25
REMARK                            x       y       z     vdW  Elec       q    Type
REMARK                         _______ _______ _______ _____ _____    ______ ____
ROOT
ATOM      1  O   UNL     1       5.313   3.370  19.212  0.00  0.00    +0.000 OA
ATOM      2  C   UNL     1       4.369   4.148  19.351  0.00  0.00    +0.000 A 
ATOM      3  C   UNL     1       3.153   3.813  20.020  0.00  0.00    +0.000 A 
ATOM      4  S   UNL     1       2.905   2.344  20.840  0.00  0.00    +0.000 S 
ATOM      5  C   UNL     1       1.385   2.891  21.431  0.00  0.00    +0.000 A 
ATOM      6  C   UNL     1       1.096   4.172  20.980  0.00  0.00    +0.000 A 
ATOM      7  C   UNL     1       2.095   4.670  20.093  0.00  0.00    +0.000 A 
ATOM      8  N   UNL     1       2.076   5.894  19.372  0.00  0.00    +0.000 NA
ATOM      9  C   UNL     1       3.197   6.239  18.794  0.00  0.00    +0.000 A 
ATOM     10  N   UNL     1       4.391   5.475  18.865  0.00  0.00    +0.000 N 
ENDROOT
BRANCH   9  11
ATOM     11  S   UNL     1       3.300   7.838  17.963  0.00  0.00    +0.000 S 
BRANCH  11  12
ATOM     12  C   UNL     1       1.569   8.410  17.668  0.00  0.00    +0.000 C 
BRANCH  12  13
ATOM     13  C   UNL     1       0.908   9.392  18.718  0.00  0.00    +0.000 A 
ATOM     14  C   UNL     1       0.102  10.423  18.394  0.00  0.00    +0.000 A 
ATOM     15  C   UNL     1      -0.126  11.470  19.420  0.00  0.00    +0.000 A 
ATOM     16  O   UNL     1      -0.229  12.649  19.092  0.00  0.00    +0.000 OA
ATOM     17  N   UNL     1      -0.240  10.966  20.691  0.00  0.00    +0.000 N 
ATOM     18  C   UNL     1      -0.850  11.727  21.684  0.00  0.00    +0.000 A 
ATOM     19  C   UNL     1      -1.014  11.272  22.923  0.00  0.00    +0.000 A 
ATOM     20  C   UNL     1      -0.483   9.971  23.268  0.00  0.00    +0.000 A 
ATOM     21  C   UNL     1       0.192   9.250  22.366  0.00  0.00    +0.000 A 
ATOM     22  C   UNL     1       0.345   9.740  20.956  0.00  0.00    +0.000 A 
ATOM     23  N   UNL     1       0.973   9.024  20.052  0.00  0.00    +0.000 NA
ENDBRANCH  12  13
ENDBRANCH  11  12
ENDBRANCH   9  11
BRANCH  10  24
ATOM     24  C   UNL     1       5.702   5.927  18.468  0.00  0.00    +0.000 C 
BRANCH  24  25
ATOM     25  C   UNL     1       6.063   5.613  17.017  0.00  0.00    +0.000 A 
ATOM     26  C   UNL     1       7.168   4.790  16.730  0.00  0.00    +0.000 A 
ATOM     27  C   UNL     1       7.394   4.318  15.434  0.00  0.00    +0.000 A 
ATOM     28  C   UNL     1       6.538   4.686  14.400  0.00  0.00    +0.000 A 
ATOM     29  C   UNL     1       5.493   5.572  14.651  0.00  0.00    +0.000 A 
ATOM     30  C   UNL     1       5.261   6.042  15.950  0.00  0.00    +0.000 A 
ENDBRANCH  24  25
ENDBRANCH  10  24
TORSDOF 5
ENDMDL
MODEL 8
REMARK VINA RESULT:      -8.0      2.374      5.010
REMARK  Name = 
REMARK  5 active torsions:
REMARK  status: ('A' for Active; 'I' for Inactive)
REMARK    1  A    between atoms: C_9  and  S_10
REMARK    2  A    between atoms: S_10  and  C_11
REMARK    3  A    between atoms: C_11  and  C_12
REMARK    4  A    between atoms: N_23  and  C_24
REMARK    5  A    between atoms: C_24  and  C_25
REMARK                            x       y       z     vdW  Elec       q    Type
REMARK                         _______ _______ _______ _____ _____    ______ ____
ROOT
ATOM      1  O   UNL     1       6.138   4.035  18.961  0.00  0.00    +0.000 OA
ATOM      2  C   UNL     1       5.489   4.835  18.285  0.00  0.00    +0.000 A 
ATOM      3  C   UNL     1       5.764   5.124  16.915  0.00  0.00    +0.000 A 
ATOM      4  S   UNL     1       6.931   4.297  15.994  0.00  0.00    +0.000 S 
ATOM      5  C   UNL     1       6.440   5.123  14.567  0.00  0.00    +0.000 A 
ATOM      6  C   UNL     1       5.409   6.017  14.827  0.00  0.00    +0.000 A 
ATOM      7  C   UNL     1       5.077   6.069  16.212  0.00  0.00    +0.000 A 
ATOM      8  N   UNL     1       4.146   6.938  16.843  0.00  0.00    +0.000 NA
ATOM      9  C   UNL     1       3.847   6.657  18.085  0.00  0.00    +0.000 A 
ATOM     10  N   UNL     1       4.385   5.552  18.796  0.00  0.00    +0.000 N 
ENDROOT
BRANCH   9  11
ATOM     11  S   UNL     1       2.581   7.630  18.924  0.00  0.00    +0.000 S 
BRANCH  11  12
ATOM     12  C   UNL     1       1.924   8.844  17.696  0.00  0.00    +0.000 C 
BRANCH  12  13
ATOM     13  C   UNL     1       0.589   9.621  18.041  0.00  0.00    +0.000 A 
ATOM     14  C   UNL     1       0.510  10.649  18.908  0.00  0.00    +0.000 A 
ATOM     15  C   UNL     1      -0.833  11.019  19.419  0.00  0.00    +0.000 A 
ATOM     16  O   UNL     1      -0.974  11.395  20.580  0.00  0.00    +0.000 OA
ATOM     17  N   UNL     1      -1.817  10.930  18.468  0.00  0.00    +0.000 N 
ATOM     18  C   UNL     1      -3.016  11.614  18.647  0.00  0.00    +0.000 A 
ATOM     19  C   UNL     1      -3.988  11.586  17.741  0.00  0.00    +0.000 A 
ATOM     20  C   UNL     1      -3.822  10.766  16.560  0.00  0.00    +0.000 A 
ATOM     21  C   UNL     1      -2.724  10.021  16.398  0.00  0.00    +0.000 A 
ATOM     22  C   UNL     1      -1.606  10.079  17.397  0.00  0.00    +0.000 A 
ATOM     23  N   UNL     1      -0.506   9.381  17.229  0.00  0.00    +0.000 NA
ENDBRANCH  12  13
ENDBRANCH  11  12
ENDBRANCH   9  11
BRANCH  10  24
ATOM     24  C   UNL     1       3.903   5.054  20.062  0.00  0.00    +0.000 C 
BRANCH  24  25
ATOM     25  C   UNL     1       2.800   4.004  19.948  0.00  0.00    +0.000 A 
ATOM     26  C   UNL     1       2.104   3.587  21.098  0.00  0.00    +0.000 A 
ATOM     27  C   UNL     1       0.959   2.793  20.995  0.00  0.00    +0.000 A 
ATOM     28  C   UNL     1       0.509   2.378  19.746  0.00  0.00    +0.000 A 
ATOM     29  C   UNL     1       1.237   2.708  18.605  0.00  0.00    +0.000 A 
ATOM     30  C   UNL     1       2.382   3.509  18.704  0.00  0.00    +0.000 A 
ENDBRANCH  24  25
ENDBRANCH  10  24
TORSDOF 5
ENDMDL
MODEL 9
REMARK VINA RESULT:      -8.0      1.717      2.621
REMARK  Name = 
REMARK  5 active torsions:
REMARK  status: ('A' for Active; 'I' for Inactive)
REMARK    1  A    between atoms: C_9  and  S_10
REMARK    2  A    between atoms: S_10  and  C_11
REMARK    3  A    between atoms: C_11  and  C_12
REMARK    4  A    between atoms: N_23  and  C_24
REMARK    5  A    between atoms: C_24  and  C_25
REMARK                            x       y       z     vdW  Elec       q    Type
REMARK                         _______ _______ _______ _____ _____    ______ ____
ROOT
ATOM      1  O   UNL     1       3.937   3.291  17.065  0.00  0.00    +0.000 OA
ATOM      2  C   UNL     1       3.323   4.039  17.827  0.00  0.00    +0.000 A 
ATOM      3  C   UNL     1       2.499   3.581  18.899  0.00  0.00    +0.000 A 
ATOM      4  S   UNL     1       2.372   1.948  19.356  0.00  0.00    +0.000 S 
ATOM      5  C   UNL     1       1.415   2.369  20.721  0.00  0.00    +0.000 A 
ATOM      6  C   UNL     1       1.204   3.739  20.790  0.00  0.00    +0.000 A 
ATOM      7  C   UNL     1       1.772   4.429  19.680  0.00  0.00    +0.000 A 
ATOM      8  N   UNL     1       1.663   5.813  19.377  0.00  0.00    +0.000 NA
ATOM      9  C   UNL     1       2.447   6.258  18.430  0.00  0.00    +0.000 A 
ATOM     10  N   UNL     1       3.377   5.447  17.727  0.00  0.00    +0.000 N 
ENDROOT
BRANCH   9  11
ATOM     11  S   UNL     1       2.468   8.026  18.066  0.00  0.00    +0.000 S 
BRANCH  11  12
ATOM     12  C   UNL     1       1.521   8.869  19.409  0.00  0.00    +0.000 C 
BRANCH  12  13
ATOM     13  C   UNL     1       0.937  10.313  19.129  0.00  0.00    +0.000 A 
ATOM     14  C   UNL     1      -0.378  10.604  19.069  0.00  0.00    +0.000 A 
ATOM     15  C   UNL     1      -0.774  11.882  18.429  0.00  0.00    +0.000 A 
ATOM     16  O   UNL     1      -1.797  11.947  17.752  0.00  0.00    +0.000 OA
ATOM     17  N   UNL     1       0.080  12.917  18.715  0.00  0.00    +0.000 N 
ATOM     18  C   UNL     1      -0.348  14.232  18.551  0.00  0.00    +0.000 A 
ATOM     19  C   UNL     1       0.429  15.269  18.844  0.00  0.00    +0.000 A 
ATOM     20  C   UNL     1       1.785  15.027  19.286  0.00  0.00    +0.000 A 
ATOM     21  C   UNL     1       2.263  13.780  19.365  0.00  0.00    +0.000 A 
ATOM     22  C   UNL     1       1.378  12.603  19.075  0.00  0.00    +0.000 A 
ATOM     23  N   UNL     1       1.825  11.373  19.186  0.00  0.00    +0.000 NA
ENDBRANCH  12  13
ENDBRANCH  11  12
ENDBRANCH   9  11
BRANCH  10  24
ATOM     24  C   UNL     1       4.428   5.929  16.865  0.00  0.00    +0.000 C 
BRANCH  24  25
ATOM     25  C   UNL     1       5.707   6.332  17.597  0.00  0.00    +0.000 A 
ATOM     26  C   UNL     1       6.183   5.547  18.665  0.00  0.00    +0.000 A 
ATOM     27  C   UNL     1       7.450   5.770  19.210  0.00  0.00    +0.000 A 
ATOM     28  C   UNL     1       8.248   6.799  18.719  0.00  0.00    +0.000 A 
ATOM     29  C   UNL     1       7.756   7.640  17.724  0.00  0.00    +0.000 A 
ATOM     30  C   UNL     1       6.488   7.416  17.171  0.00  0.00    +0.000 A 
ENDBRANCH  24  25
ENDBRANCH  10  24
TORSDOF 5
ENDMDL
