MODEL 1
REMARK VINA RESULT:      -8.1      0.000      0.000
REMARK  Name = 
REMARK  6 active torsions:
REMARK  status: ('A' for Active; 'I' for Inactive)
REMARK    1  A    between atoms: C_1  and  C_2
REMARK    2  A    between atoms: C_6  and  C_7
REMARK    3  A    between atoms: C_7  and  O_9
REMARK    4  A    between atoms: O_9  and  C_10
REMARK    5  A    between atoms: C_10  and  C_11
REMARK    6  A    between atoms: C_17  and  C_18
REMARK                            x       y       z     vdW  Elec       q    Type
REMARK                         _______ _______ _______ _____ _____    ______ ____
ROOT
ATOM      1  C   UNL     1       6.524   4.494  16.498  0.00  0.00    +0.000 A 
ATOM      2  C   UNL     1       6.967   4.959  17.678  0.00  0.00    +0.000 A 
ATOM      3  C   UNL     1       6.130   4.821  18.889  0.00  0.00    +0.000 A 
ATOM      4  O   UNL     1       6.555   5.224  19.965  0.00  0.00    +0.000 OA
ATOM      5  N   UNL     1       4.915   4.222  18.645  0.00  0.00    +0.000 N 
ATOM      6  N   UNL     1       4.019   3.958  19.659  0.00  0.00    +0.000 NA
ATOM      7  C   UNL     1       3.000   3.343  19.154  0.00  0.00    +0.000 A 
ATOM      8  S   UNL     1       2.996   3.051  17.437  0.00  0.00    +0.000 S 
ATOM      9  C   UNL     1       4.569   3.787  17.392  0.00  0.00    +0.000 A 
ATOM     10  N   UNL     1       5.293   3.894  16.321  0.00  0.00    +0.000 NA
ENDROOT
BRANCH   7  11
ATOM     11  C   UNL     1       1.900   2.826  19.989  0.00  0.00    +0.000 C 
ATOM     12  C   UNL     1       1.957   2.986  21.494  0.00  0.00    +0.000 C 
ATOM     13  C   UNL     1       0.927   3.735  20.703  0.00  0.00    +0.000 C 
ENDBRANCH   7  11
BRANCH   1  14
ATOM     14  C   UNL     1       7.417   4.643  15.277  0.00  0.00    +0.000 C 
BRANCH  14  15
ATOM     15  O   UNL     1       6.736   5.298  14.198  0.00  0.00    +0.000 OA
BRANCH  15  16
ATOM     16  C   UNL     1       7.290   5.065  12.984  0.00  0.00    +0.000 C 
ATOM     17  O   UNL     1       8.222   5.695  12.498  0.00  0.00    +0.000 OA
BRANCH  16  23
ATOM     18  C   UNL     1       3.211   2.809  11.045  0.00  0.00    +0.000 C 
ATOM     19  C   UNL     1       4.684   2.820  11.337  0.00  0.00    +0.000 A 
ATOM     20  C   UNL     1       5.494   1.740  10.965  0.00  0.00    +0.000 A 
ATOM     21  C   UNL     1       6.859   1.750  11.248  0.00  0.00    +0.000 A 
ATOM     22  C   UNL     1       7.427   2.841  11.906  0.00  0.00    +0.000 A 
ATOM     23  C   UNL     1       6.632   3.932  12.285  0.00  0.00    +0.000 A 
ATOM     24  C   UNL     1       5.261   3.916  11.997  0.00  0.00    +0.000 A 
ENDBRANCH  16  23
ENDBRANCH  15  16
ENDBRANCH  14  15
ENDBRANCH   1  14
TORSDOF 5
ENDMDL
MODEL 2
REMARK VINA RESULT:      -8.0      5.151      6.892
REMARK  Name = 
REMARK  6 active torsions:
REMARK  status: ('A' for Active; 'I' for Inactive)
REMARK    1  A    between atoms: C_1  and  C_2
REMARK    2  A    between atoms: C_6  and  C_7
REMARK    3  A    between atoms: C_7  and  O_9
REMARK    4  A    between atoms: O_9  and  C_10
REMARK    5  A    between atoms: C_10  and  C_11
REMARK    6  A    between atoms: C_17  and  C_18
REMARK                            x       y       z     vdW  Elec       q    Type
REMARK                         _______ _______ _______ _____ _____    ______ ____
ROOT
ATOM      1  C   UNL     1       2.255   6.877  19.789  0.00  0.00    +0.000 A 
ATOM      2  C   UNL     1       2.372   7.574  18.647  0.00  0.00    +0.000 A 
ATOM      3  C   UNL     1       1.817   8.941  18.555  0.00  0.00    +0.000 A 
ATOM      4  O   UNL     1       1.954   9.579  17.517  0.00  0.00    +0.000 OA
ATOM      5  N   UNL     1       1.186   9.351  19.707  0.00  0.00    +0.000 N 
ATOM      6  N   UNL     1       0.651  10.616  19.831  0.00  0.00    +0.000 NA
ATOM      7  C   UNL     1       0.179  10.744  21.029  0.00  0.00    +0.000 A 
ATOM      8  S   UNL     1       0.296   9.375  22.098  0.00  0.00    +0.000 S 
ATOM      9  C   UNL     1       1.126   8.548  20.816  0.00  0.00    +0.000 A 
ATOM     10  N   UNL     1       1.613   7.350  20.917  0.00  0.00    +0.000 NA
ENDROOT
BRANCH   7  11
ATOM     11  C   UNL     1      -0.375  12.017  21.524  0.00  0.00    +0.000 C 
ATOM     12  C   UNL     1      -1.873  12.244  21.510  0.00  0.00    +0.000 C 
ATOM     13  C   UNL     1      -1.150  12.116  22.817  0.00  0.00    +0.000 C 
ENDBRANCH   7  11
BRANCH   1  14
ATOM     14  C   UNL     1       2.849   5.479  19.851  0.00  0.00    +0.000 C 
BRANCH  14  15
ATOM     15  O   UNL     1       3.069   4.937  18.542  0.00  0.00    +0.000 OA
BRANCH  15  16
ATOM     16  C   UNL     1       3.952   3.910  18.519  0.00  0.00    +0.000 C 
ATOM     17  O   UNL     1       3.865   2.887  19.189  0.00  0.00    +0.000 OA
BRANCH  16  23
ATOM     18  C   UNL     1       5.874   4.008  13.853  0.00  0.00    +0.000 C 
ATOM     19  C   UNL     1       6.021   4.222  15.331  0.00  0.00    +0.000 A 
ATOM     20  C   UNL     1       7.237   4.658  15.872  0.00  0.00    +0.000 A 
ATOM     21  C   UNL     1       7.371   4.845  17.247  0.00  0.00    +0.000 A 
ATOM     22  C   UNL     1       6.291   4.597  18.094  0.00  0.00    +0.000 A 
ATOM     23  C   UNL     1       5.066   4.160  17.571  0.00  0.00    +0.000 A 
ATOM     24  C   UNL     1       4.937   3.975  16.188  0.00  0.00    +0.000 A 
ENDBRANCH  16  23
ENDBRANCH  15  16
ENDBRANCH  14  15
ENDBRANCH   1  14
TORSDOF 5
ENDMDL
MODEL 3
REMARK VINA RESULT:      -8.0      3.640      5.861
REMARK  Name = 
REMARK  6 active torsions:
REMARK  status: ('A' for Active; 'I' for Inactive)
REMARK    1  A    between atoms: C_1  and  C_2
REMARK    2  A    between atoms: C_6  and  C_7
REMARK    3  A    between atoms: C_7  and  O_9
REMARK    4  A    between atoms: O_9  and  C_10
REMARK    5  A    between atoms: C_10  and  C_11
REMARK    6  A    between atoms: C_17  and  C_18
REMARK                            x       y       z     vdW  Elec       q    Type
REMARK                         _______ _______ _______ _____ _____    ______ ____
ROOT
ATOM      1  C   UNL     1       3.038   4.547  18.041  0.00  0.00    +0.000 A 
ATOM      2  C   UNL     1       2.815   3.939  19.217  0.00  0.00    +0.000 A 
ATOM      3  C   UNL     1       2.308   4.718  20.367  0.00  0.00    +0.000 A 
ATOM      4  O   UNL     1       2.081   4.149  21.429  0.00  0.00    +0.000 OA
ATOM      5  N   UNL     1       2.142   6.056  20.088  0.00  0.00    +0.000 N 
ATOM      6  N   UNL     1       1.629   6.934  21.019  0.00  0.00    +0.000 NA
ATOM      7  C   UNL     1       1.529   8.100  20.469  0.00  0.00    +0.000 A 
ATOM      8  S   UNL     1       2.061   8.268  18.820  0.00  0.00    +0.000 S 
ATOM      9  C   UNL     1       2.407   6.566  18.844  0.00  0.00    +0.000 A 
ATOM     10  N   UNL     1       2.844   5.897  17.823  0.00  0.00    +0.000 NA
ENDROOT
BRANCH   7  11
ATOM     11  C   UNL     1       0.918   9.247  21.165  0.00  0.00    +0.000 C 
ATOM     12  C   UNL     1      -0.467   9.717  20.772  0.00  0.00    +0.000 C 
ATOM     13  C   UNL     1      -0.245   9.093  22.117  0.00  0.00    +0.000 C 
ENDBRANCH   7  11
BRANCH   1  14
ATOM     14  C   UNL     1       3.547   3.712  16.877  0.00  0.00    +0.000 C 
BRANCH  14  15
ATOM     15  O   UNL     1       4.979   3.632  16.866  0.00  0.00    +0.000 OA
BRANCH  15  16
ATOM     16  C   UNL     1       5.576   4.665  16.225  0.00  0.00    +0.000 C 
ATOM     17  O   UNL     1       5.404   4.962  15.048  0.00  0.00    +0.000 OA
BRANCH  16  23
ATOM     18  C   UNL     1       7.923   8.912  17.616  0.00  0.00    +0.000 C 
ATOM     19  C   UNL     1       7.628   7.455  17.822  0.00  0.00    +0.000 A 
ATOM     20  C   UNL     1       8.221   6.748  18.876  0.00  0.00    +0.000 A 
ATOM     21  C   UNL     1       7.952   5.392  19.056  0.00  0.00    +0.000 A 
ATOM     22  C   UNL     1       7.088   4.730  18.183  0.00  0.00    +0.000 A 
ATOM     23  C   UNL     1       6.485   5.421  17.123  0.00  0.00    +0.000 A 
ATOM     24  C   UNL     1       6.758   6.784  16.948  0.00  0.00    +0.000 A 
ENDBRANCH  16  23
ENDBRANCH  15  16
ENDBRANCH  14  15
ENDBRANCH   1  14
TORSDOF 5
ENDMDL
MODEL 4
REMARK VINA RESULT:      -7.9      0.706      1.464
REMARK  Name = 
REMARK  6 active torsions:
REMARK  status: ('A' for Active; 'I' for Inactive)
REMARK    1  A    between atoms: C_1  and  C_2
REMARK    2  A    between atoms: C_6  and  C_7
REMARK    3  A    between atoms: C_7  and  O_9
REMARK    4  A    between atoms: O_9  and  C_10
REMARK    5  A    between atoms: C_10  and  C_11
REMARK    6  A    between atoms: C_17  and  C_18
REMARK                            x       y       z     vdW  Elec       q    Type
REMARK                         _______ _______ _______ _____ _____    ______ ____
ROOT
ATOM      1  C   UNL     1       6.470   4.782  16.541  0.00  0.00    +0.000 A 
ATOM      2  C   UNL     1       7.067   5.091  17.703  0.00  0.00    +0.000 A 
ATOM      3  C   UNL     1       6.289   5.081  18.960  0.00  0.00    +0.000 A 
ATOM      4  O   UNL     1       6.851   5.338  20.019  0.00  0.00    +0.000 OA
ATOM      5  N   UNL     1       4.963   4.765  18.777  0.00  0.00    +0.000 N 
ATOM      6  N   UNL     1       4.089   4.654  19.838  0.00  0.00    +0.000 NA
ATOM      7  C   UNL     1       2.935   4.292  19.381  0.00  0.00    +0.000 A 
ATOM      8  S   UNL     1       2.772   4.082  17.661  0.00  0.00    +0.000 S 
ATOM      9  C   UNL     1       4.461   4.468  17.536  0.00  0.00    +0.000 A 
ATOM     10  N   UNL     1       5.130   4.465  16.425  0.00  0.00    +0.000 NA
ENDROOT
BRANCH   7  11
ATOM     11  C   UNL     1       1.799   3.984  20.269  0.00  0.00    +0.000 C 
ATOM     12  C   UNL     1       1.541   2.554  20.696  0.00  0.00    +0.000 C 
ATOM     13  C   UNL     1       1.986   3.566  21.709  0.00  0.00    +0.000 C 
ENDBRANCH   7  11
BRANCH   1  14
ATOM     14  C   UNL     1       7.303   4.790  15.270  0.00  0.00    +0.000 C 
BRANCH  14  15
ATOM     15  O   UNL     1       6.553   5.269  14.146  0.00  0.00    +0.000 OA
BRANCH  15  16
ATOM     16  C   UNL     1       7.059   4.883  12.950  0.00  0.00    +0.000 C 
ATOM     17  O   UNL     1       8.094   5.307  12.449  0.00  0.00    +0.000 OA
BRANCH  16  23
ATOM     18  C   UNL     1       6.298   0.246  11.105  0.00  0.00    +0.000 C 
ATOM     19  C   UNL     1       5.805   1.633  11.398  0.00  0.00    +0.000 A 
ATOM     20  C   UNL     1       4.506   2.019  11.042  0.00  0.00    +0.000 A 
ATOM     21  C   UNL     1       4.056   3.312  11.307  0.00  0.00    +0.000 A 
ATOM     22  C   UNL     1       4.901   4.231  11.929  0.00  0.00    +0.000 A 
ATOM     23  C   UNL     1       6.204   3.863  12.292  0.00  0.00    +0.000 A 
ATOM     24  C   UNL     1       6.650   2.562  12.025  0.00  0.00    +0.000 A 
ENDBRANCH  16  23
ENDBRANCH  15  16
ENDBRANCH  14  15
ENDBRANCH   1  14
TORSDOF 5
ENDMDL
MODEL 5
REMARK VINA RESULT:      -7.9      4.926      7.099
REMARK  Name = 
REMARK  6 active torsions:
REMARK  status: ('A' for Active; 'I' for Inactive)
REMARK    1  A    between atoms: C_1  and  C_2
REMARK    2  A    between atoms: C_6  and  C_7
REMARK    3  A    between atoms: C_7  and  O_9
REMARK    4  A    between atoms: O_9  and  C_10
REMARK    5  A    between atoms: C_10  and  C_11
REMARK    6  A    between atoms: C_17  and  C_18
REMARK                            x       y       z     vdW  Elec       q    Type
REMARK                         _______ _______ _______ _____ _____    ______ ____
ROOT
ATOM      1  C   UNL     1       2.272   6.577  19.360  0.00  0.00    +0.000 A 
ATOM      2  C   UNL     1       2.423   7.363  18.281  0.00  0.00    +0.000 A 
ATOM      3  C   UNL     1       1.958   8.766  18.318  0.00  0.00    +0.000 A 
ATOM      4  O   UNL     1       2.126   9.483  17.338  0.00  0.00    +0.000 OA
ATOM      5  N   UNL     1       1.366   9.113  19.511  0.00  0.00    +0.000 N 
ATOM      6  N   UNL     1       0.917  10.394  19.753  0.00  0.00    +0.000 NA
ATOM      7  C   UNL     1       0.466  10.446  20.964  0.00  0.00    +0.000 A 
ATOM      8  S   UNL     1       0.503   8.984  21.909  0.00  0.00    +0.000 S 
ATOM      9  C   UNL     1       1.265   8.221  20.546  0.00  0.00    +0.000 A 
ATOM     10  N   UNL     1       1.673   6.990  20.535  0.00  0.00    +0.000 NA
ENDROOT
BRANCH   7  11
ATOM     11  C   UNL     1       0.002  11.704  21.577  0.00  0.00    +0.000 C 
ATOM     12  C   UNL     1      -1.430  12.155  21.381  0.00  0.00    +0.000 C 
ATOM     13  C   UNL     1      -0.961  11.732  22.741  0.00  0.00    +0.000 C 
ENDBRANCH   7  11
BRANCH   1  14
ATOM     14  C   UNL     1       2.773   5.144  19.291  0.00  0.00    +0.000 C 
BRANCH  14  15
ATOM     15  O   UNL     1       4.026   4.986  19.971  0.00  0.00    +0.000 OA
BRANCH  15  16
ATOM     16  C   UNL     1       4.872   4.124  19.358  0.00  0.00    +0.000 C 
ATOM     17  O   UNL     1       5.022   2.945  19.658  0.00  0.00    +0.000 OA
BRANCH  16  23
ATOM     18  C   UNL     1       7.797   7.818  17.546  0.00  0.00    +0.000 C 
ATOM     19  C   UNL     1       7.033   6.541  17.350  0.00  0.00    +0.000 A 
ATOM     20  C   UNL     1       6.989   5.921  16.094  0.00  0.00    +0.000 A 
ATOM     21  C   UNL     1       6.269   4.740  15.915  0.00  0.00    +0.000 A 
ATOM     22  C   UNL     1       5.586   4.169  16.989  0.00  0.00    +0.000 A 
ATOM     23  C   UNL     1       5.619   4.776  18.253  0.00  0.00    +0.000 A 
ATOM     24  C   UNL     1       6.346   5.961  18.427  0.00  0.00    +0.000 A 
ENDBRANCH  16  23
ENDBRANCH  15  16
ENDBRANCH  14  15
ENDBRANCH   1  14
TORSDOF 5
ENDMDL
MODEL 6
REMARK VINA RESULT:      -7.8      5.532      8.905
REMARK  Name = 
REMARK  6 active torsions:
REMARK  status: ('A' for Active; 'I' for Inactive)
REMARK    1  A    between atoms: C_1  and  C_2
REMARK    2  A    between atoms: C_6  and  C_7
REMARK    3  A    between atoms: C_7  and  O_9
REMARK    4  A    between atoms: O_9  and  C_10
REMARK    5  A    between atoms: C_10  and  C_11
REMARK    6  A    between atoms: C_17  and  C_18
REMARK                            x       y       z     vdW  Elec       q    Type
REMARK                         _______ _______ _______ _____ _____    ______ ____
ROOT
ATOM      1  C   UNL     1       2.591   6.995  19.025  0.00  0.00    +0.000 A 
ATOM      2  C   UNL     1       2.292   5.732  19.371  0.00  0.00    +0.000 A 
ATOM      3  C   UNL     1       2.933   4.601  18.668  0.00  0.00    +0.000 A 
ATOM      4  O   UNL     1       2.673   3.453  19.010  0.00  0.00    +0.000 OA
ATOM      5  N   UNL     1       3.789   4.997  17.666  0.00  0.00    +0.000 N 
ATOM      6  N   UNL     1       4.520   4.086  16.932  0.00  0.00    +0.000 NA
ATOM      7  C   UNL     1       5.276   4.737  16.110  0.00  0.00    +0.000 A 
ATOM      8  S   UNL     1       5.167   6.475  16.108  0.00  0.00    +0.000 S 
ATOM      9  C   UNL     1       4.015   6.322  17.399  0.00  0.00    +0.000 A 
ATOM     10  N   UNL     1       3.468   7.327  18.010  0.00  0.00    +0.000 NA
ENDROOT
BRANCH   7  11
ATOM     11  C   UNL     1       6.262   4.062  15.246  0.00  0.00    +0.000 C 
ATOM     12  C   UNL     1       5.969   3.873  13.772  0.00  0.00    +0.000 C 
ATOM     13  C   UNL     1       7.065   4.802  14.201  0.00  0.00    +0.000 C 
ENDBRANCH   7  11
BRANCH   1  14
ATOM     14  C   UNL     1       1.922   8.133  19.778  0.00  0.00    +0.000 C 
BRANCH  14  15
ATOM     15  O   UNL     1       1.101   8.931  18.914  0.00  0.00    +0.000 OA
BRANCH  15  16
ATOM     16  C   UNL     1       0.568  10.018  19.522  0.00  0.00    +0.000 C 
ATOM     17  O   UNL     1       1.043  10.587  20.499  0.00  0.00    +0.000 OA
BRANCH  16  23
ATOM     18  C   UNL     1      -2.763   9.826  15.734  0.00  0.00    +0.000 C 
ATOM     19  C   UNL     1      -2.313  10.388  17.051  0.00  0.00    +0.000 A 
ATOM     20  C   UNL     1      -3.066  11.374  17.702  0.00  0.00    +0.000 A 
ATOM     21  C   UNL     1      -2.638  11.901  18.920  0.00  0.00    +0.000 A 
ATOM     22  C   UNL     1      -1.452  11.447  19.498  0.00  0.00    +0.000 A 
ATOM     23  C   UNL     1      -0.685  10.461  18.861  0.00  0.00    +0.000 A 
ATOM     24  C   UNL     1      -1.122   9.935  17.638  0.00  0.00    +0.000 A 
ENDBRANCH  16  23
ENDBRANCH  15  16
ENDBRANCH  14  15
ENDBRANCH   1  14
TORSDOF 5
ENDMDL
MODEL 7
REMARK VINA RESULT:      -7.8      3.843      4.491
REMARK  Name = 
REMARK  6 active torsions:
REMARK  status: ('A' for Active; 'I' for Inactive)
REMARK    1  A    between atoms: C_1  and  C_2
REMARK    2  A    between atoms: C_6  and  C_7
REMARK    3  A    between atoms: C_7  and  O_9
REMARK    4  A    between atoms: O_9  and  C_10
REMARK    5  A    between atoms: C_10  and  C_11
REMARK    6  A    between atoms: C_17  and  C_18
REMARK                            x       y       z     vdW  Elec       q    Type
REMARK                         _______ _______ _______ _____ _____    ______ ____
ROOT
ATOM      1  C   UNL     1       4.014   6.532  17.466  0.00  0.00    +0.000 A 
ATOM      2  C   UNL     1       3.864   5.706  18.514  0.00  0.00    +0.000 A 
ATOM      3  C   UNL     1       2.952   6.070  19.619  0.00  0.00    +0.000 A 
ATOM      4  O   UNL     1       2.802   5.296  20.557  0.00  0.00    +0.000 OA
ATOM      5  N   UNL     1       2.351   7.296  19.447  0.00  0.00    +0.000 N 
ATOM      6  N   UNL     1       1.427   7.785  20.347  0.00  0.00    +0.000 NA
ATOM      7  C   UNL     1       0.988   8.918  19.906  0.00  0.00    +0.000 A 
ATOM      8  S   UNL     1       1.648   9.519  18.411  0.00  0.00    +0.000 S 
ATOM      9  C   UNL     1       2.583   8.058  18.331  0.00  0.00    +0.000 A 
ATOM     10  N   UNL     1       3.373   7.751  17.350  0.00  0.00    +0.000 NA
ENDROOT
BRANCH   7  11
ATOM     11  C   UNL     1      -0.091   9.660  20.584  0.00  0.00    +0.000 C 
ATOM     12  C   UNL     1       0.252  10.783  21.541  0.00  0.00    +0.000 C 
ATOM     13  C   UNL     1      -0.428  11.092  20.241  0.00  0.00    +0.000 C 
ENDBRANCH   7  11
BRANCH   1  14
ATOM     14  C   UNL     1       4.950   6.119  16.342  0.00  0.00    +0.000 C 
BRANCH  14  15
ATOM     15  O   UNL     1       5.440   4.783  16.523  0.00  0.00    +0.000 OA
BRANCH  15  16
ATOM     16  C   UNL     1       6.721   4.614  16.116  0.00  0.00    +0.000 C 
ATOM     17  O   UNL     1       7.697   4.556  16.855  0.00  0.00    +0.000 OA
BRANCH  16  23
ATOM     18  C   UNL     1       5.327   2.570  11.715  0.00  0.00    +0.000 C 
ATOM     19  C   UNL     1       6.166   3.536  12.500  0.00  0.00    +0.000 A 
ATOM     20  C   UNL     1       7.093   4.365  11.854  0.00  0.00    +0.000 A 
ATOM     21  C   UNL     1       7.877   5.253  12.589  0.00  0.00    +0.000 A 
ATOM     22  C   UNL     1       7.743   5.321  13.976  0.00  0.00    +0.000 A 
ATOM     23  C   UNL     1       6.820   4.500  14.639  0.00  0.00    +0.000 A 
ATOM     24  C   UNL     1       6.033   3.610  13.895  0.00  0.00    +0.000 A 
ENDBRANCH  16  23
ENDBRANCH  15  16
ENDBRANCH  14  15
ENDBRANCH   1  14
TORSDOF 5
ENDMDL
MODEL 8
REMARK VINA RESULT:      -7.8      4.972      6.780
REMARK  Name = 
REMARK  6 active torsions:
REMARK  status: ('A' for Active; 'I' for Inactive)
REMARK    1  A    between atoms: C_1  and  C_2
REMARK    2  A    between atoms: C_6  and  C_7
REMARK    3  A    between atoms: C_7  and  O_9
REMARK    4  A    between atoms: O_9  and  C_10
REMARK    5  A    between atoms: C_10  and  C_11
REMARK    6  A    between atoms: C_17  and  C_18
REMARK                            x       y       z     vdW  Elec       q    Type
REMARK                         _______ _______ _______ _____ _____    ______ ____
ROOT
ATOM      1  C   UNL     1       2.391   6.432  19.783  0.00  0.00    +0.000 A 
ATOM      2  C   UNL     1       2.601   6.982  18.576  0.00  0.00    +0.000 A 
ATOM      3  C   UNL     1       2.133   8.357  18.298  0.00  0.00    +0.000 A 
ATOM      4  O   UNL     1       2.355   8.859  17.202  0.00  0.00    +0.000 OA
ATOM      5  N   UNL     1       1.476   8.933  19.360  0.00  0.00    +0.000 N 
ATOM      6  N   UNL     1       1.013  10.231  19.310  0.00  0.00    +0.000 NA
ATOM      7  C   UNL     1       0.496  10.525  20.458  0.00  0.00    +0.000 A 
ATOM      8  S   UNL     1       0.482   9.288  21.684  0.00  0.00    +0.000 S 
ATOM      9  C   UNL     1       1.318   8.271  20.550  0.00  0.00    +0.000 A 
ATOM     10  N   UNL     1       1.728   7.069  20.814  0.00  0.00    +0.000 NA
ENDROOT
BRANCH   7  11
ATOM     11  C   UNL     1      -0.003  11.876  20.774  0.00  0.00    +0.000 C 
ATOM     12  C   UNL     1       0.974  13.023  20.930  0.00  0.00    +0.000 C 
ATOM     13  C   UNL     1       0.025  13.005  19.770  0.00  0.00    +0.000 C 
ENDBRANCH   7  11
BRANCH   1  14
ATOM     14  C   UNL     1       2.897   5.021  20.037  0.00  0.00    +0.000 C 
BRANCH  14  15
ATOM     15  O   UNL     1       3.262   4.360  18.817  0.00  0.00    +0.000 OA
BRANCH  15  16
ATOM     16  C   UNL     1       4.507   3.828  18.839  0.00  0.00    +0.000 C 
ATOM     17  O   UNL     1       4.911   3.004  19.652  0.00  0.00    +0.000 OA
BRANCH  16  23
ATOM     18  C   UNL     1       5.908   3.995  13.992  0.00  0.00    +0.000 C 
ATOM     19  C   UNL     1       6.049   4.466  15.410  0.00  0.00    +0.000 A 
ATOM     20  C   UNL     1       7.009   5.429  15.750  0.00  0.00    +0.000 A 
ATOM     21  C   UNL     1       7.143   5.855  17.071  0.00  0.00    +0.000 A 
ATOM     22  C   UNL     1       6.320   5.324  18.064  0.00  0.00    +0.000 A 
ATOM     23  C   UNL     1       5.354   4.360  17.741  0.00  0.00    +0.000 A 
ATOM     24  C   UNL     1       5.223   3.936  16.412  0.00  0.00    +0.000 A 
ENDBRANCH  16  23
ENDBRANCH  15  16
ENDBRANCH  14  15
ENDBRANCH   1  14
TORSDOF 5
ENDMDL
MODEL 9
REMARK VINA RESULT:      -7.7      5.017      7.091
REMARK  Name = 
REMARK  6 active torsions:
REMARK  status: ('A' for Active; 'I' for Inactive)
REMARK    1  A    between atoms: C_1  and  C_2
REMARK    2  A    between atoms: C_6  and  C_7
REMARK    3  A    between atoms: C_7  and  O_9
REMARK    4  A    between atoms: O_9  and  C_10
REMARK    5  A    between atoms: C_10  and  C_11
REMARK    6  A    between atoms: C_17  and  C_18
REMARK                            x       y       z     vdW  Elec       q    Type
REMARK                         _______ _______ _______ _____ _____    ______ ____
ROOT
ATOM      1  C   UNL     1       2.341   6.478  19.876  0.00  0.00    +0.000 A 
ATOM      2  C   UNL     1       2.615   6.986  18.663  0.00  0.00    +0.000 A 
ATOM      3  C   UNL     1       2.147   8.343  18.306  0.00  0.00    +0.000 A 
ATOM      4  O   UNL     1       2.426   8.807  17.207  0.00  0.00    +0.000 OA
ATOM      5  N   UNL     1       1.420   8.949  19.306  0.00  0.00    +0.000 N 
ATOM      6  N   UNL     1       0.944  10.237  19.179  0.00  0.00    +0.000 NA
ATOM      7  C   UNL     1       0.357  10.565  20.283  0.00  0.00    +0.000 A 
ATOM      8  S   UNL     1       0.287   9.374  21.552  0.00  0.00    +0.000 S 
ATOM      9  C   UNL     1       1.201   8.329  20.509  0.00  0.00    +0.000 A 
ATOM     10  N   UNL     1       1.610   7.144  20.841  0.00  0.00    +0.000 NA
ENDROOT
BRANCH   7  11
ATOM     11  C   UNL     1      -0.177  11.919  20.517  0.00  0.00    +0.000 C 
ATOM     12  C   UNL     1       0.699  12.974  21.162  0.00  0.00    +0.000 C 
ATOM     13  C   UNL     1       0.287  13.121  19.728  0.00  0.00    +0.000 C 
ENDBRANCH   7  11
BRANCH   1  14
ATOM     14  C   UNL     1       2.849   5.086  20.212  0.00  0.00    +0.000 C 
BRANCH  14  15
ATOM     15  O   UNL     1       3.127   4.322  19.031  0.00  0.00    +0.000 OA
BRANCH  15  16
ATOM     16  C   UNL     1       4.376   3.801  19.002  0.00  0.00    +0.000 C 
ATOM     17  O   UNL     1       4.782   2.894  19.721  0.00  0.00    +0.000 OA
BRANCH  16  23
ATOM     18  C   UNL     1       7.642   7.373  17.569  0.00  0.00    +0.000 C 
ATOM     19  C   UNL     1       6.805   6.167  17.256  0.00  0.00    +0.000 A 
ATOM     20  C   UNL     1       6.788   5.624  15.965  0.00  0.00    +0.000 A 
ATOM     21  C   UNL     1       6.000   4.511  15.678  0.00  0.00    +0.000 A 
ATOM     22  C   UNL     1       5.221   3.929  16.679  0.00  0.00    +0.000 A 
ATOM     23  C   UNL     1       5.226   4.459  17.977  0.00  0.00    +0.000 A 
ATOM     24  C   UNL     1       6.021   5.578  18.260  0.00  0.00    +0.000 A 
ENDBRANCH  16  23
ENDBRANCH  15  16
ENDBRANCH  14  15
ENDBRANCH   1  14
TORSDOF 5
ENDMDL
