MODEL 1
REMARK VINA RESULT:      -9.0      0.000      0.000
REMARK  Name = 
REMARK  6 active torsions:
REMARK  status: ('A' for Active; 'I' for Inactive)
REMARK    1  A    between atoms: C_1  and  C_2
REMARK    2  A    between atoms: C_5  and  C_6
REMARK    3  A    between atoms: N_16  and  O_17
REMARK    4  A    between atoms: N_18  and  O_19
REMARK    5  A    between atoms: C_20  and  C_21
REMARK    6  A    between atoms: C_20  and  C_22
REMARK                            x       y       z     vdW  Elec       q    Type
REMARK                         _______ _______ _______ _____ _____    ______ ____
ROOT
ATOM      1  C   UNL     1       5.304   4.641  16.345  0.00  0.00    +0.000 C 
ATOM      2  N   UNL     1       4.172   4.192  16.842  0.00  0.00    +0.000 N 
ATOM      3  O   UNL     1       3.317   3.519  16.173  0.00  0.00    +0.000 OA
ATOM      4  C   UNL     1       3.966   4.555  18.265  0.00  0.00    +0.000 C 
ATOM      5  C   UNL     1       2.566   5.197  18.396  0.00  0.00    +0.000 C 
ATOM      6  C   UNL     1       1.961   5.195  19.805  0.00  0.00    +0.000 C 
ATOM      7  C   UNL     1       1.204   3.906  20.148  0.00  0.00    +0.000 C 
ATOM      8  C   UNL     1       2.080   2.670  20.346  0.00  0.00    +0.000 C 
ATOM      9  C   UNL     1       2.904   2.320  19.113  0.00  0.00    +0.000 C 
ATOM     10  C   UNL     1       4.115   3.236  19.054  0.00  0.00    +0.000 C 
ATOM     11  N   UNL     1       5.227   2.963  19.680  0.00  0.00    +0.000 NA
ATOM     12  N   UNL     1       5.011   5.589  18.509  0.00  0.00    +0.000 NA
ATOM     13  C   UNL     1       6.066   5.368  17.472  0.00  0.00    +0.000 C 
ATOM     14  C   UNL     1       7.256   4.494  17.912  0.00  0.00    +0.000 C 
ATOM     15  C   UNL     1       6.576   6.752  17.059  0.00  0.00    +0.000 C 
ENDROOT
BRANCH   1  20
ATOM     16  C   UNL     1       5.034   3.140  11.782  0.00  0.00    +0.000 C 
ATOM     17  C   UNL     1       5.712   3.782  12.922  0.00  0.00    +0.000 A 
ATOM     18  C   UNL     1       6.920   4.427  13.064  0.00  0.00    +0.000 A 
ATOM     19  C   UNL     1       6.977   4.864  14.406  0.00  0.00    +0.000 A 
ATOM     20  C   UNL     1       5.805   4.455  15.015  0.00  0.00    +0.000 A 
ATOM     21  O   UNL     1       5.039   3.786  14.105  0.00  0.00    +0.000 OA
ENDBRANCH   1  20
BRANCH  11  22
ATOM     22  O   UNL     1       5.176   1.749  20.366  0.00  0.00    +0.000 OA
ATOM     23  H   UNL     1       4.387   1.862  20.931  0.00  0.00    +0.000 HD
ENDBRANCH  11  22
BRANCH  12  24
ATOM     24  O   UNL     1       5.579   5.639  19.832  0.00  0.00    +0.000 OA
ATOM     25  H   UNL     1       4.911   5.257  20.421  0.00  0.00    +0.000 HD
ENDBRANCH  12  24
TORSDOF 3
ENDMDL
MODEL 2
REMARK VINA RESULT:      -8.9      0.724      1.192
REMARK  Name = 
REMARK  6 active torsions:
REMARK  status: ('A' for Active; 'I' for Inactive)
REMARK    1  A    between atoms: C_1  and  C_2
REMARK    2  A    between atoms: C_5  and  C_6
REMARK    3  A    between atoms: N_16  and  O_17
REMARK    4  A    between atoms: N_18  and  O_19
REMARK    5  A    between atoms: C_20  and  C_21
REMARK    6  A    between atoms: C_20  and  C_22
REMARK                            x       y       z     vdW  Elec       q    Type
REMARK                         _______ _______ _______ _____ _____    ______ ____
ROOT
ATOM      1  C   UNL     1       5.237   4.679  16.396  0.00  0.00    +0.000 C 
ATOM      2  N   UNL     1       4.118   4.170  16.865  0.00  0.00    +0.000 N 
ATOM      3  O   UNL     1       3.315   3.457  16.174  0.00  0.00    +0.000 OA
ATOM      4  C   UNL     1       3.862   4.515  18.284  0.00  0.00    +0.000 C 
ATOM      5  C   UNL     1       2.428   5.084  18.385  0.00  0.00    +0.000 C 
ATOM      6  C   UNL     1       1.792   5.045  19.780  0.00  0.00    +0.000 C 
ATOM      7  C   UNL     1       1.094   3.717  20.101  0.00  0.00    +0.000 C 
ATOM      8  C   UNL     1       2.028   2.527  20.315  0.00  0.00    +0.000 C 
ATOM      9  C   UNL     1       2.897   2.225  19.099  0.00  0.00    +0.000 C 
ATOM     10  C   UNL     1       4.060   3.202  19.072  0.00  0.00    +0.000 C 
ATOM     11  N   UNL     1       5.170   2.983  19.723  0.00  0.00    +0.000 NA
ATOM     12  N   UNL     1       4.846   5.600  18.556  0.00  0.00    +0.000 NA
ATOM     13  C   UNL     1       5.935   5.438  17.543  0.00  0.00    +0.000 C 
ATOM     14  C   UNL     1       7.158   4.624  18.007  0.00  0.00    +0.000 C 
ATOM     15  C   UNL     1       6.383   6.849  17.146  0.00  0.00    +0.000 C 
ENDROOT
BRANCH   1  20
ATOM     16  C   UNL     1       8.307   5.673  12.829  0.00  0.00    +0.000 C 
ATOM     17  C   UNL     1       7.169   4.955  13.427  0.00  0.00    +0.000 A 
ATOM     18  C   UNL     1       6.358   3.932  12.989  0.00  0.00    +0.000 A 
ATOM     19  C   UNL     1       5.469   3.652  14.051  0.00  0.00    +0.000 A 
ATOM     20  C   UNL     1       5.778   4.524  15.077  0.00  0.00    +0.000 A 
ATOM     21  O   UNL     1       6.813   5.324  14.687  0.00  0.00    +0.000 OA
ENDBRANCH   1  20
BRANCH  11  22
ATOM     22  O   UNL     1       5.166   1.764  20.403  0.00  0.00    +0.000 OA
ATOM     23  H   UNL     1       4.918   2.033  21.309  0.00  0.00    +0.000 HD
ENDBRANCH  11  22
BRANCH  12  24
ATOM     24  O   UNL     1       5.381   5.673  19.892  0.00  0.00    +0.000 OA
ATOM     25  H   UNL     1       5.984   6.432  19.894  0.00  0.00    +0.000 HD
ENDBRANCH  12  24
TORSDOF 3
ENDMDL
MODEL 3
REMARK VINA RESULT:      -7.8      2.577      6.073
REMARK  Name = 
REMARK  6 active torsions:
REMARK  status: ('A' for Active; 'I' for Inactive)
REMARK    1  A    between atoms: C_1  and  C_2
REMARK    2  A    between atoms: C_5  and  C_6
REMARK    3  A    between atoms: N_16  and  O_17
REMARK    4  A    between atoms: N_18  and  O_19
REMARK    5  A    between atoms: C_20  and  C_21
REMARK    6  A    between atoms: C_20  and  C_22
REMARK                            x       y       z     vdW  Elec       q    Type
REMARK                         _______ _______ _______ _____ _____    ______ ____
ROOT
ATOM      1  C   UNL     1       2.851   6.678  18.355  0.00  0.00    +0.000 C 
ATOM      2  N   UNL     1       3.923   6.614  17.596  0.00  0.00    +0.000 N 
ATOM      3  O   UNL     1       4.400   7.609  16.953  0.00  0.00    +0.000 OA
ATOM      4  C   UNL     1       4.529   5.262  17.542  0.00  0.00    +0.000 C 
ATOM      5  C   UNL     1       4.725   4.887  16.055  0.00  0.00    +0.000 C 
ATOM      6  C   UNL     1       5.754   3.785  15.775  0.00  0.00    +0.000 C 
ATOM      7  C   UNL     1       7.192   4.305  15.646  0.00  0.00    +0.000 C 
ATOM      8  C   UNL     1       7.826   4.793  16.947  0.00  0.00    +0.000 C 
ATOM      9  C   UNL     1       7.056   5.938  17.592  0.00  0.00    +0.000 C 
ATOM     10  C   UNL     1       5.854   5.370  18.328  0.00  0.00    +0.000 C 
ATOM     11  N   UNL     1       5.930   4.937  19.557  0.00  0.00    +0.000 NA
ATOM     12  N   UNL     1       3.479   4.391  18.139  0.00  0.00    +0.000 NA
ATOM     13  C   UNL     1       2.627   5.286  18.982  0.00  0.00    +0.000 C 
ATOM     14  C   UNL     1       3.001   5.346  20.476  0.00  0.00    +0.000 C 
ATOM     15  C   UNL     1       1.185   4.786  18.838  0.00  0.00    +0.000 C 
ENDROOT
BRANCH   1  20
ATOM     16  C   UNL     1       0.659   9.848  21.233  0.00  0.00    +0.000 C 
ATOM     17  C   UNL     1       1.032   9.298  19.918  0.00  0.00    +0.000 A 
ATOM     18  C   UNL     1       0.814   9.711  18.623  0.00  0.00    +0.000 A 
ATOM     19  C   UNL     1       1.469   8.771  17.796  0.00  0.00    +0.000 A 
ATOM     20  C   UNL     1       2.045   7.830  18.629  0.00  0.00    +0.000 A 
ATOM     21  O   UNL     1       1.767   8.154  19.925  0.00  0.00    +0.000 OA
ENDBRANCH   1  20
BRANCH  11  22
ATOM     22  O   UNL     1       7.205   5.084  20.104  0.00  0.00    +0.000 OA
ATOM     23  H   UNL     1       7.010   5.422  21.000  0.00  0.00    +0.000 HD
ENDBRANCH  11  22
BRANCH  12  24
ATOM     24  O   UNL     1       3.932   3.244  18.885  0.00  0.00    +0.000 OA
ATOM     25  H   UNL     1       4.850   3.098  18.612  0.00  0.00    +0.000 HD
ENDBRANCH  12  24
TORSDOF 3
ENDMDL
MODEL 4
REMARK VINA RESULT:      -7.5      2.440      5.985
REMARK  Name = 
REMARK  6 active torsions:
REMARK  status: ('A' for Active; 'I' for Inactive)
REMARK    1  A    between atoms: C_1  and  C_2
REMARK    2  A    between atoms: C_5  and  C_6
REMARK    3  A    between atoms: N_16  and  O_17
REMARK    4  A    between atoms: N_18  and  O_19
REMARK    5  A    between atoms: C_20  and  C_21
REMARK    6  A    between atoms: C_20  and  C_22
REMARK                            x       y       z     vdW  Elec       q    Type
REMARK                         _______ _______ _______ _____ _____    ______ ____
ROOT
ATOM      1  C   UNL     1       3.154   6.251  18.426  0.00  0.00    +0.000 C 
ATOM      2  N   UNL     1       4.039   6.406  17.466  0.00  0.00    +0.000 N 
ATOM      3  O   UNL     1       4.340   7.535  16.950  0.00  0.00    +0.000 OA
ATOM      4  C   UNL     1       4.654   5.133  17.019  0.00  0.00    +0.000 C 
ATOM      5  C   UNL     1       4.535   5.060  15.479  0.00  0.00    +0.000 C 
ATOM      6  C   UNL     1       5.508   4.104  14.779  0.00  0.00    +0.000 C 
ATOM      7  C   UNL     1       6.870   4.736  14.463  0.00  0.00    +0.000 C 
ATOM      8  C   UNL     1       7.757   5.010  15.677  0.00  0.00    +0.000 C 
ATOM      9  C   UNL     1       7.114   5.958  16.682  0.00  0.00    +0.000 C 
ATOM     10  C   UNL     1       6.114   5.180  17.521  0.00  0.00    +0.000 C 
ATOM     11  N   UNL     1       6.463   4.529  18.597  0.00  0.00    +0.000 NA
ATOM     12  N   UNL     1       3.780   4.095  17.634  0.00  0.00    +0.000 NA
ATOM     13  C   UNL     1       3.106   4.754  18.795  0.00  0.00    +0.000 C 
ATOM     14  C   UNL     1       3.791   4.555  20.161  0.00  0.00    +0.000 C 
ATOM     15  C   UNL     1       1.680   4.193  18.855  0.00  0.00    +0.000 C 
ENDROOT
BRANCH   1  20
ATOM     16  C   UNL     1       0.619  10.336  18.593  0.00  0.00    +0.000 C 
ATOM     17  C   UNL     1       1.229   9.137  19.194  0.00  0.00    +0.000 A 
ATOM     18  C   UNL     1       1.216   8.602  20.462  0.00  0.00    +0.000 A 
ATOM     19  C   UNL     1       1.960   7.402  20.390  0.00  0.00    +0.000 A 
ATOM     20  C   UNL     1       2.395   7.274  19.084  0.00  0.00    +0.000 A 
ATOM     21  O   UNL     1       1.952   8.341  18.359  0.00  0.00    +0.000 OA
ENDBRANCH   1  20
BRANCH  11  22
ATOM     22  O   UNL     1       7.822   4.656  18.887  0.00  0.00    +0.000 OA
ATOM     23  H   UNL     1       7.814   4.835  19.848  0.00  0.00    +0.000 HD
ENDBRANCH  11  22
BRANCH  12  24
ATOM     24  O   UNL     1       4.413   2.861  18.026  0.00  0.00    +0.000 OA
ATOM     25  H   UNL     1       5.239   3.116  18.464  0.00  0.00    +0.000 HD
ENDBRANCH  12  24
TORSDOF 3
ENDMDL
MODEL 5
REMARK VINA RESULT:      -6.7      9.330     12.135
REMARK  Name = 
REMARK  6 active torsions:
REMARK  status: ('A' for Active; 'I' for Inactive)
REMARK    1  A    between atoms: C_1  and  C_2
REMARK    2  A    between atoms: C_5  and  C_6
REMARK    3  A    between atoms: N_16  and  O_17
REMARK    4  A    between atoms: N_18  and  O_19
REMARK    5  A    between atoms: C_20  and  C_21
REMARK    6  A    between atoms: C_20  and  C_22
REMARK                            x       y       z     vdW  Elec       q    Type
REMARK                         _______ _______ _______ _____ _____    ______ ____
ROOT
ATOM      1  C   UNL     1       8.459  12.839  22.433  0.00  0.00    +0.000 C 
ATOM      2  N   UNL     1       9.075  12.112  21.526  0.00  0.00    +0.000 N 
ATOM      3  O   UNL     1       8.985  10.840  21.451  0.00  0.00    +0.000 OA
ATOM      4  C   UNL     1       9.905  12.911  20.592  0.00  0.00    +0.000 C 
ATOM      5  C   UNL     1      11.316  12.282  20.551  0.00  0.00    +0.000 C 
ATOM      6  C   UNL     1      12.166  12.629  19.322  0.00  0.00    +0.000 C 
ATOM      7  C   UNL     1      11.916  11.705  18.123  0.00  0.00    +0.000 C 
ATOM      8  C   UNL     1      10.562  11.879  17.439  0.00  0.00    +0.000 C 
ATOM      9  C   UNL     1       9.385  11.626  18.373  0.00  0.00    +0.000 C 
ATOM     10  C   UNL     1       9.169  12.859  19.235  0.00  0.00    +0.000 C 
ATOM     11  N   UNL     1       8.436  13.865  18.842  0.00  0.00    +0.000 NA
ATOM     12  N   UNL     1       9.974  14.245  21.251  0.00  0.00    +0.000 NA
ATOM     13  C   UNL     1       8.791  14.321  22.162  0.00  0.00    +0.000 C 
ATOM     14  C   UNL     1       7.544  15.011  21.576  0.00  0.00    +0.000 C 
ATOM     15  C   UNL     1       9.247  15.075  23.417  0.00  0.00    +0.000 C 
ENDROOT
BRANCH   1  20
ATOM     16  C   UNL     1       7.233  11.930  26.995  0.00  0.00    +0.000 C 
ATOM     17  C   UNL     1       6.987  11.954  25.542  0.00  0.00    +0.000 A 
ATOM     18  C   UNL     1       5.897  11.642  24.761  0.00  0.00    +0.000 A 
ATOM     19  C   UNL     1       6.275  11.920  23.429  0.00  0.00    +0.000 A 
ATOM     20  C   UNL     1       7.578  12.380  23.466  0.00  0.00    +0.000 A 
ATOM     21  O   UNL     1       8.011  12.391  24.760  0.00  0.00    +0.000 OA
ENDBRANCH   1  20
BRANCH  11  22
ATOM     22  O   UNL     1       7.872  13.661  17.582  0.00  0.00    +0.000 OA
ATOM     23  H   UNL     1       7.510  12.757  17.660  0.00  0.00    +0.000 HD
ENDBRANCH  11  22
BRANCH  12  24
ATOM     24  O   UNL     1      10.044  15.395  20.386  0.00  0.00    +0.000 OA
ATOM     25  H   UNL     1      10.987  15.540  20.214  0.00  0.00    +0.000 HD
ENDBRANCH  12  24
TORSDOF 3
ENDMDL
MODEL 6
REMARK VINA RESULT:      -6.7      8.030     10.296
REMARK  Name = 
REMARK  6 active torsions:
REMARK  status: ('A' for Active; 'I' for Inactive)
REMARK    1  A    between atoms: C_1  and  C_2
REMARK    2  A    between atoms: C_5  and  C_6
REMARK    3  A    between atoms: N_16  and  O_17
REMARK    4  A    between atoms: N_18  and  O_19
REMARK    5  A    between atoms: C_20  and  C_21
REMARK    6  A    between atoms: C_20  and  C_22
REMARK                            x       y       z     vdW  Elec       q    Type
REMARK                         _______ _______ _______ _____ _____    ______ ____
ROOT
ATOM      1  C   UNL     1       0.056  10.806  19.645  0.00  0.00    +0.000 C 
ATOM      2  N   UNL     1       0.184  11.454  20.783  0.00  0.00    +0.000 N 
ATOM      3  O   UNL     1       1.174  11.309  21.577  0.00  0.00    +0.000 OA
ATOM      4  C   UNL     1      -0.945  12.370  21.072  0.00  0.00    +0.000 C 
ATOM      5  C   UNL     1      -1.452  12.065  22.501  0.00  0.00    +0.000 C 
ATOM      6  C   UNL     1      -2.259  13.182  23.174  0.00  0.00    +0.000 C 
ATOM      7  C   UNL     1      -1.388  14.218  23.898  0.00  0.00    +0.000 C 
ATOM      8  C   UNL     1      -0.574  15.133  22.987  0.00  0.00    +0.000 C 
ATOM      9  C   UNL     1       0.396  14.372  22.090  0.00  0.00    +0.000 C 
ATOM     10  C   UNL     1      -0.374  13.796  20.914  0.00  0.00    +0.000 C 
ATOM     11  N   UNL     1      -0.597  14.479  19.824  0.00  0.00    +0.000 NA
ATOM     12  N   UNL     1      -1.980  11.962  20.081  0.00  0.00    +0.000 NA
ATOM     13  C   UNL     1      -1.245  11.285  18.968  0.00  0.00    +0.000 C 
ATOM     14  C   UNL     1      -0.882  12.181  17.769  0.00  0.00    +0.000 C 
ATOM     15  C   UNL     1      -2.134  10.131  18.490  0.00  0.00    +0.000 C 
ENDROOT
BRANCH   1  20
ATOM     16  C   UNL     1       2.533   6.684  19.539  0.00  0.00    +0.000 C 
ATOM     17  C   UNL     1       2.116   7.987  18.992  0.00  0.00    +0.000 A 
ATOM     18  C   UNL     1       2.382   8.648  17.815  0.00  0.00    +0.000 A 
ATOM     19  C   UNL     1       1.643   9.851  17.863  0.00  0.00    +0.000 A 
ATOM     20  C   UNL     1       0.971   9.864  19.071  0.00  0.00    +0.000 A 
ATOM     21  O   UNL     1       1.270   8.726  19.761  0.00  0.00    +0.000 OA
ENDBRANCH   1  20
BRANCH  11  22
ATOM     22  O   UNL     1      -0.035  15.756  19.863  0.00  0.00    +0.000 OA
ATOM     23  H   UNL     1      -0.424  16.179  19.072  0.00  0.00    +0.000 HD
ENDBRANCH  11  22
BRANCH  12  24
ATOM     24  O   UNL     1      -2.847  12.999  19.582  0.00  0.00    +0.000 OA
ATOM     25  H   UNL     1      -3.686  12.891  20.054  0.00  0.00    +0.000 HD
ENDBRANCH  12  24
TORSDOF 3
ENDMDL
MODEL 7
REMARK VINA RESULT:      -6.6      9.331     11.961
REMARK  Name = 
REMARK  6 active torsions:
REMARK  status: ('A' for Active; 'I' for Inactive)
REMARK    1  A    between atoms: C_1  and  C_2
REMARK    2  A    between atoms: C_5  and  C_6
REMARK    3  A    between atoms: N_16  and  O_17
REMARK    4  A    between atoms: N_18  and  O_19
REMARK    5  A    between atoms: C_20  and  C_21
REMARK    6  A    between atoms: C_20  and  C_22
REMARK                            x       y       z     vdW  Elec       q    Type
REMARK                         _______ _______ _______ _____ _____    ______ ____
ROOT
ATOM      1  C   UNL     1      -3.859  11.869  18.662  0.00  0.00    +0.000 C 
ATOM      2  N   UNL     1      -2.879  12.440  19.329  0.00  0.00    +0.000 N 
ATOM      3  O   UNL     1      -3.056  13.232  20.316  0.00  0.00    +0.000 OA
ATOM      4  C   UNL     1      -1.532  12.090  18.816  0.00  0.00    +0.000 C 
ATOM      5  C   UNL     1      -0.752  13.405  18.587  0.00  0.00    +0.000 C 
ATOM      6  C   UNL     1       0.775  13.273  18.535  0.00  0.00    +0.000 C 
ATOM      7  C   UNL     1       1.444  13.328  19.915  0.00  0.00    +0.000 C 
ATOM      8  C   UNL     1       1.207  12.107  20.801  0.00  0.00    +0.000 C 
ATOM      9  C   UNL     1      -0.268  11.862  21.096  0.00  0.00    +0.000 C 
ATOM     10  C   UNL     1      -0.903  11.181  19.895  0.00  0.00    +0.000 C 
ATOM     11  N   UNL     1      -0.882   9.885  19.737  0.00  0.00    +0.000 NA
ATOM     12  N   UNL     1      -1.822  11.449  17.503  0.00  0.00    +0.000 NA
ATOM     13  C   UNL     1      -3.235  10.965  17.579  0.00  0.00    +0.000 C 
ATOM     14  C   UNL     1      -3.412   9.493  17.996  0.00  0.00    +0.000 C 
ATOM     15  C   UNL     1      -3.850  11.179  16.191  0.00  0.00    +0.000 C 
ENDROOT
BRANCH   1  20
ATOM     16  C   UNL     1      -7.917  11.025  21.104  0.00  0.00    +0.000 C 
ATOM     17  C   UNL     1      -7.139  11.623  20.005  0.00  0.00    +0.000 A 
ATOM     18  C   UNL     1      -7.457  12.482  18.977  0.00  0.00    +0.000 A 
ATOM     19  C   UNL     1      -6.253  12.721  18.277  0.00  0.00    +0.000 A 
ATOM     20  C   UNL     1      -5.265  11.989  18.909  0.00  0.00    +0.000 A 
ATOM     21  O   UNL     1      -5.814  11.313  19.960  0.00  0.00    +0.000 OA
ENDBRANCH   1  20
BRANCH  11  22
ATOM     22  O   UNL     1      -0.249   9.223  20.789  0.00  0.00    +0.000 OA
ATOM     23  H   UNL     1       0.546   9.774  20.934  0.00  0.00    +0.000 HD
ENDBRANCH  11  22
BRANCH  12  24
ATOM     24  O   UNL     1      -0.930  10.398  17.082  0.00  0.00    +0.000 OA
ATOM     25  H   UNL     1      -1.487   9.744  16.631  0.00  0.00    +0.000 HD
ENDBRANCH  12  24
TORSDOF 3
ENDMDL
MODEL 8
REMARK VINA RESULT:      -6.6     10.586     12.444
REMARK  Name = 
REMARK  6 active torsions:
REMARK  status: ('A' for Active; 'I' for Inactive)
REMARK    1  A    between atoms: C_1  and  C_2
REMARK    2  A    between atoms: C_5  and  C_6
REMARK    3  A    between atoms: N_16  and  O_17
REMARK    4  A    between atoms: N_18  and  O_19
REMARK    5  A    between atoms: C_20  and  C_21
REMARK    6  A    between atoms: C_20  and  C_22
REMARK                            x       y       z     vdW  Elec       q    Type
REMARK                         _______ _______ _______ _____ _____    ______ ____
ROOT
ATOM      1  C   UNL     1      -2.953  12.351  19.530  0.00  0.00    +0.000 C 
ATOM      2  N   UNL     1      -4.160  12.691  19.927  0.00  0.00    +0.000 N 
ATOM      3  O   UNL     1      -5.234  12.235  19.409  0.00  0.00    +0.000 OA
ATOM      4  C   UNL     1      -4.162  13.675  21.036  0.00  0.00    +0.000 C 
ATOM      5  C   UNL     1      -5.094  14.842  20.636  0.00  0.00    +0.000 C 
ATOM      6  C   UNL     1      -5.621  15.701  21.792  0.00  0.00    +0.000 C 
ATOM      7  C   UNL     1      -6.894  15.144  22.441  0.00  0.00    +0.000 C 
ATOM      8  C   UNL     1      -6.703  13.869  23.261  0.00  0.00    +0.000 C 
ATOM      9  C   UNL     1      -6.148  12.711  22.440  0.00  0.00    +0.000 C 
ATOM     10  C   UNL     1      -4.649  12.898  22.279  0.00  0.00    +0.000 C 
ATOM     11  N   UNL     1      -3.793  12.471  23.167  0.00  0.00    +0.000 NA
ATOM     12  N   UNL     1      -2.752  14.155  21.071  0.00  0.00    +0.000 NA
ATOM     13  C   UNL     1      -1.932  13.085  20.425  0.00  0.00    +0.000 C 
ATOM     14  C   UNL     1      -1.292  12.066  21.388  0.00  0.00    +0.000 C 
ATOM     15  C   UNL     1      -0.831  13.793  19.627  0.00  0.00    +0.000 C 
ENDROOT
BRANCH   1  20
ATOM     16  C   UNL     1      -3.091  10.596  15.054  0.00  0.00    +0.000 C 
ATOM     17  C   UNL     1      -2.646  10.594  16.458  0.00  0.00    +0.000 A 
ATOM     18  C   UNL     1      -1.766   9.811  17.171  0.00  0.00    +0.000 A 
ATOM     19  C   UNL     1      -1.736  10.346  18.479  0.00  0.00    +0.000 A 
ATOM     20  C   UNL     1      -2.605  11.420  18.497  0.00  0.00    +0.000 A 
ATOM     21  O   UNL     1      -3.165  11.562  17.260  0.00  0.00    +0.000 OA
ENDBRANCH   1  20
BRANCH  11  22
ATOM     22  O   UNL     1      -4.406  11.818  24.237  0.00  0.00    +0.000 OA
ATOM     23  H   UNL     1      -4.031  12.285  25.009  0.00  0.00    +0.000 HD
ENDBRANCH  11  22
BRANCH  12  24
ATOM     24  O   UNL     1      -2.220  14.517  22.360  0.00  0.00    +0.000 OA
ATOM     25  H   UNL     1      -2.415  13.768  22.945  0.00  0.00    +0.000 HD
ENDBRANCH  12  24
TORSDOF 3
ENDMDL
MODEL 9
REMARK VINA RESULT:      -6.6      9.913     12.643
REMARK  Name = 
REMARK  6 active torsions:
REMARK  status: ('A' for Active; 'I' for Inactive)
REMARK    1  A    between atoms: C_1  and  C_2
REMARK    2  A    between atoms: C_5  and  C_6
REMARK    3  A    between atoms: N_16  and  O_17
REMARK    4  A    between atoms: N_18  and  O_19
REMARK    5  A    between atoms: C_20  and  C_21
REMARK    6  A    between atoms: C_20  and  C_22
REMARK                            x       y       z     vdW  Elec       q    Type
REMARK                         _______ _______ _______ _____ _____    ______ ____
ROOT
ATOM      1  C   UNL     1       8.792  13.613  21.772  0.00  0.00    +0.000 C 
ATOM      2  N   UNL     1       9.715  13.185  20.939  0.00  0.00    +0.000 N 
ATOM      3  O   UNL     1      10.350  12.086  21.083  0.00  0.00    +0.000 OA
ATOM      4  C   UNL     1       9.967  14.112  19.809  0.00  0.00    +0.000 C 
ATOM      5  C   UNL     1      11.491  14.365  19.731  0.00  0.00    +0.000 C 
ATOM      6  C   UNL     1      12.013  14.878  18.384  0.00  0.00    +0.000 C 
ATOM      7  C   UNL     1      12.331  13.759  17.382  0.00  0.00    +0.000 C 
ATOM      8  C   UNL     1      11.115  13.028  16.817  0.00  0.00    +0.000 C 
ATOM      9  C   UNL     1      10.270  12.356  17.893  0.00  0.00    +0.000 C 
ATOM     10  C   UNL     1       9.397  13.406  18.559  0.00  0.00    +0.000 C 
ATOM     11  N   UNL     1       8.232  13.749  18.082  0.00  0.00    +0.000 NA
ATOM     12  N   UNL     1       9.277  15.362  20.231  0.00  0.00    +0.000 NA
ATOM     13  C   UNL     1       8.244  14.950  21.231  0.00  0.00    +0.000 C 
ATOM     14  C   UNL     1       6.829  14.717  20.667  0.00  0.00    +0.000 C 
ATOM     15  C   UNL     1       8.192  16.053  22.294  0.00  0.00    +0.000 C 
ENDROOT
BRANCH   1  20
ATOM     16  C   UNL     1       8.121  13.148  26.512  0.00  0.00    +0.000 C 
ATOM     17  C   UNL     1       7.982  12.713  25.112  0.00  0.00    +0.000 A 
ATOM     18  C   UNL     1       7.333  11.660  24.507  0.00  0.00    +0.000 A 
ATOM     19  C   UNL     1       7.537  11.818  23.118  0.00  0.00    +0.000 A 
ATOM     20  C   UNL     1       8.307  12.954  22.948  0.00  0.00    +0.000 A 
ATOM     21  O   UNL     1       8.582  13.492  24.172  0.00  0.00    +0.000 OA
ENDBRANCH   1  20
BRANCH  11  22
ATOM     22  O   UNL     1       7.887  13.033  16.935  0.00  0.00    +0.000 OA
ATOM     23  H   UNL     1       6.912  12.991  17.001  0.00  0.00    +0.000 HD
ENDBRANCH  11  22
BRANCH  12  24
ATOM     24  O   UNL     1       8.701  16.172  19.187  0.00  0.00    +0.000 OA
ATOM     25  H   UNL     1       9.294  16.932  19.086  0.00  0.00    +0.000 HD
ENDBRANCH  12  24
TORSDOF 3
ENDMDL
