MODEL 1
REMARK VINA RESULT:      -8.4      0.000      0.000
REMARK  Name = 
REMARK  8 active torsions:
REMARK  status: ('A' for Active; 'I' for Inactive)
REMARK    1  A    between atoms: C_1  and  C_2
REMARK    2  A    between atoms: C_2  and  C_3
REMARK    3  A    between atoms: C_2  and  N_4
REMARK    4  A    between atoms: N_4  and  C_5
REMARK    5  A    between atoms: C_10  and  N_11
REMARK    6  A    between atoms: C_14  and  C_15
REMARK    7  A    between atoms: C_15  and  C_17
REMARK    8  A    between atoms: N_28  and  C_29
REMARK                            x       y       z     vdW  Elec       q    Type
REMARK                         _______ _______ _______ _____ _____    ______ ____
ROOT
ATOM      1  C   UNL     1       1.997   6.281  20.476  0.00  0.00    +0.000 A 
ATOM      2  N   UNL     1       1.158   6.969  21.280  0.00  0.00    +0.000 NA
ATOM      3  C   UNL     1       0.887   8.249  20.949  0.00  0.00    +0.000 A 
ATOM      4  C   UNL     1       1.413   8.845  19.809  0.00  0.00    +0.000 A 
ATOM      5  N   UNL     1       2.264   8.175  18.982  0.00  0.00    +0.000 NA
ATOM      6  C   UNL     1       2.558   6.877  19.296  0.00  0.00    +0.000 A 
ATOM      7  C   UNL     1       1.092  10.303  19.514  0.00  0.00    +0.000 C 
ATOM      8  N   UNL     1      -0.088  10.820  20.251  0.00  0.00    +0.000 NA
ATOM      9  C   UNL     1      -0.253  12.257  20.057  0.00  0.00    +0.000 C 
ATOM     10  C   UNL     1       0.040  10.499  21.679  0.00  0.00    +0.000 C 
ATOM     11  C   UNL     1      -0.033   8.987  21.873  0.00  0.00    +0.000 C 
ENDROOT
BRANCH   6  12
ATOM     12  N   UNL     1       3.379   6.178  18.414  0.00  0.00    +0.000 N 
ATOM     13  C   UNL     1       4.315   5.191  18.939  0.00  0.00    +0.000 C 
ATOM     14  C   UNL     1       5.741   5.533  18.507  0.00  0.00    +0.000 C 
ATOM     15  C   UNL     1       5.853   5.715  16.986  0.00  0.00    +0.000 C 
ATOM     16  C   UNL     1       4.871   6.795  16.545  0.00  0.00    +0.000 C 
ATOM     17  C   UNL     1       3.449   6.513  16.997  0.00  0.00    +0.000 C 
BRANCH  15  18
ATOM     18  C   UNL     1       5.658   4.411  16.189  0.00  0.00    +0.000 C 
ATOM     19  O   UNL     1       5.205   3.388  16.687  0.00  0.00    +0.000 OA
BRANCH  18  20
ATOM     20  C   UNL     1       6.046   4.365  14.755  0.00  0.00    +0.000 A 
ATOM     21  C   UNL     1       5.190   3.753  13.830  0.00  0.00    +0.000 A 
ATOM     22  C   UNL     1       5.586   3.639  12.495  0.00  0.00    +0.000 A 
ATOM     23 CL   UNL     1       4.580   2.818  11.366  0.00  0.00    +0.000 Cl
ATOM     24  C   UNL     1       6.804   4.164  12.064  0.00  0.00    +0.000 A 
ATOM     25  C   UNL     1       7.623   4.830  12.974  0.00  0.00    +0.000 A 
ATOM     26  C   UNL     1       7.241   4.928  14.307  0.00  0.00    +0.000 A 
ATOM     27  F   UNL     1       8.057   5.594  15.128  0.00  0.00    +0.000 F 
ENDBRANCH  18  20
ENDBRANCH  15  18
ENDBRANCH   6  12
BRANCH   1  28
ATOM     28  N   UNL     1       2.425   5.030  20.958  0.00  0.00    +0.000 N 
ATOM     29  H   UNL     1       3.273   4.739  20.507  0.00  0.00    +0.000 HD
BRANCH  28  31
ATOM     30  C   UNL     1       1.037   3.592  19.575  0.00  0.00    +0.000 C 
ATOM     31  C   UNL     1       1.411   3.979  21.010  0.00  0.00    +0.000 C 
ATOM     32  C   UNL     1       1.976   2.764  21.738  0.00  0.00    +0.000 C 
ENDBRANCH  28  31
ENDBRANCH   1  28
TORSDOF 5
ENDMDL
MODEL 2
REMARK VINA RESULT:      -8.1      0.870      1.331
REMARK  Name = 
REMARK  8 active torsions:
REMARK  status: ('A' for Active; 'I' for Inactive)
REMARK    1  A    between atoms: C_1  and  C_2
REMARK    2  A    between atoms: C_2  and  C_3
REMARK    3  A    between atoms: C_2  and  N_4
REMARK    4  A    between atoms: N_4  and  C_5
REMARK    5  A    between atoms: C_10  and  N_11
REMARK    6  A    between atoms: C_14  and  C_15
REMARK    7  A    between atoms: C_15  and  C_17
REMARK    8  A    between atoms: N_28  and  C_29
REMARK                            x       y       z     vdW  Elec       q    Type
REMARK                         _______ _______ _______ _____ _____    ______ ____
ROOT
ATOM      1  C   UNL     1       2.142   6.197  20.484  0.00  0.00    +0.000 A 
ATOM      2  N   UNL     1       1.158   6.881  21.107  0.00  0.00    +0.000 NA
ATOM      3  C   UNL     1       0.874   8.118  20.650  0.00  0.00    +0.000 A 
ATOM      4  C   UNL     1       1.530   8.673  19.558  0.00  0.00    +0.000 A 
ATOM      5  N   UNL     1       2.527   8.005  18.913  0.00  0.00    +0.000 NA
ATOM      6  C   UNL     1       2.838   6.750  19.357  0.00  0.00    +0.000 A 
ATOM      7  C   UNL     1       1.182  10.087  19.116  0.00  0.00    +0.000 C 
ATOM      8  N   UNL     1      -0.119  10.576  19.637  0.00  0.00    +0.000 NA
ATOM      9  C   UNL     1      -0.327  11.985  19.320  0.00  0.00    +0.000 C 
ATOM     10  C   UNL     1      -0.187  10.354  21.089  0.00  0.00    +0.000 C 
ATOM     11  C   UNL     1      -0.209   8.856  21.377  0.00  0.00    +0.000 C 
ENDROOT
BRANCH   6  12
ATOM     12  N   UNL     1       3.817   6.049  18.655  0.00  0.00    +0.000 N 
ATOM     13  C   UNL     1       3.804   6.070  17.197  0.00  0.00    +0.000 C 
ATOM     14  C   UNL     1       3.732   4.645  16.649  0.00  0.00    +0.000 C 
ATOM     15  C   UNL     1       4.840   3.751  17.225  0.00  0.00    +0.000 C 
ATOM     16  C   UNL     1       4.740   3.761  18.747  0.00  0.00    +0.000 C 
ATOM     17  C   UNL     1       4.761   5.164  19.326  0.00  0.00    +0.000 C 
BRANCH  15  18
ATOM     18  C   UNL     1       6.254   4.130  16.746  0.00  0.00    +0.000 C 
ATOM     19  O   UNL     1       7.191   4.306  17.514  0.00  0.00    +0.000 OA
BRANCH  18  20
ATOM     20  C   UNL     1       6.510   4.309  15.294  0.00  0.00    +0.000 A 
ATOM     21  C   UNL     1       5.889   3.454  14.374  0.00  0.00    +0.000 A 
ATOM     22  C   UNL     1       6.188   3.569  13.014  0.00  0.00    +0.000 A 
ATOM     23 CL   UNL     1       5.495   2.472  11.884  0.00  0.00    +0.000 Cl
ATOM     24  C   UNL     1       7.063   4.554  12.556  0.00  0.00    +0.000 A 
ATOM     25  C   UNL     1       7.628   5.445  13.467  0.00  0.00    +0.000 A 
ATOM     26  C   UNL     1       7.349   5.320  14.823  0.00  0.00    +0.000 A 
ATOM     27  F   UNL     1       7.903   6.215  15.645  0.00  0.00    +0.000 F 
ENDBRANCH  18  20
ENDBRANCH  15  18
ENDBRANCH   6  12
BRANCH   1  28
ATOM     28  N   UNL     1       2.557   5.007  21.110  0.00  0.00    +0.000 N 
ATOM     29  H   UNL     1       3.475   4.739  20.805  0.00  0.00    +0.000 HD
BRANCH  28  31
ATOM     30  C   UNL     1       1.128   3.689  19.652  0.00  0.00    +0.000 C 
ATOM     31  C   UNL     1       1.601   3.902  21.094  0.00  0.00    +0.000 C 
ATOM     32  C   UNL     1       2.280   2.636  21.603  0.00  0.00    +0.000 C 
ENDBRANCH  28  31
ENDBRANCH   1  28
TORSDOF 5
ENDMDL
MODEL 3
REMARK VINA RESULT:      -7.8      1.559      1.803
REMARK  Name = 
REMARK  8 active torsions:
REMARK  status: ('A' for Active; 'I' for Inactive)
REMARK    1  A    between atoms: C_1  and  C_2
REMARK    2  A    between atoms: C_2  and  C_3
REMARK    3  A    between atoms: C_2  and  N_4
REMARK    4  A    between atoms: N_4  and  C_5
REMARK    5  A    between atoms: C_10  and  N_11
REMARK    6  A    between atoms: C_14  and  C_15
REMARK    7  A    between atoms: C_15  and  C_17
REMARK    8  A    between atoms: N_28  and  C_29
REMARK                            x       y       z     vdW  Elec       q    Type
REMARK                         _______ _______ _______ _____ _____    ______ ____
ROOT
ATOM      1  C   UNL     1       2.658   5.571  20.060  0.00  0.00    +0.000 A 
ATOM      2  N   UNL     1       1.573   6.007  20.736  0.00  0.00    +0.000 NA
ATOM      3  C   UNL     1       1.175   7.278  20.522  0.00  0.00    +0.000 A 
ATOM      4  C   UNL     1       1.819   8.113  19.618  0.00  0.00    +0.000 A 
ATOM      5  N   UNL     1       2.917   7.700  18.925  0.00  0.00    +0.000 NA
ATOM      6  C   UNL     1       3.345   6.417  19.125  0.00  0.00    +0.000 A 
ATOM      7  C   UNL     1       1.337   9.547  19.451  0.00  0.00    +0.000 C 
ATOM      8  N   UNL     1      -0.036   9.783  19.964  0.00  0.00    +0.000 NA
ATOM      9  C   UNL     1      -0.386  11.199  19.927  0.00  0.00    +0.000 C 
ATOM     10  C   UNL     1      -0.153   9.253  21.330  0.00  0.00    +0.000 C 
ATOM     11  C   UNL     1      -0.021   7.733  21.303  0.00  0.00    +0.000 C 
ENDROOT
BRANCH   6  12
ATOM     12  N   UNL     1       4.430   5.981  18.368  0.00  0.00    +0.000 N 
ATOM     13  C   UNL     1       5.641   5.533  19.045  0.00  0.00    +0.000 C 
ATOM     14  C   UNL     1       6.845   6.345  18.569  0.00  0.00    +0.000 C 
ATOM     15  C   UNL     1       6.976   6.334  17.039  0.00  0.00    +0.000 C 
ATOM     16  C   UNL     1       5.682   6.860  16.429  0.00  0.00    +0.000 C 
ATOM     17  C   UNL     1       4.457   6.107  16.916  0.00  0.00    +0.000 C 
BRANCH  15  18
ATOM     18  C   UNL     1       7.359   4.959  16.459  0.00  0.00    +0.000 C 
ATOM     19  O   UNL     1       7.995   4.125  17.091  0.00  0.00    +0.000 OA
BRANCH  18  20
ATOM     20  C   UNL     1       6.964   4.616  15.069  0.00  0.00    +0.000 A 
ATOM     21  C   UNL     1       7.606   5.247  13.995  0.00  0.00    +0.000 A 
ATOM     22  C   UNL     1       7.185   4.986  12.689  0.00  0.00    +0.000 A 
ATOM     23 CL   UNL     1       7.910   5.815  11.367  0.00  0.00    +0.000 Cl
ATOM     24  C   UNL     1       6.161   4.071  12.439  0.00  0.00    +0.000 A 
ATOM     25  C   UNL     1       5.570   3.397  13.505  0.00  0.00    +0.000 A 
ATOM     26  C   UNL     1       5.974   3.670  14.807  0.00  0.00    +0.000 A 
ATOM     27  F   UNL     1       5.385   2.978  15.785  0.00  0.00    +0.000 F 
ENDBRANCH  18  20
ENDBRANCH  15  18
ENDBRANCH   6  12
BRANCH   1  28
ATOM     28  N   UNL     1       3.173   4.323  20.459  0.00  0.00    +0.000 N 
ATOM     29  H   UNL     1       4.109   4.194  20.122  0.00  0.00    +0.000 HD
BRANCH  28  31
ATOM     30  C   UNL     1       3.043   2.197  19.289  0.00  0.00    +0.000 C 
ATOM     31  C   UNL     1       2.312   3.167  20.223  0.00  0.00    +0.000 C 
ATOM     32  C   UNL     1       2.017   2.475  21.550  0.00  0.00    +0.000 C 
ENDBRANCH  28  31
ENDBRANCH   1  28
TORSDOF 5
ENDMDL
MODEL 4
REMARK VINA RESULT:      -7.6      1.298      1.483
REMARK  Name = 
REMARK  8 active torsions:
REMARK  status: ('A' for Active; 'I' for Inactive)
REMARK    1  A    between atoms: C_1  and  C_2
REMARK    2  A    between atoms: C_2  and  C_3
REMARK    3  A    between atoms: C_2  and  N_4
REMARK    4  A    between atoms: N_4  and  C_5
REMARK    5  A    between atoms: C_10  and  N_11
REMARK    6  A    between atoms: C_14  and  C_15
REMARK    7  A    between atoms: C_15  and  C_17
REMARK    8  A    between atoms: N_28  and  C_29
REMARK                            x       y       z     vdW  Elec       q    Type
REMARK                         _______ _______ _______ _____ _____    ______ ____
ROOT
ATOM      1  C   UNL     1       2.818   5.341  19.734  0.00  0.00    +0.000 A 
ATOM      2  N   UNL     1       1.797   5.743  20.522  0.00  0.00    +0.000 NA
ATOM      3  C   UNL     1       1.413   7.033  20.433  0.00  0.00    +0.000 A 
ATOM      4  C   UNL     1       2.006   7.923  19.545  0.00  0.00    +0.000 A 
ATOM      5  N   UNL     1       3.039   7.544  18.741  0.00  0.00    +0.000 NA
ATOM      6  C   UNL     1       3.451   6.243  18.813  0.00  0.00    +0.000 A 
ATOM      7  C   UNL     1       1.545   9.373  19.521  0.00  0.00    +0.000 C 
ATOM      8  N   UNL     1       0.220   9.593  20.154  0.00  0.00    +0.000 NA
ATOM      9  C   UNL     1      -0.099  11.014  20.248  0.00  0.00    +0.000 C 
ATOM     10  C   UNL     1       0.195   8.965  21.483  0.00  0.00    +0.000 C 
ATOM     11  C   UNL     1       0.290   7.450  21.335  0.00  0.00    +0.000 C 
ENDROOT
BRANCH   6  12
ATOM     12  N   UNL     1       4.466   5.846  17.945  0.00  0.00    +0.000 N 
ATOM     13  C   UNL     1       5.769   5.483  18.487  0.00  0.00    +0.000 C 
ATOM     14  C   UNL     1       6.863   6.346  17.858  0.00  0.00    +0.000 C 
ATOM     15  C   UNL     1       6.819   6.301  16.324  0.00  0.00    +0.000 C 
ATOM     16  C   UNL     1       5.435   6.739  15.857  0.00  0.00    +0.000 C 
ATOM     17  C   UNL     1       4.319   5.934  16.497  0.00  0.00    +0.000 C 
BRANCH  15  18
ATOM     18  C   UNL     1       7.212   4.934  15.732  0.00  0.00    +0.000 C 
ATOM     19  O   UNL     1       7.646   4.014  16.414  0.00  0.00    +0.000 OA
BRANCH  18  20
ATOM     20  C   UNL     1       7.079   4.704  14.270  0.00  0.00    +0.000 A 
ATOM     21  C   UNL     1       6.051   3.880  13.793  0.00  0.00    +0.000 A 
ATOM     22  C   UNL     1       5.971   3.599  12.427  0.00  0.00    +0.000 A 
ATOM     23 CL   UNL     1       4.764   2.524  11.838  0.00  0.00    +0.000 Cl
ATOM     24  C   UNL     1       6.875   4.164  11.527  0.00  0.00    +0.000 A 
ATOM     25  C   UNL     1       7.855   5.036  11.998  0.00  0.00    +0.000 A 
ATOM     26  C   UNL     1       7.950   5.301  13.359  0.00  0.00    +0.000 A 
ATOM     27  F   UNL     1       8.896   6.160  13.748  0.00  0.00    +0.000 F 
ENDBRANCH  18  20
ENDBRANCH  15  18
ENDBRANCH   6  12
BRANCH   1  28
ATOM     28  N   UNL     1       3.333   4.058  19.999  0.00  0.00    +0.000 N 
ATOM     29  H   UNL     1       4.313   4.011  19.789  0.00  0.00    +0.000 HD
BRANCH  28  31
ATOM     30  C   UNL     1       1.820   3.413  18.210  0.00  0.00    +0.000 C 
ATOM     31  C   UNL     1       2.573   2.934  19.456  0.00  0.00    +0.000 C 
ATOM     32  C   UNL     1       3.532   1.811  19.075  0.00  0.00    +0.000 C 
ENDBRANCH  28  31
ENDBRANCH   1  28
TORSDOF 5
ENDMDL
MODEL 5
REMARK VINA RESULT:      -7.4      4.107      8.439
REMARK  Name = 
REMARK  8 active torsions:
REMARK  status: ('A' for Active; 'I' for Inactive)
REMARK    1  A    between atoms: C_1  and  C_2
REMARK    2  A    between atoms: C_2  and  C_3
REMARK    3  A    between atoms: C_2  and  N_4
REMARK    4  A    between atoms: N_4  and  C_5
REMARK    5  A    between atoms: C_10  and  N_11
REMARK    6  A    between atoms: C_14  and  C_15
REMARK    7  A    between atoms: C_15  and  C_17
REMARK    8  A    between atoms: N_28  and  C_29
REMARK                            x       y       z     vdW  Elec       q    Type
REMARK                         _______ _______ _______ _____ _____    ______ ____
ROOT
ATOM      1  C   UNL     1       2.912   5.463  18.821  0.00  0.00    +0.000 A 
ATOM      2  N   UNL     1       3.569   4.420  18.267  0.00  0.00    +0.000 NA
ATOM      3  C   UNL     1       4.406   4.685  17.242  0.00  0.00    +0.000 A 
ATOM      4  C   UNL     1       4.626   5.977  16.782  0.00  0.00    +0.000 A 
ATOM      5  N   UNL     1       3.975   7.046  17.320  0.00  0.00    +0.000 NA
ATOM      6  C   UNL     1       3.118   6.806  18.358  0.00  0.00    +0.000 A 
ATOM      7  C   UNL     1       5.558   6.199  15.600  0.00  0.00    +0.000 C 
ATOM      8  N   UNL     1       6.464   5.056  15.325  0.00  0.00    +0.000 NA
ATOM      9  C   UNL     1       7.218   5.254  14.092  0.00  0.00    +0.000 C 
ATOM     10  C   UNL     1       5.685   3.810  15.264  0.00  0.00    +0.000 C 
ATOM     11  C   UNL     1       5.103   3.503  16.640  0.00  0.00    +0.000 C 
ENDROOT
BRANCH   6  12
ATOM     12  N   UNL     1       2.502   7.910  18.944  0.00  0.00    +0.000 N 
ATOM     13  C   UNL     1       2.076   7.836  20.337  0.00  0.00    +0.000 C 
ATOM     14  C   UNL     1       0.581   8.132  20.448  0.00  0.00    +0.000 C 
ATOM     15  C   UNL     1       0.207   9.463  19.778  0.00  0.00    +0.000 C 
ATOM     16  C   UNL     1       0.653   9.424  18.320  0.00  0.00    +0.000 C 
ATOM     17  C   UNL     1       2.125   9.085  18.168  0.00  0.00    +0.000 C 
BRANCH  15  18
ATOM     18  C   UNL     1       0.761  10.701  20.508  0.00  0.00    +0.000 C 
ATOM     19  O   UNL     1       1.263  10.647  21.623  0.00  0.00    +0.000 OA
BRANCH  18  20
ATOM     20  C   UNL     1       0.678  12.033  19.854  0.00  0.00    +0.000 A 
ATOM     21  C   UNL     1       1.839  12.614  19.326  0.00  0.00    +0.000 A 
ATOM     22  C   UNL     1       1.780  13.899  18.781  0.00  0.00    +0.000 A 
ATOM     23 CL   UNL     1       3.213  14.656  18.203  0.00  0.00    +0.000 Cl
ATOM     24  C   UNL     1       0.572  14.593  18.716  0.00  0.00    +0.000 A 
ATOM     25  C   UNL     1      -0.593  13.985  19.183  0.00  0.00    +0.000 A 
ATOM     26  C   UNL     1      -0.534  12.715  19.744  0.00  0.00    +0.000 A 
ATOM     27  F   UNL     1      -1.684  12.176  20.155  0.00  0.00    +0.000 F 
ENDBRANCH  18  20
ENDBRANCH  15  18
ENDBRANCH   6  12
BRANCH   1  28
ATOM     28  N   UNL     1       1.895   5.134  19.737  0.00  0.00    +0.000 N 
ATOM     29  H   UNL     1       1.865   5.792  20.494  0.00  0.00    +0.000 HD
BRANCH  28  31
ATOM     30  C   UNL     1       2.130   3.704  21.687  0.00  0.00    +0.000 C 
ATOM     31  C   UNL     1       1.853   3.743  20.181  0.00  0.00    +0.000 C 
ATOM     32  C   UNL     1       0.472   3.162  19.899  0.00  0.00    +0.000 C 
ENDBRANCH  28  31
ENDBRANCH   1  28
TORSDOF 5
ENDMDL
MODEL 6
REMARK VINA RESULT:      -7.4      2.563      3.281
REMARK  Name = 
REMARK  8 active torsions:
REMARK  status: ('A' for Active; 'I' for Inactive)
REMARK    1  A    between atoms: C_1  and  C_2
REMARK    2  A    between atoms: C_2  and  C_3
REMARK    3  A    between atoms: C_2  and  N_4
REMARK    4  A    between atoms: N_4  and  C_5
REMARK    5  A    between atoms: C_10  and  N_11
REMARK    6  A    between atoms: C_14  and  C_15
REMARK    7  A    between atoms: C_15  and  C_17
REMARK    8  A    between atoms: N_28  and  C_29
REMARK                            x       y       z     vdW  Elec       q    Type
REMARK                         _______ _______ _______ _____ _____    ______ ____
ROOT
ATOM      1  C   UNL     1       1.847   6.142  20.732  0.00  0.00    +0.000 A 
ATOM      2  N   UNL     1       0.938   6.850  21.438  0.00  0.00    +0.000 NA
ATOM      3  C   UNL     1       0.676   8.109  21.028  0.00  0.00    +0.000 A 
ATOM      4  C   UNL     1       1.277   8.662  19.905  0.00  0.00    +0.000 A 
ATOM      5  N   UNL     1       2.198   7.971  19.177  0.00  0.00    +0.000 NA
ATOM      6  C   UNL     1       2.486   6.694  19.571  0.00  0.00    +0.000 A 
ATOM      7  C   UNL     1       0.959  10.099  19.519  0.00  0.00    +0.000 C 
ATOM      8  N   UNL     1      -0.281  10.628  20.140  0.00  0.00    +0.000 NA
ATOM      9  C   UNL     1      -0.452  12.051  19.868  0.00  0.00    +0.000 C 
ATOM     10  C   UNL     1      -0.258  10.374  21.588  0.00  0.00    +0.000 C 
ATOM     11  C   UNL     1      -0.323   8.871  21.845  0.00  0.00    +0.000 C 
ENDROOT
BRANCH   6  12
ATOM     12  N   UNL     1       3.383   5.971  18.787  0.00  0.00    +0.000 N 
ATOM     13  C   UNL     1       3.145   5.852  17.354  0.00  0.00    +0.000 C 
ATOM     14  C   UNL     1       3.071   4.380  16.950  0.00  0.00    +0.000 C 
ATOM     15  C   UNL     1       4.303   3.592  17.420  0.00  0.00    +0.000 C 
ATOM     16  C   UNL     1       4.438   3.743  18.931  0.00  0.00    +0.000 C 
ATOM     17  C   UNL     1       4.468   5.194  19.374  0.00  0.00    +0.000 C 
BRANCH  15  18
ATOM     18  C   UNL     1       5.603   3.983  16.692  0.00  0.00    +0.000 C 
ATOM     19  O   UNL     1       5.950   3.478  15.632  0.00  0.00    +0.000 OA
BRANCH  18  20
ATOM     20  C   UNL     1       6.498   5.006  17.292  0.00  0.00    +0.000 A 
ATOM     21  C   UNL     1       7.293   4.664  18.394  0.00  0.00    +0.000 A 
ATOM     22  C   UNL     1       8.077   5.643  19.010  0.00  0.00    +0.000 A 
ATOM     23 CL   UNL     1       8.995   5.254  20.412  0.00  0.00    +0.000 Cl
ATOM     24  C   UNL     1       8.110   6.946  18.515  0.00  0.00    +0.000 A 
ATOM     25  C   UNL     1       7.368   7.267  17.379  0.00  0.00    +0.000 A 
ATOM     26  C   UNL     1       6.572   6.300  16.776  0.00  0.00    +0.000 A 
ATOM     27  F   UNL     1       5.900   6.660  15.680  0.00  0.00    +0.000 F 
ENDBRANCH  18  20
ENDBRANCH  15  18
ENDBRANCH   6  12
BRANCH   1  28
ATOM     28  N   UNL     1       2.254   4.921  21.302  0.00  0.00    +0.000 N 
ATOM     29  H   UNL     1       3.181   4.675  21.005  0.00  0.00    +0.000 HD
BRANCH  28  31
ATOM     30  C   UNL     1       0.867   3.678  19.741  0.00  0.00    +0.000 C 
ATOM     31  C   UNL     1       1.305   3.815  21.203  0.00  0.00    +0.000 C 
ATOM     32  C   UNL     1       1.979   2.526  21.659  0.00  0.00    +0.000 C 
ENDBRANCH  28  31
ENDBRANCH   1  28
TORSDOF 5
ENDMDL
MODEL 7
REMARK VINA RESULT:      -7.4      4.028      8.200
REMARK  Name = 
REMARK  8 active torsions:
REMARK  status: ('A' for Active; 'I' for Inactive)
REMARK    1  A    between atoms: C_1  and  C_2
REMARK    2  A    between atoms: C_2  and  C_3
REMARK    3  A    between atoms: C_2  and  N_4
REMARK    4  A    between atoms: N_4  and  C_5
REMARK    5  A    between atoms: C_10  and  N_11
REMARK    6  A    between atoms: C_14  and  C_15
REMARK    7  A    between atoms: C_15  and  C_17
REMARK    8  A    between atoms: N_28  and  C_29
REMARK                            x       y       z     vdW  Elec       q    Type
REMARK                         _______ _______ _______ _____ _____    ______ ____
ROOT
ATOM      1  C   UNL     1       3.630   5.557  19.417  0.00  0.00    +0.000 A 
ATOM      2  N   UNL     1       4.676   4.776  19.068  0.00  0.00    +0.000 NA
ATOM      3  C   UNL     1       5.239   4.992  17.861  0.00  0.00    +0.000 A 
ATOM      4  C   UNL     1       4.800   5.998  17.009  0.00  0.00    +0.000 A 
ATOM      5  N   UNL     1       3.746   6.798  17.336  0.00  0.00    +0.000 NA
ATOM      6  C   UNL     1       3.154   6.599  18.552  0.00  0.00    +0.000 A 
ATOM      7  C   UNL     1       5.459   6.164  15.648  0.00  0.00    +0.000 C 
ATOM      8  N   UNL     1       6.784   5.504  15.537  0.00  0.00    +0.000 NA
ATOM      9  C   UNL     1       7.296   5.556  14.172  0.00  0.00    +0.000 C 
ATOM     10  C   UNL     1       6.686   4.114  16.004  0.00  0.00    +0.000 C 
ATOM     11  C   UNL     1       6.384   4.095  17.499  0.00  0.00    +0.000 C 
ENDROOT
BRANCH   6  12
ATOM     12  N   UNL     1       2.117   7.460  18.905  0.00  0.00    +0.000 N 
ATOM     13  C   UNL     1       1.373   8.150  17.859  0.00  0.00    +0.000 C 
ATOM     14  C   UNL     1       1.435   9.662  18.076  0.00  0.00    +0.000 C 
ATOM     15  C   UNL     1       0.987  10.059  19.490  0.00  0.00    +0.000 C 
ATOM     16  C   UNL     1       1.852   9.321  20.506  0.00  0.00    +0.000 C 
ATOM     17  C   UNL     1       1.853   7.818  20.293  0.00  0.00    +0.000 C 
BRANCH  15  18
ATOM     18  C   UNL     1      -0.514   9.832  19.751  0.00  0.00    +0.000 C 
ATOM     19  O   UNL     1      -0.934   9.185  20.702  0.00  0.00    +0.000 OA
BRANCH  18  20
ATOM     20  C   UNL     1      -1.514  10.402  18.812  0.00  0.00    +0.000 A 
ATOM     21  C   UNL     1      -1.701   9.803  17.559  0.00  0.00    +0.000 A 
ATOM     22  C   UNL     1      -2.582  10.382  16.642  0.00  0.00    +0.000 A 
ATOM     23 CL   UNL     1      -2.760   9.703  15.071  0.00  0.00    +0.000 Cl
ATOM     24  C   UNL     1      -3.312  11.523  16.976  0.00  0.00    +0.000 A 
ATOM     25  C   UNL     1      -3.172  12.078  18.247  0.00  0.00    +0.000 A 
ATOM     26  C   UNL     1      -2.280  11.516  19.154  0.00  0.00    +0.000 A 
ATOM     27  F   UNL     1      -2.205  12.078  20.362  0.00  0.00    +0.000 F 
ENDBRANCH  18  20
ENDBRANCH  15  18
ENDBRANCH   6  12
BRANCH   1  28
ATOM     28  N   UNL     1       2.934   5.172  20.579  0.00  0.00    +0.000 N 
ATOM     29  H   UNL     1       3.491   5.322  21.400  0.00  0.00    +0.000 HD
BRANCH  28  31
ATOM     30  C   UNL     1       2.240   3.308  21.974  0.00  0.00    +0.000 C 
ATOM     31  C   UNL     1       2.302   3.855  20.544  0.00  0.00    +0.000 C 
ATOM     32  C   UNL     1       0.891   3.985  19.983  0.00  0.00    +0.000 C 
ENDBRANCH  28  31
ENDBRANCH   1  28
TORSDOF 5
ENDMDL
MODEL 8
REMARK VINA RESULT:      -7.4      4.116      6.200
REMARK  Name = 
REMARK  8 active torsions:
REMARK  status: ('A' for Active; 'I' for Inactive)
REMARK    1  A    between atoms: C_1  and  C_2
REMARK    2  A    between atoms: C_2  and  C_3
REMARK    3  A    between atoms: C_2  and  N_4
REMARK    4  A    between atoms: N_4  and  C_5
REMARK    5  A    between atoms: C_10  and  N_11
REMARK    6  A    between atoms: C_14  and  C_15
REMARK    7  A    between atoms: C_15  and  C_17
REMARK    8  A    between atoms: N_28  and  C_29
REMARK                            x       y       z     vdW  Elec       q    Type
REMARK                         _______ _______ _______ _____ _____    ______ ____
ROOT
ATOM      1  C   UNL     1      -0.697  11.054  18.550  0.00  0.00    +0.000 A 
ATOM      2  N   UNL     1      -0.915  12.370  18.338  0.00  0.00    +0.000 NA
ATOM      3  C   UNL     1       0.019  13.236  18.784  0.00  0.00    +0.000 A 
ATOM      4  C   UNL     1       1.186  12.810  19.407  0.00  0.00    +0.000 A 
ATOM      5  N   UNL     1       1.430  11.489  19.635  0.00  0.00    +0.000 NA
ATOM      6  C   UNL     1       0.498  10.590  19.196  0.00  0.00    +0.000 A 
ATOM      7  C   UNL     1       2.181  13.843  19.915  0.00  0.00    +0.000 C 
ATOM      8  N   UNL     1       2.004  15.191  19.320  0.00  0.00    +0.000 NA
ATOM      9  C   UNL     1       2.873  16.176  19.956  0.00  0.00    +0.000 C 
ATOM     10  C   UNL     1       0.595  15.597  19.422  0.00  0.00    +0.000 C 
ATOM     11  C   UNL     1      -0.265  14.689  18.549  0.00  0.00    +0.000 C 
ENDROOT
BRANCH   6  12
ATOM     12  N   UNL     1       0.782   9.237  19.378  0.00  0.00    +0.000 N 
ATOM     13  C   UNL     1       0.656   8.652  20.707  0.00  0.00    +0.000 C 
ATOM     14  C   UNL     1       1.979   8.015  21.132  0.00  0.00    +0.000 C 
ATOM     15  C   UNL     1       2.499   7.018  20.085  0.00  0.00    +0.000 C 
ATOM     16  C   UNL     1       2.638   7.735  18.747  0.00  0.00    +0.000 C 
ATOM     17  C   UNL     1       1.355   8.421  18.314  0.00  0.00    +0.000 C 
BRANCH  15  18
ATOM     18  C   UNL     1       1.639   5.746  19.961  0.00  0.00    +0.000 C 
ATOM     19  O   UNL     1       0.500   5.667  20.402  0.00  0.00    +0.000 OA
BRANCH  18  20
ATOM     20  C   UNL     1       2.204   4.544  19.294  0.00  0.00    +0.000 A 
ATOM     21  C   UNL     1       3.068   3.703  20.008  0.00  0.00    +0.000 A 
ATOM     22  C   UNL     1       3.663   2.616  19.362  0.00  0.00    +0.000 A 
ATOM     23 CL   UNL     1       4.788   1.624  20.204  0.00  0.00    +0.000 Cl
ATOM     24  C   UNL     1       3.373   2.334  18.027  0.00  0.00    +0.000 A 
ATOM     25  C   UNL     1       2.463   3.134  17.339  0.00  0.00    +0.000 A 
ATOM     26  C   UNL     1       1.885   4.228  17.974  0.00  0.00    +0.000 A 
ATOM     27  F   UNL     1       1.005   4.946  17.271  0.00  0.00    +0.000 F 
ENDBRANCH  18  20
ENDBRANCH  15  18
ENDBRANCH   6  12
BRANCH   1  28
ATOM     28  N   UNL     1      -1.777  10.197  18.268  0.00  0.00    +0.000 N 
ATOM     29  H   UNL     1      -1.458   9.268  18.063  0.00  0.00    +0.000 HD
BRANCH  28  31
ATOM     30  C   UNL     1      -2.595   9.912  15.997  0.00  0.00    +0.000 C 
ATOM     31  C   UNL     1      -2.758  10.693  17.305  0.00  0.00    +0.000 C 
ATOM     32  C   UNL     1      -4.163  10.479  17.857  0.00  0.00    +0.000 C 
ENDBRANCH  28  31
ENDBRANCH   1  28
TORSDOF 5
ENDMDL
MODEL 9
REMARK VINA RESULT:      -7.3      8.303     10.101
REMARK  Name = 
REMARK  8 active torsions:
REMARK  status: ('A' for Active; 'I' for Inactive)
REMARK    1  A    between atoms: C_1  and  C_2
REMARK    2  A    between atoms: C_2  and  C_3
REMARK    3  A    between atoms: C_2  and  N_4
REMARK    4  A    between atoms: N_4  and  C_5
REMARK    5  A    between atoms: C_10  and  N_11
REMARK    6  A    between atoms: C_14  and  C_15
REMARK    7  A    between atoms: C_15  and  C_17
REMARK    8  A    between atoms: N_28  and  C_29
REMARK                            x       y       z     vdW  Elec       q    Type
REMARK                         _______ _______ _______ _____ _____    ______ ____
ROOT
ATOM      1  C   UNL     1      -3.787  12.410  19.235  0.00  0.00    +0.000 A 
ATOM      2  N   UNL     1      -5.134  12.352  19.309  0.00  0.00    +0.000 NA
ATOM      3  C   UNL     1      -5.701  12.550  20.517  0.00  0.00    +0.000 A 
ATOM      4  C   UNL     1      -4.949  12.841  21.649  0.00  0.00    +0.000 A 
ATOM      5  N   UNL     1      -3.588  12.903  21.603  0.00  0.00    +0.000 NA
ATOM      6  C   UNL     1      -2.987  12.703  20.391  0.00  0.00    +0.000 A 
ATOM      7  C   UNL     1      -5.651  13.020  22.987  0.00  0.00    +0.000 C 
ATOM      8  N   UNL     1      -7.108  13.281  22.870  0.00  0.00    +0.000 NA
ATOM      9  C   UNL     1      -7.758  13.284  24.177  0.00  0.00    +0.000 C 
ATOM     10  C   UNL     1      -7.722  12.279  21.986  0.00  0.00    +0.000 C 
ATOM     11  C   UNL     1      -7.196  12.460  20.565  0.00  0.00    +0.000 C 
ENDROOT
BRANCH   6  12
ATOM     12  N   UNL     1      -1.601  12.828  20.339  0.00  0.00    +0.000 N 
ATOM     13  C   UNL     1      -1.003  13.768  19.399  0.00  0.00    +0.000 C 
ATOM     14  C   UNL     1      -0.024  13.041  18.476  0.00  0.00    +0.000 C 
ATOM     15  C   UNL     1       1.020  12.237  19.264  0.00  0.00    +0.000 C 
ATOM     16  C   UNL     1       0.298  11.256  20.181  0.00  0.00    +0.000 C 
ATOM     17  C   UNL     1      -0.718  11.937  21.082  0.00  0.00    +0.000 C 
BRANCH  15  18
ATOM     18  C   UNL     1       2.019  13.114  20.044  0.00  0.00    +0.000 C 
ATOM     19  O   UNL     1       2.408  12.837  21.171  0.00  0.00    +0.000 OA
BRANCH  18  20
ATOM     20  C   UNL     1       2.532  14.363  19.425  0.00  0.00    +0.000 A 
ATOM     21  C   UNL     1       2.153  15.602  19.959  0.00  0.00    +0.000 A 
ATOM     22  C   UNL     1       2.570  16.779  19.333  0.00  0.00    +0.000 A 
ATOM     23 CL   UNL     1       2.045  18.305  19.931  0.00  0.00    +0.000 Cl
ATOM     24  C   UNL     1       3.395  16.737  18.209  0.00  0.00    +0.000 A 
ATOM     25  C   UNL     1       3.824  15.504  17.720  0.00  0.00    +0.000 A 
ATOM     26  C   UNL     1       3.394  14.330  18.329  0.00  0.00    +0.000 A 
ATOM     27  F   UNL     1       3.854  13.181  17.829  0.00  0.00    +0.000 F 
ENDBRANCH  18  20
ENDBRANCH  15  18
ENDBRANCH   6  12
BRANCH   1  28
ATOM     28  N   UNL     1      -3.218  11.993  18.018  0.00  0.00    +0.000 N 
ATOM     29  H   UNL     1      -3.449  12.626  17.274  0.00  0.00    +0.000 HD
BRANCH  28  31
ATOM     30  C   UNL     1      -3.890  10.519  16.206  0.00  0.00    +0.000 C 
ATOM     31  C   UNL     1      -3.416  10.590  17.661  0.00  0.00    +0.000 C 
ATOM     32  C   UNL     1      -2.098   9.838  17.808  0.00  0.00    +0.000 C 
ENDBRANCH  28  31
ENDBRANCH   1  28
TORSDOF 5
ENDMDL
