MODEL 1
REMARK VINA RESULT:      -7.5      0.000      0.000
REMARK  Name = 
REMARK  2 active torsions:
REMARK  status: ('A' for Active; 'I' for Inactive)
REMARK    1  A    between atoms: C_4  and  S_5
REMARK    2  A    between atoms: S_5  and  N_6
REMARK                            x       y       z     vdW  Elec       q    Type
REMARK                         _______ _______ _______ _____ _____    ______ ____
ROOT
ATOM      1  N   UNL     1       4.485   5.909  18.133  0.00  0.00    +0.000 NA
ATOM      2  C   UNL     1       5.247   4.631  18.132  0.00  0.00    +0.000 C 
ATOM      3  C   UNL     1       5.540   4.078  16.718  0.00  0.00    +0.000 C 
ATOM      4  N   UNL     1       6.246   5.091  15.904  0.00  0.00    +0.000 N 
ATOM      5  C   UNL     1       6.466   4.661  14.570  0.00  0.00    +0.000 A 
ATOM      6  C   UNL     1       7.513   5.252  13.857  0.00  0.00    +0.000 A 
ATOM      7  C   UNL     1       7.722   4.921  12.519  0.00  0.00    +0.000 A 
ATOM      8  C   UNL     1       6.875   4.005  11.917  0.00  0.00    +0.000 A 
ATOM      9  C   UNL     1       5.870   3.450  12.691  0.00  0.00    +0.000 A 
ATOM     10  N   UNL     1       5.658   3.749  13.993  0.00  0.00    +0.000 NA
ATOM     11  C   UNL     1       5.531   6.388  15.881  0.00  0.00    +0.000 C 
ATOM     12  C   UNL     1       5.260   6.878  17.319  0.00  0.00    +0.000 C 
ENDROOT
BRANCH   1  13
ATOM     13  S   UNL     1       2.823   5.870  17.923  0.00  0.00    +0.000 S 
BRANCH  13  17
ATOM     14  C   UNL     1       1.290   2.736  20.917  0.00  0.00    +0.000 A 
ATOM     15  C   UNL     1       1.973   3.853  21.397  0.00  0.00    +0.000 A 
ATOM     16  C   UNL     1       2.449   4.819  20.506  0.00  0.00    +0.000 A 
ATOM     17  C   UNL     1       2.263   4.670  19.127  0.00  0.00    +0.000 A 
ATOM     18  C   UNL     1       1.575   3.543  18.658  0.00  0.00    +0.000 A 
ATOM     19  C   UNL     1       1.089   2.581  19.548  0.00  0.00    +0.000 A 
ENDBRANCH  13  17
ENDBRANCH   1  13
TORSDOF 2
ENDMDL
MODEL 2
REMARK VINA RESULT:      -7.4      0.070      1.108
REMARK  Name = 
REMARK  2 active torsions:
REMARK  status: ('A' for Active; 'I' for Inactive)
REMARK    1  A    between atoms: C_4  and  S_5
REMARK    2  A    between atoms: S_5  and  N_6
REMARK                            x       y       z     vdW  Elec       q    Type
REMARK                         _______ _______ _______ _____ _____    ______ ____
ROOT
ATOM      1  N   UNL     1       4.447   5.896  18.159  0.00  0.00    +0.000 NA
ATOM      2  C   UNL     1       5.166   4.594  18.142  0.00  0.00    +0.000 C 
ATOM      3  C   UNL     1       5.456   4.057  16.720  0.00  0.00    +0.000 C 
ATOM      4  N   UNL     1       6.204   5.061  15.932  0.00  0.00    +0.000 N 
ATOM      5  C   UNL     1       6.423   4.649  14.592  0.00  0.00    +0.000 A 
ATOM      6  C   UNL     1       7.497   5.218  13.902  0.00  0.00    +0.000 A 
ATOM      7  C   UNL     1       7.708   4.904  12.559  0.00  0.00    +0.000 A 
ATOM      8  C   UNL     1       6.838   4.028  11.932  0.00  0.00    +0.000 A 
ATOM      9  C   UNL     1       5.807   3.493  12.686  0.00  0.00    +0.000 A 
ATOM     10  N   UNL     1       5.592   3.775  13.991  0.00  0.00    +0.000 NA
ATOM     11  C   UNL     1       5.533   6.382  15.927  0.00  0.00    +0.000 C 
ATOM     12  C   UNL     1       5.263   6.854  17.371  0.00  0.00    +0.000 C 
ENDROOT
BRANCH   1  13
ATOM     13  S   UNL     1       2.787   5.916  17.932  0.00  0.00    +0.000 S 
BRANCH  13  17
ATOM     14  C   UNL     1       1.319   2.789  20.965  0.00  0.00    +0.000 A 
ATOM     15  C   UNL     1       1.094   2.572  19.606  0.00  0.00    +0.000 A 
ATOM     16  C   UNL     1       1.531   3.509  18.665  0.00  0.00    +0.000 A 
ATOM     17  C   UNL     1       2.180   4.680  19.073  0.00  0.00    +0.000 A 
ATOM     18  C   UNL     1       2.400   4.885  20.442  0.00  0.00    +0.000 A 
ATOM     19  C   UNL     1       1.973   3.945  21.384  0.00  0.00    +0.000 A 
ENDBRANCH  13  17
ENDBRANCH   1  13
TORSDOF 2
ENDMDL
MODEL 3
REMARK VINA RESULT:      -7.0      1.663      7.074
REMARK  Name = 
REMARK  2 active torsions:
REMARK  status: ('A' for Active; 'I' for Inactive)
REMARK    1  A    between atoms: C_4  and  S_5
REMARK    2  A    between atoms: S_5  and  N_6
REMARK                            x       y       z     vdW  Elec       q    Type
REMARK                         _______ _______ _______ _____ _____    ______ ____
ROOT
ATOM      1  N   UNL     1       6.223   5.798  16.946  0.00  0.00    +0.000 NA
ATOM      2  C   UNL     1       4.835   5.868  16.413  0.00  0.00    +0.000 C 
ATOM      3  C   UNL     1       3.836   4.940  17.144  0.00  0.00    +0.000 C 
ATOM      4  N   UNL     1       3.837   5.223  18.596  0.00  0.00    +0.000 N 
ATOM      5  C   UNL     1       2.996   4.342  19.323  0.00  0.00    +0.000 A 
ATOM      6  C   UNL     1       2.512   4.774  20.561  0.00  0.00    +0.000 A 
ATOM      7  C   UNL     1       1.745   3.916  21.349  0.00  0.00    +0.000 A 
ATOM      8  C   UNL     1       1.481   2.639  20.884  0.00  0.00    +0.000 A 
ATOM      9  C   UNL     1       1.982   2.288  19.642  0.00  0.00    +0.000 A 
ATOM     10  N   UNL     1       2.717   3.108  18.857  0.00  0.00    +0.000 NA
ATOM     11  C   UNL     1       5.201   5.176  19.174  0.00  0.00    +0.000 C 
ATOM     12  C   UNL     1       6.148   6.112  18.395  0.00  0.00    +0.000 C 
ENDROOT
BRANCH   1  13
ATOM     13  S   UNL     1       7.218   4.536  16.473  0.00  0.00    +0.000 S 
BRANCH  13  17
ATOM     14  C   UNL     1       6.776   4.344  11.901  0.00  0.00    +0.000 A 
ATOM     15  C   UNL     1       7.680   5.249  12.456  0.00  0.00    +0.000 A 
ATOM     16  C   UNL     1       7.831   5.327  13.844  0.00  0.00    +0.000 A 
ATOM     17  C   UNL     1       7.069   4.513  14.690  0.00  0.00    +0.000 A 
ATOM     18  C   UNL     1       6.165   3.607  14.119  0.00  0.00    +0.000 A 
ATOM     19  C   UNL     1       6.020   3.521  12.731  0.00  0.00    +0.000 A 
ENDBRANCH  13  17
ENDBRANCH   1  13
TORSDOF 2
ENDMDL
MODEL 4
REMARK VINA RESULT:      -6.9      1.673      7.097
REMARK  Name = 
REMARK  2 active torsions:
REMARK  status: ('A' for Active; 'I' for Inactive)
REMARK    1  A    between atoms: C_4  and  S_5
REMARK    2  A    between atoms: S_5  and  N_6
REMARK                            x       y       z     vdW  Elec       q    Type
REMARK                         _______ _______ _______ _____ _____    ______ ____
ROOT
ATOM      1  N   UNL     1       6.244   5.827  16.968  0.00  0.00    +0.000 NA
ATOM      2  C   UNL     1       4.865   5.865  16.409  0.00  0.00    +0.000 C 
ATOM      3  C   UNL     1       3.870   4.928  17.133  0.00  0.00    +0.000 C 
ATOM      4  N   UNL     1       3.839   5.228  18.581  0.00  0.00    +0.000 N 
ATOM      5  C   UNL     1       3.001   4.340  19.304  0.00  0.00    +0.000 A 
ATOM      6  C   UNL     1       2.486   4.779  20.527  0.00  0.00    +0.000 A 
ATOM      7  C   UNL     1       1.720   3.916  21.312  0.00  0.00    +0.000 A 
ATOM      8  C   UNL     1       1.488   2.629  20.858  0.00  0.00    +0.000 A 
ATOM      9  C   UNL     1       2.018   2.272  19.630  0.00  0.00    +0.000 A 
ATOM     10  N   UNL     1       2.753   3.096  18.849  0.00  0.00    +0.000 NA
ATOM     11  C   UNL     1       5.192   5.214  19.185  0.00  0.00    +0.000 C 
ATOM     12  C   UNL     1       6.136   6.157  18.412  0.00  0.00    +0.000 C 
ENDROOT
BRANCH   1  13
ATOM     13  S   UNL     1       7.270   4.578  16.529  0.00  0.00    +0.000 S 
BRANCH  13  17
ATOM     14  C   UNL     1       6.797   4.379  11.960  0.00  0.00    +0.000 A 
ATOM     15  C   UNL     1       6.000   3.561  12.760  0.00  0.00    +0.000 A 
ATOM     16  C   UNL     1       6.126   3.603  14.152  0.00  0.00    +0.000 A 
ATOM     17  C   UNL     1       7.061   4.450  14.757  0.00  0.00    +0.000 A 
ATOM     18  C   UNL     1       7.856   5.268  13.942  0.00  0.00    +0.000 A 
ATOM     19  C   UNL     1       7.724   5.234  12.551  0.00  0.00    +0.000 A 
ENDBRANCH  13  17
ENDBRANCH   1  13
TORSDOF 2
ENDMDL
MODEL 5
REMARK VINA RESULT:      -6.7      2.038      2.852
REMARK  Name = 
REMARK  2 active torsions:
REMARK  status: ('A' for Active; 'I' for Inactive)
REMARK    1  A    between atoms: C_4  and  S_5
REMARK    2  A    between atoms: S_5  and  N_6
REMARK                            x       y       z     vdW  Elec       q    Type
REMARK                         _______ _______ _______ _____ _____    ______ ____
ROOT
ATOM      1  N   UNL     1       4.743   5.682  18.226  0.00  0.00    +0.000 NA
ATOM      2  C   UNL     1       5.645   4.499  18.174  0.00  0.00    +0.000 C 
ATOM      3  C   UNL     1       5.929   3.991  16.741  0.00  0.00    +0.000 C 
ATOM      4  N   UNL     1       6.474   5.082  15.905  0.00  0.00    +0.000 N 
ATOM      5  C   UNL     1       6.675   4.688  14.557  0.00  0.00    +0.000 A 
ATOM      6  C   UNL     1       7.612   5.399  13.801  0.00  0.00    +0.000 A 
ATOM      7  C   UNL     1       7.790   5.101  12.450  0.00  0.00    +0.000 A 
ATOM      8  C   UNL     1       7.025   4.097  11.881  0.00  0.00    +0.000 A 
ATOM      9  C   UNL     1       6.130   3.427  12.697  0.00  0.00    +0.000 A 
ATOM     10  N   UNL     1       5.949   3.693  14.010  0.00  0.00    +0.000 NA
ATOM     11  C   UNL     1       5.616   6.289  15.931  0.00  0.00    +0.000 C 
ATOM     12  C   UNL     1       5.362   6.737  17.386  0.00  0.00    +0.000 C 
ENDROOT
BRANCH   1  13
ATOM     13  S   UNL     1       3.088   5.453  18.096  0.00  0.00    +0.000 S 
BRANCH  13  17
ATOM     14  C   UNL     1       1.249   9.310  19.795  0.00  0.00    +0.000 A 
ATOM     15  C   UNL     1       1.547   9.243  18.434  0.00  0.00    +0.000 A 
ATOM     16  C   UNL     1       2.107   8.082  17.894  0.00  0.00    +0.000 A 
ATOM     17  C   UNL     1       2.392   6.982  18.712  0.00  0.00    +0.000 A 
ATOM     18  C   UNL     1       2.087   7.061  20.078  0.00  0.00    +0.000 A 
ATOM     19  C   UNL     1       1.517   8.218  20.617  0.00  0.00    +0.000 A 
ENDBRANCH  13  17
ENDBRANCH   1  13
TORSDOF 2
ENDMDL
MODEL 6
REMARK VINA RESULT:      -6.6      2.022      2.723
REMARK  Name = 
REMARK  2 active torsions:
REMARK  status: ('A' for Active; 'I' for Inactive)
REMARK    1  A    between atoms: C_4  and  S_5
REMARK    2  A    between atoms: S_5  and  N_6
REMARK                            x       y       z     vdW  Elec       q    Type
REMARK                         _______ _______ _______ _____ _____    ______ ____
ROOT
ATOM      1  N   UNL     1       4.718   5.653  18.226  0.00  0.00    +0.000 NA
ATOM      2  C   UNL     1       5.636   4.483  18.174  0.00  0.00    +0.000 C 
ATOM      3  C   UNL     1       5.932   3.983  16.741  0.00  0.00    +0.000 C 
ATOM      4  N   UNL     1       6.464   5.084  15.910  0.00  0.00    +0.000 N 
ATOM      5  C   UNL     1       6.675   4.695  14.561  0.00  0.00    +0.000 A 
ATOM      6  C   UNL     1       7.604   5.421  13.810  0.00  0.00    +0.000 A 
ATOM      7  C   UNL     1       7.791   5.129  12.459  0.00  0.00    +0.000 A 
ATOM      8  C   UNL     1       7.041   4.117  11.884  0.00  0.00    +0.000 A 
ATOM      9  C   UNL     1       6.152   3.432  12.696  0.00  0.00    +0.000 A 
ATOM     10  N   UNL     1       5.964   3.692  14.010  0.00  0.00    +0.000 NA
ATOM     11  C   UNL     1       5.589   6.279  15.936  0.00  0.00    +0.000 C 
ATOM     12  C   UNL     1       5.324   6.719  17.391  0.00  0.00    +0.000 C 
ENDROOT
BRANCH   1  13
ATOM     13  S   UNL     1       3.066   5.403  18.091  0.00  0.00    +0.000 S 
BRANCH  13  17
ATOM     14  C   UNL     1       1.262   9.292  19.751  0.00  0.00    +0.000 A 
ATOM     15  C   UNL     1       1.510   8.234  20.625  0.00  0.00    +0.000 A 
ATOM     16  C   UNL     1       2.058   7.041  20.144  0.00  0.00    +0.000 A 
ATOM     17  C   UNL     1       2.346   6.887  18.783  0.00  0.00    +0.000 A 
ATOM     18  C   UNL     1       2.092   7.959  17.915  0.00  0.00    +0.000 A 
ATOM     19  C   UNL     1       1.554   9.155  18.397  0.00  0.00    +0.000 A 
ENDBRANCH  13  17
ENDBRANCH   1  13
TORSDOF 2
ENDMDL
MODEL 7
REMARK VINA RESULT:      -6.5      2.904      4.173
REMARK  Name = 
REMARK  2 active torsions:
REMARK  status: ('A' for Active; 'I' for Inactive)
REMARK    1  A    between atoms: C_4  and  S_5
REMARK    2  A    between atoms: S_5  and  N_6
REMARK                            x       y       z     vdW  Elec       q    Type
REMARK                         _______ _______ _______ _____ _____    ______ ____
ROOT
ATOM      1  N   UNL     1       2.835   2.161  19.031  0.00  0.00    +0.000 NA
ATOM      2  C   UNL     1       3.627   1.949  17.790  0.00  0.00    +0.000 C 
ATOM      3  C   UNL     1       4.398   3.204  17.317  0.00  0.00    +0.000 C 
ATOM      4  N   UNL     1       5.272   3.710  18.397  0.00  0.00    +0.000 N 
ATOM      5  C   UNL     1       5.940   4.910  18.040  0.00  0.00    +0.000 A 
ATOM      6  C   UNL     1       7.127   5.221  18.710  0.00  0.00    +0.000 A 
ATOM      7  C   UNL     1       7.780   6.425  18.451  0.00  0.00    +0.000 A 
ATOM      8  C   UNL     1       7.231   7.299  17.528  0.00  0.00    +0.000 A 
ATOM      9  C   UNL     1       6.061   6.915  16.893  0.00  0.00    +0.000 A 
ATOM     10  N   UNL     1       5.419   5.747  17.121  0.00  0.00    +0.000 NA
ATOM     11  C   UNL     1       4.531   3.928  19.661  0.00  0.00    +0.000 C 
ATOM     12  C   UNL     1       3.777   2.646  20.071  0.00  0.00    +0.000 C 
ENDROOT
BRANCH   1  13
ATOM     13  S   UNL     1       1.338   2.907  18.928  0.00  0.00    +0.000 S 
BRANCH  13  17
ATOM     14  C   UNL     1       2.188   7.356  19.716  0.00  0.00    +0.000 A 
ATOM     15  C   UNL     1       2.347   6.854  18.425  0.00  0.00    +0.000 A 
ATOM     16  C   UNL     1       2.095   5.505  18.161  0.00  0.00    +0.000 A 
ATOM     17  C   UNL     1       1.699   4.640  19.187  0.00  0.00    +0.000 A 
ATOM     18  C   UNL     1       1.542   5.157  20.480  0.00  0.00    +0.000 A 
ATOM     19  C   UNL     1       1.783   6.508  20.744  0.00  0.00    +0.000 A 
ENDBRANCH  13  17
ENDBRANCH   1  13
TORSDOF 2
ENDMDL
MODEL 8
REMARK VINA RESULT:      -6.4      2.884      4.084
REMARK  Name = 
REMARK  2 active torsions:
REMARK  status: ('A' for Active; 'I' for Inactive)
REMARK    1  A    between atoms: C_4  and  S_5
REMARK    2  A    between atoms: S_5  and  N_6
REMARK                            x       y       z     vdW  Elec       q    Type
REMARK                         _______ _______ _______ _____ _____    ______ ____
ROOT
ATOM      1  N   UNL     1       2.819   2.176  19.018  0.00  0.00    +0.000 NA
ATOM      2  C   UNL     1       3.651   1.932  17.809  0.00  0.00    +0.000 C 
ATOM      3  C   UNL     1       4.433   3.176  17.326  0.00  0.00    +0.000 C 
ATOM      4  N   UNL     1       5.271   3.715  18.420  0.00  0.00    +0.000 N 
ATOM      5  C   UNL     1       5.947   4.907  18.051  0.00  0.00    +0.000 A 
ATOM      6  C   UNL     1       7.110   5.241  18.750  0.00  0.00    +0.000 A 
ATOM      7  C   UNL     1       7.768   6.440  18.478  0.00  0.00    +0.000 A 
ATOM      8  C   UNL     1       7.246   7.285  17.514  0.00  0.00    +0.000 A 
ATOM      9  C   UNL     1       6.099   6.879  16.853  0.00  0.00    +0.000 A 
ATOM     10  N   UNL     1       5.453   5.716  17.093  0.00  0.00    +0.000 NA
ATOM     11  C   UNL     1       4.489   3.965  19.653  0.00  0.00    +0.000 C 
ATOM     12  C   UNL     1       3.726   2.693  20.073  0.00  0.00    +0.000 C 
ENDROOT
BRANCH   1  13
ATOM     13  S   UNL     1       1.324   2.912  18.847  0.00  0.00    +0.000 S 
BRANCH  13  17
ATOM     14  C   UNL     1       2.240   7.353  19.609  0.00  0.00    +0.000 A 
ATOM     15  C   UNL     1       1.826   6.554  20.674  0.00  0.00    +0.000 A 
ATOM     16  C   UNL     1       1.541   5.201  20.467  0.00  0.00    +0.000 A 
ATOM     17  C   UNL     1       1.650   4.637  19.191  0.00  0.00    +0.000 A 
ATOM     18  C   UNL     1       2.068   5.451  18.129  0.00  0.00    +0.000 A 
ATOM     19  C   UNL     1       2.363   6.801  18.336  0.00  0.00    +0.000 A 
ENDBRANCH  13  17
ENDBRANCH   1  13
TORSDOF 2
ENDMDL
MODEL 9
REMARK VINA RESULT:      -6.2      1.706      7.208
REMARK  Name = 
REMARK  2 active torsions:
REMARK  status: ('A' for Active; 'I' for Inactive)
REMARK    1  A    between atoms: C_4  and  S_5
REMARK    2  A    between atoms: S_5  and  N_6
REMARK                            x       y       z     vdW  Elec       q    Type
REMARK                         _______ _______ _______ _____ _____    ______ ____
ROOT
ATOM      1  N   UNL     1       6.438   5.052  17.037  0.00  0.00    +0.000 NA
ATOM      2  C   UNL     1       6.493   5.620  18.411  0.00  0.00    +0.000 C 
ATOM      3  C   UNL     1       5.161   5.505  19.190  0.00  0.00    +0.000 C 
ATOM      4  N   UNL     1       4.712   4.097  19.240  0.00  0.00    +0.000 N 
ATOM      5  C   UNL     1       3.451   3.950  19.874  0.00  0.00    +0.000 A 
ATOM      6  C   UNL     1       3.142   2.706  20.431  0.00  0.00    +0.000 A 
ATOM      7  C   UNL     1       1.886   2.487  20.997  0.00  0.00    +0.000 A 
ATOM      8  C   UNL     1       0.961   3.517  20.991  0.00  0.00    +0.000 A 
ATOM      9  C   UNL     1       1.346   4.725  20.434  0.00  0.00    +0.000 A 
ATOM     10  N   UNL     1       2.562   4.962  19.891  0.00  0.00    +0.000 NA
ATOM     11  C   UNL     1       4.651   3.481  17.894  0.00  0.00    +0.000 C 
ATOM     12  C   UNL     1       6.003   3.639  17.168  0.00  0.00    +0.000 C 
ENDROOT
BRANCH   1  13
ATOM     13  S   UNL     1       5.765   5.963  15.803  0.00  0.00    +0.000 S 
BRANCH  13  17
ATOM     14  C   UNL     1       6.850   3.685  11.959  0.00  0.00    +0.000 A 
ATOM     15  C   UNL     1       5.655   3.384  12.611  0.00  0.00    +0.000 A 
ATOM     16  C   UNL     1       5.303   4.062  13.781  0.00  0.00    +0.000 A 
ATOM     17  C   UNL     1       6.150   5.036  14.322  0.00  0.00    +0.000 A 
ATOM     18  C   UNL     1       7.349   5.330  13.657  0.00  0.00    +0.000 A 
ATOM     19  C   UNL     1       7.696   4.660  12.481  0.00  0.00    +0.000 A 
ENDBRANCH  13  17
ENDBRANCH   1  13
TORSDOF 2
ENDMDL
