MODEL 1
REMARK VINA RESULT:      -7.5      0.000      0.000
REMARK  Name = 
REMARK  5 active torsions:
REMARK  status: ('A' for Active; 'I' for Inactive)
REMARK    1  A    between atoms: C_1  and  N_2
REMARK    2  A    between atoms: C_4  and  N_5
REMARK    3  A    between atoms: C_6  and  C_8
REMARK    4  A    between atoms: N_15  and  C_16
REMARK    5  A    between atoms: C_24  and  C_25
REMARK                            x       y       z     vdW  Elec       q    Type
REMARK                         _______ _______ _______ _____ _____    ______ ____
ROOT
ATOM      1  C   UNL     1      -1.193  11.336  20.314  0.00  0.00    +0.000 A 
ATOM      2  C   UNL     1      -1.696  12.252  21.233  0.00  0.00    +0.000 A 
ATOM      3  S   UNL     1      -1.162  11.981  22.825  0.00  0.00    +0.000 S 
ATOM      4  C   UNL     1      -0.241  10.647  22.336  0.00  0.00    +0.000 A 
ATOM      5  N   UNL     1       0.501   9.957  23.226  0.00  0.00    +0.000 NA
ATOM      6  C   UNL     1       1.212   8.978  22.631  0.00  0.00    +0.000 A 
ATOM      7  C   UNL     1       1.176   8.635  21.272  0.00  0.00    +0.000 A 
ATOM      8  N   UNL     1       2.117   7.656  20.832  0.00  0.00    +0.000 N 
ATOM      9  N   UNL     1       0.378   9.330  20.408  0.00  0.00    +0.000 NA
ATOM     10  C   UNL     1      -0.324  10.378  20.974  0.00  0.00    +0.000 A 
ATOM     11  H   UNL     1       2.451   7.133  21.638  0.00  0.00    +0.000 HD
ENDROOT
BRANCH   8  12
ATOM     12  C   UNL     1       1.685   6.688  19.799  0.00  0.00    +0.000 C 
ATOM     13  C   UNL     1       1.366   5.310  20.407  0.00  0.00    +0.000 C 
ATOM     14  C   UNL     1       2.625   4.563  20.860  0.00  0.00    +0.000 C 
ATOM     15  C   UNL     1       3.710   4.470  19.786  0.00  0.00    +0.000 C 
ATOM     16  N   UNL     1       3.970   5.720  19.087  0.00  0.00    +0.000 NA
ATOM     17  C   UNL     1       2.742   6.437  18.734  0.00  0.00    +0.000 C 
ATOM     18  H   UNL     1       4.560   6.328  19.653  0.00  0.00    +0.000 HD
ENDBRANCH   8  12
BRANCH   1  20
ATOM     19  N   UNL     1      -2.475  10.513  18.450  0.00  0.00    +0.000 N 
ATOM     20  C   UNL     1      -1.575  11.454  18.902  0.00  0.00    +0.000 C 
ATOM     21  O   UNL     1      -1.087  12.345  18.208  0.00  0.00    +0.000 OA
ATOM     22  H   UNL     1      -2.808   9.827  19.124  0.00  0.00    +0.000 HD
BRANCH  19  26
ATOM     23  C   UNL     1      -2.937   9.850  13.593  0.00  0.00    +0.000 C 
ATOM     24  N   UNL     1      -3.185  10.100  14.990  0.00  0.00    +0.000 N 
ATOM     25  C   UNL     1      -2.347   9.887  16.040  0.00  0.00    +0.000 A 
ATOM     26  C   UNL     1      -2.956  10.437  17.145  0.00  0.00    +0.000 A 
ATOM     27  C   UNL     1      -4.171  10.969  16.619  0.00  0.00    +0.000 A 
ATOM     28  N   UNL     1      -4.333  10.689  15.322  0.00  0.00    +0.000 NA
BRANCH  27  29
ATOM     29  C   UNL     1      -5.148  11.806  17.336  0.00  0.00    +0.000 C 
ATOM     30  F   UNL     1      -5.502  12.831  16.507  0.00  0.00    +0.000 F 
ATOM     31  F   UNL     1      -6.314  11.183  17.655  0.00  0.00    +0.000 F 
ENDBRANCH  27  29
ENDBRANCH  19  26
ENDBRANCH   1  20
TORSDOF 4
ENDMDL
MODEL 2
REMARK VINA RESULT:      -7.3      4.021      8.475
REMARK  Name = 
REMARK  5 active torsions:
REMARK  status: ('A' for Active; 'I' for Inactive)
REMARK    1  A    between atoms: C_1  and  N_2
REMARK    2  A    between atoms: C_4  and  N_5
REMARK    3  A    between atoms: C_6  and  C_8
REMARK    4  A    between atoms: N_15  and  C_16
REMARK    5  A    between atoms: C_24  and  C_25
REMARK                            x       y       z     vdW  Elec       q    Type
REMARK                         _______ _______ _______ _____ _____    ______ ____
ROOT
ATOM      1  C   UNL     1      -0.567  11.179  20.851  0.00  0.00    +0.000 A 
ATOM      2  C   UNL     1       0.661  10.560  20.634  0.00  0.00    +0.000 A 
ATOM      3  S   UNL     1       0.834   9.923  19.067  0.00  0.00    +0.000 S 
ATOM      4  C   UNL     1      -0.712  10.461  18.630  0.00  0.00    +0.000 A 
ATOM      5  N   UNL     1      -1.187  10.257  17.384  0.00  0.00    +0.000 NA
ATOM      6  C   UNL     1      -2.401  10.817  17.215  0.00  0.00    +0.000 A 
ATOM      7  C   UNL     1      -3.150  11.485  18.194  0.00  0.00    +0.000 A 
ATOM      8  N   UNL     1      -4.351  12.123  17.758  0.00  0.00    +0.000 N 
ATOM      9  N   UNL     1      -2.654  11.633  19.458  0.00  0.00    +0.000 NA
ATOM     10  C   UNL     1      -1.385  11.119  19.653  0.00  0.00    +0.000 A 
ATOM     11  H   UNL     1      -4.634  11.722  16.867  0.00  0.00    +0.000 HD
ENDROOT
BRANCH   8  12
ATOM     12  C   UNL     1      -5.520  12.103  18.667  0.00  0.00    +0.000 C 
ATOM     13  C   UNL     1      -6.847  12.046  17.887  0.00  0.00    +0.000 C 
ATOM     14  C   UNL     1      -7.169  13.368  17.182  0.00  0.00    +0.000 C 
ATOM     15  C   UNL     1      -7.103  14.591  18.098  0.00  0.00    +0.000 C 
ATOM     16  N   UNL     1      -5.926  14.636  18.953  0.00  0.00    +0.000 NA
ATOM     17  C   UNL     1      -5.612  13.336  19.552  0.00  0.00    +0.000 C 
ATOM     18  H   UNL     1      -5.118  14.966  18.428  0.00  0.00    +0.000 HD
ENDBRANCH   8  12
BRANCH   1  20
ATOM     19  N   UNL     1      -1.514  12.980  22.138  0.00  0.00    +0.000 N 
ATOM     20  C   UNL     1      -0.849  11.773  22.163  0.00  0.00    +0.000 C 
ATOM     21  O   UNL     1      -0.485  11.195  23.188  0.00  0.00    +0.000 OA
ATOM     22  H   UNL     1      -1.763  13.354  21.224  0.00  0.00    +0.000 HD
BRANCH  19  26
ATOM     23  C   UNL     1      -1.507  16.005  26.023  0.00  0.00    +0.000 C 
ATOM     24  N   UNL     1      -1.886  15.096  24.971  0.00  0.00    +0.000 N 
ATOM     25  C   UNL     1      -1.160  14.726  23.883  0.00  0.00    +0.000 A 
ATOM     26  C   UNL     1      -1.865  13.716  23.267  0.00  0.00    +0.000 A 
ATOM     27  C   UNL     1      -3.013  13.561  24.101  0.00  0.00    +0.000 A 
ATOM     28  N   UNL     1      -3.051  14.459  25.090  0.00  0.00    +0.000 NA
BRANCH  27  29
ATOM     29  C   UNL     1      -4.040  12.512  23.997  0.00  0.00    +0.000 C 
ATOM     30  F   UNL     1      -4.510  12.266  25.255  0.00  0.00    +0.000 F 
ATOM     31  F   UNL     1      -5.134  12.848  23.264  0.00  0.00    +0.000 F 
ENDBRANCH  27  29
ENDBRANCH  19  26
ENDBRANCH   1  20
TORSDOF 4
ENDMDL
MODEL 3
REMARK VINA RESULT:      -7.3      4.322      7.241
REMARK  Name = 
REMARK  5 active torsions:
REMARK  status: ('A' for Active; 'I' for Inactive)
REMARK    1  A    between atoms: C_1  and  N_2
REMARK    2  A    between atoms: C_4  and  N_5
REMARK    3  A    between atoms: C_6  and  C_8
REMARK    4  A    between atoms: N_15  and  C_16
REMARK    5  A    between atoms: C_24  and  C_25
REMARK                            x       y       z     vdW  Elec       q    Type
REMARK                         _______ _______ _______ _____ _____    ______ ____
ROOT
ATOM      1  C   UNL     1       2.228   5.186  20.057  0.00  0.00    +0.000 A 
ATOM      2  C   UNL     1       1.564   4.492  21.064  0.00  0.00    +0.000 A 
ATOM      3  S   UNL     1       1.699   2.802  20.928  0.00  0.00    +0.000 S 
ATOM      4  C   UNL     1       2.650   2.946  19.535  0.00  0.00    +0.000 A 
ATOM      5  N   UNL     1       3.133   1.850  18.913  0.00  0.00    +0.000 NA
ATOM      6  C   UNL     1       3.920   2.175  17.869  0.00  0.00    +0.000 A 
ATOM      7  C   UNL     1       4.188   3.470  17.403  0.00  0.00    +0.000 A 
ATOM      8  N   UNL     1       5.163   3.591  16.367  0.00  0.00    +0.000 N 
ATOM      9  N   UNL     1       3.645   4.554  18.033  0.00  0.00    +0.000 NA
ATOM     10  C   UNL     1       2.876   4.261  19.144  0.00  0.00    +0.000 A 
ATOM     11  H   UNL     1       5.276   2.688  15.913  0.00  0.00    +0.000 HD
ENDROOT
BRANCH   8  12
ATOM     12  C   UNL     1       4.943   4.612  15.318  0.00  0.00    +0.000 C 
ATOM     13  C   UNL     1       5.137   4.030  13.906  0.00  0.00    +0.000 C 
ATOM     14  C   UNL     1       6.608   3.738  13.589  0.00  0.00    +0.000 C 
ATOM     15  C   UNL     1       7.544   4.919  13.847  0.00  0.00    +0.000 C 
ATOM     16  N   UNL     1       7.324   5.591  15.120  0.00  0.00    +0.000 NA
ATOM     17  C   UNL     1       5.903   5.789  15.417  0.00  0.00    +0.000 C 
ATOM     18  H   UNL     1       7.753   5.065  15.878  0.00  0.00    +0.000 HD
ENDBRANCH   8  12
BRANCH   1  20
ATOM     19  N   UNL     1       1.075   7.222  20.626  0.00  0.00    +0.000 N 
ATOM     20  C   UNL     1       2.192   6.653  20.053  0.00  0.00    +0.000 C 
ATOM     21  O   UNL     1       3.119   7.287  19.548  0.00  0.00    +0.000 OA
ATOM     22  H   UNL     1       0.378   6.588  21.012  0.00  0.00    +0.000 HD
BRANCH  19  26
ATOM     23  C   UNL     1      -0.201  11.730  22.139  0.00  0.00    +0.000 C 
ATOM     24  N   UNL     1       0.317  10.609  21.396  0.00  0.00    +0.000 N 
ATOM     25  C   UNL     1       0.482   9.328  21.821  0.00  0.00    +0.000 A 
ATOM     26  C   UNL     1       0.838   8.591  20.713  0.00  0.00    +0.000 A 
ATOM     27  C   UNL     1       0.843   9.558  19.664  0.00  0.00    +0.000 A 
ATOM     28  N   UNL     1       0.600  10.795  20.107  0.00  0.00    +0.000 NA
BRANCH  27  29
ATOM     29  C   UNL     1       1.012   9.294  18.226  0.00  0.00    +0.000 C 
ATOM     30  F   UNL     1      -0.141   9.666  17.597  0.00  0.00    +0.000 F 
ATOM     31  F   UNL     1       1.998  10.009  17.621  0.00  0.00    +0.000 F 
ENDBRANCH  27  29
ENDBRANCH  19  26
ENDBRANCH   1  20
TORSDOF 4
ENDMDL
MODEL 4
REMARK VINA RESULT:      -7.2      4.664      7.216
REMARK  Name = 
REMARK  5 active torsions:
REMARK  status: ('A' for Active; 'I' for Inactive)
REMARK    1  A    between atoms: C_1  and  N_2
REMARK    2  A    between atoms: C_4  and  N_5
REMARK    3  A    between atoms: C_6  and  C_8
REMARK    4  A    between atoms: N_15  and  C_16
REMARK    5  A    between atoms: C_24  and  C_25
REMARK                            x       y       z     vdW  Elec       q    Type
REMARK                         _______ _______ _______ _____ _____    ______ ____
ROOT
ATOM      1  C   UNL     1       2.144   5.568  19.855  0.00  0.00    +0.000 A 
ATOM      2  C   UNL     1       1.470   4.945  20.901  0.00  0.00    +0.000 A 
ATOM      3  S   UNL     1       1.631   3.252  20.902  0.00  0.00    +0.000 S 
ATOM      4  C   UNL     1       2.609   3.301  19.520  0.00  0.00    +0.000 A 
ATOM      5  N   UNL     1       3.120   2.167  18.997  0.00  0.00    +0.000 NA
ATOM      6  C   UNL     1       3.923   2.421  17.945  0.00  0.00    +0.000 A 
ATOM      7  C   UNL     1       4.182   3.680  17.384  0.00  0.00    +0.000 A 
ATOM      8  N   UNL     1       5.176   3.734  16.360  0.00  0.00    +0.000 N 
ATOM      9  N   UNL     1       3.611   4.801  17.915  0.00  0.00    +0.000 NA
ATOM     10  C   UNL     1       2.824   4.584  19.031  0.00  0.00    +0.000 A 
ATOM     11  H   UNL     1       5.312   2.800  15.981  0.00  0.00    +0.000 HD
ENDROOT
BRANCH   8  12
ATOM     12  C   UNL     1       4.963   4.666  15.229  0.00  0.00    +0.000 C 
ATOM     13  C   UNL     1       5.151   3.966  13.871  0.00  0.00    +0.000 C 
ATOM     14  C   UNL     1       6.619   3.637  13.579  0.00  0.00    +0.000 C 
ATOM     15  C   UNL     1       7.564   4.829  13.737  0.00  0.00    +0.000 C 
ATOM     16  N   UNL     1       7.350   5.606  14.949  0.00  0.00    +0.000 NA
ATOM     17  C   UNL     1       5.931   5.839  15.229  0.00  0.00    +0.000 C 
ATOM     18  H   UNL     1       7.777   5.143  15.749  0.00  0.00    +0.000 HD
ENDBRANCH   8  12
BRANCH   1  20
ATOM     19  N   UNL     1       1.138   7.654  20.515  0.00  0.00    +0.000 N 
ATOM     20  C   UNL     1       2.087   7.030  19.734  0.00  0.00    +0.000 C 
ATOM     21  O   UNL     1       2.851   7.610  18.963  0.00  0.00    +0.000 OA
ATOM     22  H   UNL     1       0.566   7.061  21.114  0.00  0.00    +0.000 HD
BRANCH  19  26
ATOM     23  C   UNL     1       1.135  12.482  19.554  0.00  0.00    +0.000 C 
ATOM     24  N   UNL     1       0.865  11.173  20.091  0.00  0.00    +0.000 N 
ATOM     25  C   UNL     1       1.252   9.968  19.595  0.00  0.00    +0.000 A 
ATOM     26  C   UNL     1       0.910   9.027  20.540  0.00  0.00    +0.000 A 
ATOM     27  C   UNL     1       0.323   9.806  21.581  0.00  0.00    +0.000 A 
ATOM     28  N   UNL     1       0.232  11.101  21.262  0.00  0.00    +0.000 NA
BRANCH  27  29
ATOM     29  C   UNL     1      -0.090   9.329  22.911  0.00  0.00    +0.000 C 
ATOM     30  F   UNL     1       0.998   9.395  23.732  0.00  0.00    +0.000 F 
ATOM     31  F   UNL     1      -1.046  10.079  23.521  0.00  0.00    +0.000 F 
ENDBRANCH  27  29
ENDBRANCH  19  26
ENDBRANCH   1  20
TORSDOF 4
ENDMDL
MODEL 5
REMARK VINA RESULT:      -6.9      4.650      7.161
REMARK  Name = 
REMARK  5 active torsions:
REMARK  status: ('A' for Active; 'I' for Inactive)
REMARK    1  A    between atoms: C_1  and  N_2
REMARK    2  A    between atoms: C_4  and  N_5
REMARK    3  A    between atoms: C_6  and  C_8
REMARK    4  A    between atoms: N_15  and  C_16
REMARK    5  A    between atoms: C_24  and  C_25
REMARK                            x       y       z     vdW  Elec       q    Type
REMARK                         _______ _______ _______ _____ _____    ______ ____
ROOT
ATOM      1  C   UNL     1       1.934   4.690  20.716  0.00  0.00    +0.000 A 
ATOM      2  C   UNL     1       1.404   3.625  21.439  0.00  0.00    +0.000 A 
ATOM      3  S   UNL     1       2.361   2.221  21.381  0.00  0.00    +0.000 S 
ATOM      4  C   UNL     1       3.510   2.991  20.404  0.00  0.00    +0.000 A 
ATOM      5  N   UNL     1       4.622   2.341  20.004  0.00  0.00    +0.000 NA
ATOM      6  C   UNL     1       5.441   3.143  19.294  0.00  0.00    +0.000 A 
ATOM      7  C   UNL     1       5.191   4.474  18.934  0.00  0.00    +0.000 A 
ATOM      8  N   UNL     1       6.258   5.180  18.301  0.00  0.00    +0.000 N 
ATOM      9  N   UNL     1       4.032   5.085  19.322  0.00  0.00    +0.000 NA
ATOM     10  C   UNL     1       3.192   4.310  20.099  0.00  0.00    +0.000 A 
ATOM     11  H   UNL     1       6.923   4.507  17.927  0.00  0.00    +0.000 HD
ENDROOT
BRANCH   8  12
ATOM     12  C   UNL     1       5.919   6.141  17.227  0.00  0.00    +0.000 C 
ATOM     13  C   UNL     1       4.814   5.598  16.304  0.00  0.00    +0.000 C 
ATOM     14  C   UNL     1       5.310   4.463  15.401  0.00  0.00    +0.000 C 
ATOM     15  C   UNL     1       6.582   4.802  14.622  0.00  0.00    +0.000 C 
ATOM     16  N   UNL     1       7.622   5.436  15.420  0.00  0.00    +0.000 NA
ATOM     17  C   UNL     1       7.096   6.466  16.320  0.00  0.00    +0.000 C 
ATOM     18  H   UNL     1       8.124   4.740  15.967  0.00  0.00    +0.000 HD
ENDBRANCH   8  12
BRANCH   1  20
ATOM     19  N   UNL     1       1.995   7.096  20.646  0.00  0.00    +0.000 N 
ATOM     20  C   UNL     1       1.208   5.965  20.681  0.00  0.00    +0.000 C 
ATOM     21  O   UNL     1      -0.023   5.970  20.694  0.00  0.00    +0.000 OA
ATOM     22  H   UNL     1       3.004   6.959  20.636  0.00  0.00    +0.000 HD
BRANCH  19  26
ATOM     23  C   UNL     1      -0.138  11.387  21.777  0.00  0.00    +0.000 C 
ATOM     24  N   UNL     1       0.603  10.331  21.135  0.00  0.00    +0.000 N 
ATOM     25  C   UNL     1       0.983   9.136  21.660  0.00  0.00    +0.000 A 
ATOM     26  C   UNL     1       1.509   8.401  20.622  0.00  0.00    +0.000 A 
ATOM     27  C   UNL     1       1.378   9.275  19.502  0.00  0.00    +0.000 A 
ATOM     28  N   UNL     1       0.897  10.474  19.843  0.00  0.00    +0.000 NA
BRANCH  27  29
ATOM     29  C   UNL     1       1.647   8.945  18.093  0.00  0.00    +0.000 C 
ATOM     30  F   UNL     1       2.038  10.093  17.466  0.00  0.00    +0.000 F 
ATOM     31  F   UNL     1       2.662   8.063  17.891  0.00  0.00    +0.000 F 
ENDBRANCH  27  29
ENDBRANCH  19  26
ENDBRANCH   1  20
TORSDOF 4
ENDMDL
MODEL 6
REMARK VINA RESULT:      -6.9      4.801      7.736
REMARK  Name = 
REMARK  5 active torsions:
REMARK  status: ('A' for Active; 'I' for Inactive)
REMARK    1  A    between atoms: C_1  and  N_2
REMARK    2  A    between atoms: C_4  and  N_5
REMARK    3  A    between atoms: C_6  and  C_8
REMARK    4  A    between atoms: N_15  and  C_16
REMARK    5  A    between atoms: C_24  and  C_25
REMARK                            x       y       z     vdW  Elec       q    Type
REMARK                         _______ _______ _______ _____ _____    ______ ____
ROOT
ATOM      1  C   UNL     1       0.655   9.644  20.893  0.00  0.00    +0.000 A 
ATOM      2  C   UNL     1      -0.116   9.103  21.918  0.00  0.00    +0.000 A 
ATOM      3  S   UNL     1      -0.794  10.273  22.949  0.00  0.00    +0.000 S 
ATOM      4  C   UNL     1      -0.093  11.530  22.057  0.00  0.00    +0.000 A 
ATOM      5  N   UNL     1      -0.302  12.818  22.398  0.00  0.00    +0.000 NA
ATOM      6  C   UNL     1       0.283  13.666  21.529  0.00  0.00    +0.000 A 
ATOM      7  C   UNL     1       1.072  13.310  20.426  0.00  0.00    +0.000 A 
ATOM      8  N   UNL     1       1.476  14.368  19.557  0.00  0.00    +0.000 N 
ATOM      9  N   UNL     1       1.298  11.994  20.138  0.00  0.00    +0.000 NA
ATOM     10  C   UNL     1       0.667  11.094  20.977  0.00  0.00    +0.000 A 
ATOM     11  H   UNL     1       1.390  15.253  20.051  0.00  0.00    +0.000 HD
ENDROOT
BRANCH   8  12
ATOM     12  C   UNL     1       2.828  14.302  18.958  0.00  0.00    +0.000 C 
ATOM     13  C   UNL     1       3.931  14.455  20.022  0.00  0.00    +0.000 C 
ATOM     14  C   UNL     1       4.027  15.885  20.564  0.00  0.00    +0.000 C 
ATOM     15  C   UNL     1       4.138  16.954  19.476  0.00  0.00    +0.000 C 
ATOM     16  N   UNL     1       3.199  16.789  18.376  0.00  0.00    +0.000 NA
ATOM     17  C   UNL     1       3.084  15.397  17.934  0.00  0.00    +0.000 C 
ATOM     18  H   UNL     1       2.278  17.132  18.641  0.00  0.00    +0.000 HD
ENDBRANCH   8  12
BRANCH   1  20
ATOM     19  N   UNL     1       1.734   7.540  20.440  0.00  0.00    +0.000 N 
ATOM     20  C   UNL     1       1.301   8.745  19.929  0.00  0.00    +0.000 C 
ATOM     21  O   UNL     1       1.433   9.097  18.757  0.00  0.00    +0.000 OA
ATOM     22  H   UNL     1       1.563   7.366  21.428  0.00  0.00    +0.000 HD
BRANCH  19  26
ATOM     23  C   UNL     1       4.400   5.090  17.104  0.00  0.00    +0.000 C 
ATOM     24  N   UNL     1       3.605   5.458  18.248  0.00  0.00    +0.000 N 
ATOM     25  C   UNL     1       3.301   6.707  18.688  0.00  0.00    +0.000 A 
ATOM     26  C   UNL     1       2.381   6.552  19.702  0.00  0.00    +0.000 A 
ATOM     27  C   UNL     1       2.204   5.139  19.770  0.00  0.00    +0.000 A 
ATOM     28  N   UNL     1       3.012   4.481  18.933  0.00  0.00    +0.000 NA
BRANCH  27  29
ATOM     29  C   UNL     1       1.214   4.415  20.584  0.00  0.00    +0.000 C 
ATOM     30  F   UNL     1       0.614   3.488  19.781  0.00  0.00    +0.000 F 
ATOM     31  F   UNL     1       1.730   3.708  21.624  0.00  0.00    +0.000 F 
ENDBRANCH  27  29
ENDBRANCH  19  26
ENDBRANCH   1  20
TORSDOF 4
ENDMDL
MODEL 7
REMARK VINA RESULT:      -6.9      5.956      9.434
REMARK  Name = 
REMARK  5 active torsions:
REMARK  status: ('A' for Active; 'I' for Inactive)
REMARK    1  A    between atoms: C_1  and  N_2
REMARK    2  A    between atoms: C_4  and  N_5
REMARK    3  A    between atoms: C_6  and  C_8
REMARK    4  A    between atoms: N_15  and  C_16
REMARK    5  A    between atoms: C_24  and  C_25
REMARK                            x       y       z     vdW  Elec       q    Type
REMARK                         _______ _______ _______ _____ _____    ______ ____
ROOT
ATOM      1  C   UNL     1       3.581   3.615  17.988  0.00  0.00    +0.000 A 
ATOM      2  C   UNL     1       3.666   2.226  17.995  0.00  0.00    +0.000 A 
ATOM      3  S   UNL     1       2.771   1.496  19.243  0.00  0.00    +0.000 S 
ATOM      4  C   UNL     1       2.238   3.003  19.802  0.00  0.00    +0.000 A 
ATOM      5  N   UNL     1       1.400   3.091  20.856  0.00  0.00    +0.000 NA
ATOM      6  C   UNL     1       1.039   4.366  21.101  0.00  0.00    +0.000 A 
ATOM      7  C   UNL     1       1.494   5.503  20.419  0.00  0.00    +0.000 A 
ATOM      8  N   UNL     1       0.872   6.744  20.754  0.00  0.00    +0.000 N 
ATOM      9  N   UNL     1       2.377   5.377  19.385  0.00  0.00    +0.000 NA
ATOM     10  C   UNL     1       2.727   4.078  19.068  0.00  0.00    +0.000 A 
ATOM     11  H   UNL     1       0.419   6.653  21.660  0.00  0.00    +0.000 HD
ENDROOT
BRANCH   8  12
ATOM     12  C   UNL     1       1.714   7.962  20.778  0.00  0.00    +0.000 C 
ATOM     13  C   UNL     1       1.453   8.810  22.036  0.00  0.00    +0.000 C 
ATOM     14  C   UNL     1       0.092   9.514  21.996  0.00  0.00    +0.000 C 
ATOM     15  C   UNL     1      -0.157  10.310  20.715  0.00  0.00    +0.000 C 
ATOM     16  N   UNL     1       0.190   9.601  19.492  0.00  0.00    +0.000 NA
ATOM     17  C   UNL     1       1.464   8.885  19.595  0.00  0.00    +0.000 C 
ATOM     18  H   UNL     1      -0.544   8.942  19.243  0.00  0.00    +0.000 HD
ENDBRANCH   8  12
BRANCH   1  20
ATOM     19  N   UNL     1       5.224   3.653  16.229  0.00  0.00    +0.000 N 
ATOM     20  C   UNL     1       4.307   4.374  16.963  0.00  0.00    +0.000 C 
ATOM     21  O   UNL     1       4.082   5.575  16.816  0.00  0.00    +0.000 OA
ATOM     22  H   UNL     1       5.317   2.662  16.446  0.00  0.00    +0.000 HD
BRANCH  19  26
ATOM     23  C   UNL     1       7.492   4.559  11.954  0.00  0.00    +0.000 C 
ATOM     24  N   UNL     1       7.005   4.623  13.309  0.00  0.00    +0.000 N 
ATOM     25  C   UNL     1       6.006   3.894  13.874  0.00  0.00    +0.000 A 
ATOM     26  C   UNL     1       6.026   4.182  15.221  0.00  0.00    +0.000 A 
ATOM     27  C   UNL     1       7.107   5.104  15.344  0.00  0.00    +0.000 A 
ATOM     28  N   UNL     1       7.644   5.423  14.162  0.00  0.00    +0.000 NA
BRANCH  27  29
ATOM     29  C   UNL     1       7.676   5.631  16.595  0.00  0.00    +0.000 C 
ATOM     30  F   UNL     1       6.847   6.619  17.043  0.00  0.00    +0.000 F 
ATOM     31  F   UNL     1       7.752   4.736  17.615  0.00  0.00    +0.000 F 
ENDBRANCH  27  29
ENDBRANCH  19  26
ENDBRANCH   1  20
TORSDOF 4
ENDMDL
MODEL 8
REMARK VINA RESULT:      -6.9      5.093      7.360
REMARK  Name = 
REMARK  5 active torsions:
REMARK  status: ('A' for Active; 'I' for Inactive)
REMARK    1  A    between atoms: C_1  and  N_2
REMARK    2  A    between atoms: C_4  and  N_5
REMARK    3  A    between atoms: C_6  and  C_8
REMARK    4  A    between atoms: N_15  and  C_16
REMARK    5  A    between atoms: C_24  and  C_25
REMARK                            x       y       z     vdW  Elec       q    Type
REMARK                         _______ _______ _______ _____ _____    ______ ____
ROOT
ATOM      1  C   UNL     1      -0.816  15.324  21.730  0.00  0.00    +0.000 A 
ATOM      2  C   UNL     1       0.235  16.123  22.174  0.00  0.00    +0.000 A 
ATOM      3  S   UNL     1       1.636  15.994  21.219  0.00  0.00    +0.000 S 
ATOM      4  C   UNL     1       0.884  14.883  20.186  0.00  0.00    +0.000 A 
ATOM      5  N   UNL     1       1.538  14.382  19.118  0.00  0.00    +0.000 NA
ATOM      6  C   UNL     1       0.750  13.571  18.385  0.00  0.00    +0.000 A 
ATOM      7  C   UNL     1      -0.572  13.211  18.680  0.00  0.00    +0.000 A 
ATOM      8  N   UNL     1      -1.267  12.451  17.691  0.00  0.00    +0.000 N 
ATOM      9  N   UNL     1      -1.187  13.705  19.795  0.00  0.00    +0.000 NA
ATOM     10  C   UNL     1      -0.426  14.585  20.542  0.00  0.00    +0.000 A 
ATOM     11  H   UNL     1      -0.588  12.024  17.066  0.00  0.00    +0.000 HD
ENDROOT
BRANCH   8  12
ATOM     12  C   UNL     1      -2.202  11.399  18.149  0.00  0.00    +0.000 C 
ATOM     13  C   UNL     1      -2.022  10.092  17.355  0.00  0.00    +0.000 C 
ATOM     14  C   UNL     1      -2.541  10.202  15.917  0.00  0.00    +0.000 C 
ATOM     15  C   UNL     1      -3.971  10.735  15.814  0.00  0.00    +0.000 C 
ATOM     16  N   UNL     1      -4.237  11.902  16.642  0.00  0.00    +0.000 NA
ATOM     17  C   UNL     1      -3.665  11.785  17.986  0.00  0.00    +0.000 C 
ATOM     18  H   UNL     1      -3.876  12.743  16.197  0.00  0.00    +0.000 HD
ENDBRANCH   8  12
BRANCH   1  20
ATOM     19  N   UNL     1      -3.077  14.528  21.951  0.00  0.00    +0.000 N 
ATOM     20  C   UNL     1      -2.087  15.338  22.464  0.00  0.00    +0.000 C 
ATOM     21  O   UNL     1      -2.212  16.051  23.459  0.00  0.00    +0.000 OA
ATOM     22  H   UNL     1      -2.848  13.983  21.122  0.00  0.00    +0.000 HD
BRANCH  19  26
ATOM     23  C   UNL     1      -7.813  15.186  23.125  0.00  0.00    +0.000 C 
ATOM     24  N   UNL     1      -6.479  14.662  22.976  0.00  0.00    +0.000 N 
ATOM     25  C   UNL     1      -5.496  15.100  22.145  0.00  0.00    +0.000 A 
ATOM     26  C   UNL     1      -4.357  14.404  22.485  0.00  0.00    +0.000 A 
ATOM     27  C   UNL     1      -4.790  13.573  23.561  0.00  0.00    +0.000 A 
ATOM     28  N   UNL     1      -6.100  13.684  23.798  0.00  0.00    +0.000 NA
BRANCH  27  29
ATOM     29  C   UNL     1      -3.941  12.721  24.410  0.00  0.00    +0.000 C 
ATOM     30  F   UNL     1      -4.762  12.016  25.242  0.00  0.00    +0.000 F 
ATOM     31  F   UNL     1      -3.215  11.784  23.744  0.00  0.00    +0.000 F 
ENDBRANCH  27  29
ENDBRANCH  19  26
ENDBRANCH   1  20
TORSDOF 4
ENDMDL
MODEL 9
REMARK VINA RESULT:      -6.9      4.782      7.730
REMARK  Name = 
REMARK  5 active torsions:
REMARK  status: ('A' for Active; 'I' for Inactive)
REMARK    1  A    between atoms: C_1  and  N_2
REMARK    2  A    between atoms: C_4  and  N_5
REMARK    3  A    between atoms: C_6  and  C_8
REMARK    4  A    between atoms: N_15  and  C_16
REMARK    5  A    between atoms: C_24  and  C_25
REMARK                            x       y       z     vdW  Elec       q    Type
REMARK                         _______ _______ _______ _____ _____    ______ ____
ROOT
ATOM      1  C   UNL     1       1.051   9.384  20.008  0.00  0.00    +0.000 A 
ATOM      2  C   UNL     1       0.376   8.642  20.973  0.00  0.00    +0.000 A 
ATOM      3  S   UNL     1      -0.334   9.594  22.190  0.00  0.00    +0.000 S 
ATOM      4  C   UNL     1       0.225  11.018  21.463  0.00  0.00    +0.000 A 
ATOM      5  N   UNL     1      -0.062  12.223  21.997  0.00  0.00    +0.000 NA
ATOM      6  C   UNL     1       0.412  13.231  21.238  0.00  0.00    +0.000 A 
ATOM      7  C   UNL     1       1.168  13.101  20.065  0.00  0.00    +0.000 A 
ATOM      8  N   UNL     1       1.447  14.301  19.344  0.00  0.00    +0.000 N 
ATOM      9  N   UNL     1       1.477  11.862  19.579  0.00  0.00    +0.000 NA
ATOM     10  C   UNL     1       0.959  10.804  20.302  0.00  0.00    +0.000 A 
ATOM     11  H   UNL     1       1.321  15.097  19.965  0.00  0.00    +0.000 HD
ENDROOT
BRANCH   8  12
ATOM     12  C   UNL     1       2.768  14.431  18.688  0.00  0.00    +0.000 C 
ATOM     13  C   UNL     1       3.917  14.417  19.713  0.00  0.00    +0.000 C 
ATOM     14  C   UNL     1       3.981  15.707  20.539  0.00  0.00    +0.000 C 
ATOM     15  C   UNL     1       3.990  16.983  19.695  0.00  0.00    +0.000 C 
ATOM     16  N   UNL     1       3.003  17.001  18.626  0.00  0.00    +0.000 NA
ATOM     17  C   UNL     1       2.924  15.727  17.907  0.00  0.00    +0.000 C 
ATOM     18  H   UNL     1       2.083  17.233  18.995  0.00  0.00    +0.000 HD
ENDBRANCH   8  12
BRANCH   1  20
ATOM     19  N   UNL     1       2.426   7.561  19.246  0.00  0.00    +0.000 N 
ATOM     20  C   UNL     1       1.712   8.687  18.898  0.00  0.00    +0.000 C 
ATOM     21  O   UNL     1       1.613   9.127  17.753  0.00  0.00    +0.000 OA
ATOM     22  H   UNL     1       2.429   7.298  20.230  0.00  0.00    +0.000 HD
BRANCH  19  26
ATOM     23  C   UNL     1       5.418   5.915  15.699  0.00  0.00    +0.000 C 
ATOM     24  N   UNL     1       4.501   6.018  16.806  0.00  0.00    +0.000 N 
ATOM     25  C   UNL     1       4.172   7.127  17.520  0.00  0.00    +0.000 A 
ATOM     26  C   UNL     1       3.136   6.764  18.352  0.00  0.00    +0.000 A 
ATOM     27  C   UNL     1       2.923   5.390  18.030  0.00  0.00    +0.000 A 
ATOM     28  N   UNL     1       3.811   4.929  17.144  0.00  0.00    +0.000 NA
BRANCH  27  29
ATOM     29  C   UNL     1       1.829   4.533  18.516  0.00  0.00    +0.000 C 
ATOM     30  F   UNL     1       0.921   4.408  17.504  0.00  0.00    +0.000 F 
ATOM     31  F   UNL     1       2.191   3.261  18.832  0.00  0.00    +0.000 F 
ENDBRANCH  27  29
ENDBRANCH  19  26
ENDBRANCH   1  20
TORSDOF 4
ENDMDL
