MODEL 1
REMARK VINA RESULT:      -6.9      0.000      0.000
REMARK  Name = 
REMARK  6 active torsions:
REMARK  status: ('A' for Active; 'I' for Inactive)
REMARK    1  A    between atoms: C_1  and  C_2
REMARK    2  A    between atoms: C_7  and  S_8
REMARK    3  A    between atoms: S_8  and  C_9
REMARK    4  A    between atoms: C_9  and  C_10
REMARK    5  A    between atoms: C_9  and  C_11
REMARK    6  A    between atoms: N_17  and  C_18
REMARK                            x       y       z     vdW  Elec       q    Type
REMARK                         _______ _______ _______ _____ _____    ______ ____
ROOT
ATOM      1  C   UNL     1       1.118   9.345  19.840  0.00  0.00    +0.000 C 
ATOM      2  O   UNL     1       0.696   9.648  20.962  0.00  0.00    +0.000 OA
ATOM      3  N   UNL     1       1.792   8.108  19.622  0.00  0.00    +0.000 N 
ATOM      4  C   UNL     1       2.269   7.700  18.296  0.00  0.00    +0.000 C 
ATOM      5  C   UNL     1       3.619   6.993  18.171  0.00  0.00    +0.000 C 
ATOM      6  C   UNL     1       4.041   5.906  19.149  0.00  0.00    +0.000 C 
ATOM      7  N   UNL     1       3.005   5.147  19.831  0.00  0.00    +0.000 NA
ATOM      8  C   UNL     1       2.402   5.940  20.903  0.00  0.00    +0.000 C 
ATOM      9  C   UNL     1       1.390   7.037  20.547  0.00  0.00    +0.000 C 
ENDROOT
BRANCH   7  10
ATOM     10  C   UNL     1       2.126   4.330  18.992  0.00  0.00    +0.000 C 
ATOM     11  C   UNL     1       2.890   3.247  18.215  0.00  0.00    +0.000 C 
ATOM     12  C   UNL     1       1.821   2.247  17.798  0.00  0.00    +0.000 C 
ATOM     13  C   UNL     1       0.781   2.274  18.909  0.00  0.00    +0.000 C 
ATOM     14  C   UNL     1       1.099   3.495  19.773  0.00  0.00    +0.000 C 
ENDBRANCH   7  10
BRANCH   1  15
ATOM     15  C   UNL     1       0.776  10.254  18.635  0.00  0.00    +0.000 C 
ATOM     16  C   UNL     1       2.009  10.734  17.871  0.00  0.00    +0.000 C 
BRANCH  15  17
ATOM     17  S   UNL     1      -0.221  11.677  19.251  0.00  0.00    +0.000 S 
BRANCH  17  24
ATOM     18  C   UNL     1      -5.281  11.863  18.749  0.00  0.00    +0.000 C 
ATOM     19  C   UNL     1      -3.964  11.485  18.131  0.00  0.00    +0.000 A 
ATOM     20  C   UNL     1      -3.911  10.915  16.919  0.00  0.00    +0.000 A 
ATOM     21  C   UNL     1      -2.593  10.563  16.374  0.00  0.00    +0.000 A 
ATOM     22  O   UNL     1      -2.473  10.048  15.269  0.00  0.00    +0.000 OA
ATOM     23  N   UNL     1      -1.536  10.853  17.174  0.00  0.00    +0.000 N 
ATOM     24  C   UNL     1      -1.711  11.407  18.400  0.00  0.00    +0.000 A 
ATOM     25  N   UNL     1      -2.851  11.752  18.898  0.00  0.00    +0.000 NA
ATOM     26  H   UNL     1      -0.616  10.614  16.848  0.00  0.00    +0.000 HD
ENDBRANCH  17  24
ENDBRANCH  15  17
ENDBRANCH   1  15
TORSDOF 4
ENDMDL
MODEL 2
REMARK VINA RESULT:      -6.8      1.084      1.713
REMARK  Name = 
REMARK  6 active torsions:
REMARK  status: ('A' for Active; 'I' for Inactive)
REMARK    1  A    between atoms: C_1  and  C_2
REMARK    2  A    between atoms: C_7  and  S_8
REMARK    3  A    between atoms: S_8  and  C_9
REMARK    4  A    between atoms: C_9  and  C_10
REMARK    5  A    between atoms: C_9  and  C_11
REMARK    6  A    between atoms: N_17  and  C_18
REMARK                            x       y       z     vdW  Elec       q    Type
REMARK                         _______ _______ _______ _____ _____    ______ ____
ROOT
ATOM      1  C   UNL     1       0.963   9.514  20.042  0.00  0.00    +0.000 C 
ATOM      2  O   UNL     1       0.693   9.768  21.222  0.00  0.00    +0.000 OA
ATOM      3  N   UNL     1       1.654   8.317  19.692  0.00  0.00    +0.000 N 
ATOM      4  C   UNL     1       1.953   7.966  18.299  0.00  0.00    +0.000 C 
ATOM      5  C   UNL     1       3.302   7.328  17.962  0.00  0.00    +0.000 C 
ATOM      6  C   UNL     1       3.906   6.239  18.835  0.00  0.00    +0.000 C 
ATOM      7  N   UNL     1       3.014   5.414  19.631  0.00  0.00    +0.000 NA
ATOM      8  C   UNL     1       2.536   6.149  20.803  0.00  0.00    +0.000 C 
ATOM      9  C   UNL     1       1.435   7.204  20.629  0.00  0.00    +0.000 C 
ENDROOT
BRANCH   7  10
ATOM     10  C   UNL     1       2.061   4.577  18.900  0.00  0.00    +0.000 C 
ATOM     11  C   UNL     1       2.751   3.486  18.066  0.00  0.00    +0.000 C 
ATOM     12  C   UNL     1       1.653   2.472  17.776  0.00  0.00    +0.000 C 
ATOM     13  C   UNL     1       0.732   2.511  18.987  0.00  0.00    +0.000 C 
ATOM     14  C   UNL     1       1.125   3.747  19.795  0.00  0.00    +0.000 C 
ENDBRANCH   7  10
BRANCH   1  15
ATOM     15  C   UNL     1       0.413  10.436  18.928  0.00  0.00    +0.000 C 
ATOM     16  C   UNL     1       1.487  11.308  18.280  0.00  0.00    +0.000 C 
BRANCH  15  17
ATOM     17  S   UNL     1      -0.938  11.465  19.645  0.00  0.00    +0.000 S 
BRANCH  17  24
ATOM     18  C   UNL     1      -2.686   9.776  15.175  0.00  0.00    +0.000 C 
ATOM     19  C   UNL     1      -2.977  10.536  16.439  0.00  0.00    +0.000 A 
ATOM     20  C   UNL     1      -4.174  11.105  16.640  0.00  0.00    +0.000 A 
ATOM     21  C   UNL     1      -4.393  11.840  17.894  0.00  0.00    +0.000 A 
ATOM     22  O   UNL     1      -5.466  12.375  18.144  0.00  0.00    +0.000 OA
ATOM     23  N   UNL     1      -3.333  11.873  18.740  0.00  0.00    +0.000 N 
ATOM     24  C   UNL     1      -2.155  11.283  18.419  0.00  0.00    +0.000 A 
ATOM     25  N   UNL     1      -1.937  10.608  17.340  0.00  0.00    +0.000 NA
ATOM     26  H   UNL     1      -3.432  12.379  19.602  0.00  0.00    +0.000 HD
ENDBRANCH  17  24
ENDBRANCH  15  17
ENDBRANCH   1  15
TORSDOF 4
ENDMDL
MODEL 3
REMARK VINA RESULT:      -6.7      3.557      8.489
REMARK  Name = 
REMARK  6 active torsions:
REMARK  status: ('A' for Active; 'I' for Inactive)
REMARK    1  A    between atoms: C_1  and  C_2
REMARK    2  A    between atoms: C_7  and  S_8
REMARK    3  A    between atoms: S_8  and  C_9
REMARK    4  A    between atoms: C_9  and  C_10
REMARK    5  A    between atoms: C_9  and  C_11
REMARK    6  A    between atoms: N_17  and  C_18
REMARK                            x       y       z     vdW  Elec       q    Type
REMARK                         _______ _______ _______ _____ _____    ______ ____
ROOT
ATOM      1  C   UNL     1       1.958   6.650  19.784  0.00  0.00    +0.000 C 
ATOM      2  O   UNL     1       1.835   6.086  20.878  0.00  0.00    +0.000 OA
ATOM      3  N   UNL     1       1.525   7.997  19.604  0.00  0.00    +0.000 N 
ATOM      4  C   UNL     1       1.693   8.709  18.333  0.00  0.00    +0.000 C 
ATOM      5  C   UNL     1       0.577   9.630  17.838  0.00  0.00    +0.000 C 
ATOM      6  C   UNL     1      -0.153  10.573  18.783  0.00  0.00    +0.000 C 
ATOM      7  N   UNL     1       0.535  11.023  19.981  0.00  0.00    +0.000 NA
ATOM      8  C   UNL     1       0.566   9.964  20.990  0.00  0.00    +0.000 C 
ATOM      9  C   UNL     1       1.559   8.805  20.833  0.00  0.00    +0.000 C 
ENDROOT
BRANCH   7  10
ATOM     10  C   UNL     1       1.740  11.831  19.785  0.00  0.00    +0.000 C 
ATOM     11  C   UNL     1       1.736  12.583  18.445  0.00  0.00    +0.000 C 
ATOM     12  C   UNL     1       2.776  13.681  18.618  0.00  0.00    +0.000 C 
ATOM     13  C   UNL     1       2.728  14.061  20.091  0.00  0.00    +0.000 C 
ATOM     14  C   UNL     1       1.906  12.980  20.793  0.00  0.00    +0.000 C 
ENDBRANCH   7  10
BRANCH   1  15
ATOM     15  C   UNL     1       2.725   5.933  18.647  0.00  0.00    +0.000 C 
ATOM     16  C   UNL     1       1.891   4.872  17.932  0.00  0.00    +0.000 C 
BRANCH  15  17
ATOM     17  S   UNL     1       4.263   5.206  19.357  0.00  0.00    +0.000 S 
BRANCH  17  24
ATOM     18  C   UNL     1       6.165   3.705  14.884  0.00  0.00    +0.000 C 
ATOM     19  C   UNL     1       6.199   4.717  15.995  0.00  0.00    +0.000 A 
ATOM     20  C   UNL     1       7.067   5.738  15.969  0.00  0.00    +0.000 A 
ATOM     21  C   UNL     1       7.054   6.690  17.089  0.00  0.00    +0.000 A 
ATOM     22  O   UNL     1       7.815   7.650  17.123  0.00  0.00    +0.000 OA
ATOM     23  N   UNL     1       6.146   6.430  18.062  0.00  0.00    +0.000 N 
ATOM     24  C   UNL     1       5.333   5.346  17.997  0.00  0.00    +0.000 A 
ATOM     25  N   UNL     1       5.300   4.506  17.017  0.00  0.00    +0.000 NA
ATOM     26  H   UNL     1       6.113   7.045  18.855  0.00  0.00    +0.000 HD
ENDBRANCH  17  24
ENDBRANCH  15  17
ENDBRANCH   1  15
TORSDOF 4
ENDMDL
MODEL 4
REMARK VINA RESULT:      -6.7      3.565      8.773
REMARK  Name = 
REMARK  6 active torsions:
REMARK  status: ('A' for Active; 'I' for Inactive)
REMARK    1  A    between atoms: C_1  and  C_2
REMARK    2  A    between atoms: C_7  and  S_8
REMARK    3  A    between atoms: S_8  and  C_9
REMARK    4  A    between atoms: C_9  and  C_10
REMARK    5  A    between atoms: C_9  and  C_11
REMARK    6  A    between atoms: N_17  and  C_18
REMARK                            x       y       z     vdW  Elec       q    Type
REMARK                         _______ _______ _______ _____ _____    ______ ____
ROOT
ATOM      1  C   UNL     1       1.914   6.766  19.961  0.00  0.00    +0.000 C 
ATOM      2  O   UNL     1       1.733   6.261  21.076  0.00  0.00    +0.000 OA
ATOM      3  N   UNL     1       1.502   8.104  19.690  0.00  0.00    +0.000 N 
ATOM      4  C   UNL     1       1.737   8.746  18.392  0.00  0.00    +0.000 C 
ATOM      5  C   UNL     1       0.655   9.647  17.796  0.00  0.00    +0.000 C 
ATOM      6  C   UNL     1      -0.110  10.644  18.654  0.00  0.00    +0.000 C 
ATOM      7  N   UNL     1       0.525  11.153  19.858  0.00  0.00    +0.000 NA
ATOM      8  C   UNL     1       0.497  10.149  20.922  0.00  0.00    +0.000 C 
ATOM      9  C   UNL     1       1.485   8.976  20.874  0.00  0.00    +0.000 C 
ENDROOT
BRANCH   7  10
ATOM     10  C   UNL     1       1.746  11.940  19.677  0.00  0.00    +0.000 C 
ATOM     11  C   UNL     1       1.716  12.792  18.399  0.00  0.00    +0.000 C 
ATOM     12  C   UNL     1       2.794  13.846  18.614  0.00  0.00    +0.000 C 
ATOM     13  C   UNL     1       2.809  14.114  20.112  0.00  0.00    +0.000 C 
ATOM     14  C   UNL     1       1.981  13.005  20.762  0.00  0.00    +0.000 C 
ENDBRANCH   7  10
BRANCH   1  15
ATOM     15  C   UNL     1       2.727   5.984  18.902  0.00  0.00    +0.000 C 
ATOM     16  C   UNL     1       1.857   5.363  17.810  0.00  0.00    +0.000 C 
BRANCH  15  17
ATOM     17  S   UNL     1       3.722   4.699  19.772  0.00  0.00    +0.000 S 
BRANCH  17  24
ATOM     18  C   UNL     1       6.222   4.039  15.390  0.00  0.00    +0.000 C 
ATOM     19  C   UNL     1       6.299   4.414  16.843  0.00  0.00    +0.000 A 
ATOM     20  C   UNL     1       7.472   4.729  17.412  0.00  0.00    +0.000 A 
ATOM     21  C   UNL     1       7.481   5.080  18.839  0.00  0.00    +0.000 A 
ATOM     22  O   UNL     1       8.516   5.386  19.417  0.00  0.00    +0.000 OA
ATOM     23  N   UNL     1       6.272   5.046  19.453  0.00  0.00    +0.000 N 
ATOM     24  C   UNL     1       5.149   4.685  18.782  0.00  0.00    +0.000 A 
ATOM     25  N   UNL     1       5.102   4.396  17.525  0.00  0.00    +0.000 NA
ATOM     26  H   UNL     1       6.233   5.263  20.433  0.00  0.00    +0.000 HD
ENDBRANCH  17  24
ENDBRANCH  15  17
ENDBRANCH   1  15
TORSDOF 4
ENDMDL
MODEL 5
REMARK VINA RESULT:      -6.7      5.688      9.466
REMARK  Name = 
REMARK  6 active torsions:
REMARK  status: ('A' for Active; 'I' for Inactive)
REMARK    1  A    between atoms: C_1  and  C_2
REMARK    2  A    between atoms: C_7  and  S_8
REMARK    3  A    between atoms: S_8  and  C_9
REMARK    4  A    between atoms: C_9  and  C_10
REMARK    5  A    between atoms: C_9  and  C_11
REMARK    6  A    between atoms: N_17  and  C_18
REMARK                            x       y       z     vdW  Elec       q    Type
REMARK                         _______ _______ _______ _____ _____    ______ ____
ROOT
ATOM      1  C   UNL     1      -3.698  15.140  23.110  0.00  0.00    +0.000 C 
ATOM      2  O   UNL     1      -3.483  16.184  22.482  0.00  0.00    +0.000 OA
ATOM      3  N   UNL     1      -4.832  14.329  22.812  0.00  0.00    +0.000 N 
ATOM      4  C   UNL     1      -5.095  13.065  23.510  0.00  0.00    +0.000 C 
ATOM      5  C   UNL     1      -6.532  12.703  23.885  0.00  0.00    +0.000 C 
ATOM      6  C   UNL     1      -7.687  12.925  22.919  0.00  0.00    +0.000 C 
ATOM      7  N   UNL     1      -7.404  12.939  21.493  0.00  0.00    +0.000 NA
ATOM      8  C   UNL     1      -6.775  14.201  21.103  0.00  0.00    +0.000 C 
ATOM      9  C   UNL     1      -5.291  14.430  21.418  0.00  0.00    +0.000 C 
ENDROOT
BRANCH   7  10
ATOM     10  C   UNL     1      -6.892  11.698  20.910  0.00  0.00    +0.000 C 
ATOM     11  C   UNL     1      -7.860  10.517  21.088  0.00  0.00    +0.000 C 
ATOM     12  C   UNL     1      -7.407   9.491  20.059  0.00  0.00    +0.000 C 
ATOM     13  C   UNL     1      -6.862  10.298  18.890  0.00  0.00    +0.000 C 
ATOM     14  C   UNL     1      -6.717  11.738  19.383  0.00  0.00    +0.000 C 
ENDBRANCH   7  10
BRANCH   1  15
ATOM     15  C   UNL     1      -2.644  14.640  24.126  0.00  0.00    +0.000 C 
ATOM     16  C   UNL     1      -2.716  15.357  25.473  0.00  0.00    +0.000 C 
BRANCH  15  17
ATOM     17  S   UNL     1      -0.976  14.822  23.363  0.00  0.00    +0.000 S 
BRANCH  17  24
ATOM     18  C   UNL     1      -0.498   9.766  23.060  0.00  0.00    +0.000 C 
ATOM     19  C   UNL     1      -0.663  11.065  22.322  0.00  0.00    +0.000 A 
ATOM     20  C   UNL     1      -0.707  11.095  20.982  0.00  0.00    +0.000 A 
ATOM     21  C   UNL     1      -0.864  12.398  20.321  0.00  0.00    +0.000 A 
ATOM     22  O   UNL     1      -0.920  12.494  19.101  0.00  0.00    +0.000 OA
ATOM     23  N   UNL     1      -0.945  13.466  21.153  0.00  0.00    +0.000 N 
ATOM     24  C   UNL     1      -0.861  13.319  22.499  0.00  0.00    +0.000 A 
ATOM     25  N   UNL     1      -0.749  12.189  23.113  0.00  0.00    +0.000 NA
ATOM     26  H   UNL     1      -1.036  14.379  20.744  0.00  0.00    +0.000 HD
ENDBRANCH  17  24
ENDBRANCH  15  17
ENDBRANCH   1  15
TORSDOF 4
ENDMDL
MODEL 6
REMARK VINA RESULT:      -6.7      3.539      4.948
REMARK  Name = 
REMARK  6 active torsions:
REMARK  status: ('A' for Active; 'I' for Inactive)
REMARK    1  A    between atoms: C_1  and  C_2
REMARK    2  A    between atoms: C_7  and  S_8
REMARK    3  A    between atoms: S_8  and  C_9
REMARK    4  A    between atoms: C_9  and  C_10
REMARK    5  A    between atoms: C_9  and  C_11
REMARK    6  A    between atoms: N_17  and  C_18
REMARK                            x       y       z     vdW  Elec       q    Type
REMARK                         _______ _______ _______ _____ _____    ______ ____
ROOT
ATOM      1  C   UNL     1       2.756   6.109  18.812  0.00  0.00    +0.000 C 
ATOM      2  O   UNL     1       1.863   5.314  19.130  0.00  0.00    +0.000 OA
ATOM      3  N   UNL     1       3.927   5.658  18.135  0.00  0.00    +0.000 N 
ATOM      4  C   UNL     1       4.986   6.579  17.708  0.00  0.00    +0.000 C 
ATOM      5  C   UNL     1       6.448   6.153  17.843  0.00  0.00    +0.000 C 
ATOM      6  C   UNL     1       6.904   4.749  17.474  0.00  0.00    +0.000 C 
ATOM      7  N   UNL     1       6.130   4.004  16.495  0.00  0.00    +0.000 NA
ATOM      8  C   UNL     1       4.894   3.494  17.090  0.00  0.00    +0.000 C 
ATOM      9  C   UNL     1       3.719   4.454  17.317  0.00  0.00    +0.000 C 
ENDROOT
BRANCH   7  10
ATOM     10  C   UNL     1       6.072   4.557  15.141  0.00  0.00    +0.000 C 
ATOM     11  C   UNL     1       7.459   4.938  14.598  0.00  0.00    +0.000 C 
ATOM     12  C   UNL     1       7.267   5.037  13.091  0.00  0.00    +0.000 C 
ATOM     13  C   UNL     1       6.197   4.011  12.747  0.00  0.00    +0.000 C 
ATOM     14  C   UNL     1       5.573   3.571  14.072  0.00  0.00    +0.000 C 
ENDBRANCH   7  10
BRANCH   1  15
ATOM     15  C   UNL     1       2.527   7.624  19.022  0.00  0.00    +0.000 C 
ATOM     16  C   UNL     1       1.784   7.950  20.317  0.00  0.00    +0.000 C 
BRANCH  15  17
ATOM     17  S   UNL     1       1.625   8.280  17.554  0.00  0.00    +0.000 S 
BRANCH  17  24
ATOM     18  C   UNL     1      -1.515  11.655  19.708  0.00  0.00    +0.000 C 
ATOM     19  C   UNL     1      -0.166  11.396  19.098  0.00  0.00    +0.000 A 
ATOM     20  C   UNL     1       0.731  12.383  18.967  0.00  0.00    +0.000 A 
ATOM     21  C   UNL     1       2.029  12.066  18.357  0.00  0.00    +0.000 A 
ATOM     22  O   UNL     1       2.897  12.920  18.217  0.00  0.00    +0.000 OA
ATOM     23  N   UNL     1       2.192  10.776  17.973  0.00  0.00    +0.000 N 
ATOM     24  C   UNL     1       1.200   9.863  18.129  0.00  0.00    +0.000 A 
ATOM     25  N   UNL     1       0.059  10.101  18.684  0.00  0.00    +0.000 NA
ATOM     26  H   UNL     1       3.058  10.517  17.535  0.00  0.00    +0.000 HD
ENDBRANCH  17  24
ENDBRANCH  15  17
ENDBRANCH   1  15
TORSDOF 4
ENDMDL
MODEL 7
REMARK VINA RESULT:      -6.6      3.680      8.435
REMARK  Name = 
REMARK  6 active torsions:
REMARK  status: ('A' for Active; 'I' for Inactive)
REMARK    1  A    between atoms: C_1  and  C_2
REMARK    2  A    between atoms: C_7  and  S_8
REMARK    3  A    between atoms: S_8  and  C_9
REMARK    4  A    between atoms: C_9  and  C_10
REMARK    5  A    between atoms: C_9  and  C_11
REMARK    6  A    between atoms: N_17  and  C_18
REMARK                            x       y       z     vdW  Elec       q    Type
REMARK                         _______ _______ _______ _____ _____    ______ ____
ROOT
ATOM      1  C   UNL     1       1.899   6.586  19.824  0.00  0.00    +0.000 C 
ATOM      2  O   UNL     1       1.749   6.030  20.919  0.00  0.00    +0.000 OA
ATOM      3  N   UNL     1       1.484   7.936  19.628  0.00  0.00    +0.000 N 
ATOM      4  C   UNL     1       1.684   8.638  18.355  0.00  0.00    +0.000 C 
ATOM      5  C   UNL     1       0.588   9.568  17.834  0.00  0.00    +0.000 C 
ATOM      6  C   UNL     1      -0.150  10.525  18.759  0.00  0.00    +0.000 C 
ATOM      7  N   UNL     1       0.521  10.976  19.967  0.00  0.00    +0.000 NA
ATOM      8  C   UNL     1       0.520   9.923  20.983  0.00  0.00    +0.000 C 
ATOM      9  C   UNL     1       1.504   8.752  20.852  0.00  0.00    +0.000 C 
ENDROOT
BRANCH   7  10
ATOM     10  C   UNL     1       1.738  11.769  19.789  0.00  0.00    +0.000 C 
ATOM     11  C   UNL     1       1.766  12.516  18.446  0.00  0.00    +0.000 C 
ATOM     12  C   UNL     1       2.816  13.602  18.632  0.00  0.00    +0.000 C 
ATOM     13  C   UNL     1       2.745  13.989  20.103  0.00  0.00    +0.000 C 
ATOM     14  C   UNL     1       1.900  12.920  20.795  0.00  0.00    +0.000 C 
ENDBRANCH   7  10
BRANCH   1  15
ATOM     15  C   UNL     1       2.679   5.854  18.707  0.00  0.00    +0.000 C 
ATOM     16  C   UNL     1       1.820   4.869  17.915  0.00  0.00    +0.000 C 
BRANCH  15  17
ATOM     17  S   UNL     1       4.127   5.008  19.473  0.00  0.00    +0.000 S 
BRANCH  17  24
ATOM     18  C   UNL     1       7.865   7.851  17.518  0.00  0.00    +0.000 C 
ATOM     19  C   UNL     1       7.039   6.601  17.404  0.00  0.00    +0.000 A 
ATOM     20  C   UNL     1       7.219   5.746  16.387  0.00  0.00    +0.000 A 
ATOM     21  C   UNL     1       6.374   4.546  16.330  0.00  0.00    +0.000 A 
ATOM     22  O   UNL     1       6.494   3.720  15.433  0.00  0.00    +0.000 OA
ATOM     23  N   UNL     1       5.471   4.422  17.334  0.00  0.00    +0.000 N 
ATOM     24  C   UNL     1       5.357   5.368  18.301  0.00  0.00    +0.000 A 
ATOM     25  N   UNL     1       6.099   6.420  18.395  0.00  0.00    +0.000 NA
ATOM     26  H   UNL     1       4.860   3.625  17.327  0.00  0.00    +0.000 HD
ENDBRANCH  17  24
ENDBRANCH  15  17
ENDBRANCH   1  15
TORSDOF 4
ENDMDL
MODEL 8
REMARK VINA RESULT:      -6.6      1.128      1.198
REMARK  Name = 
REMARK  6 active torsions:
REMARK  status: ('A' for Active; 'I' for Inactive)
REMARK    1  A    between atoms: C_1  and  C_2
REMARK    2  A    between atoms: C_7  and  S_8
REMARK    3  A    between atoms: S_8  and  C_9
REMARK    4  A    between atoms: C_9  and  C_10
REMARK    5  A    between atoms: C_9  and  C_11
REMARK    6  A    between atoms: N_17  and  C_18
REMARK                            x       y       z     vdW  Elec       q    Type
REMARK                         _______ _______ _______ _____ _____    ______ ____
ROOT
ATOM      1  C   UNL     1       0.734  10.279  20.069  0.00  0.00    +0.000 C 
ATOM      2  O   UNL     1       0.710  10.615  21.259  0.00  0.00    +0.000 OA
ATOM      3  N   UNL     1       1.384   9.077  19.661  0.00  0.00    +0.000 N 
ATOM      4  C   UNL     1       1.395   8.629  18.264  0.00  0.00    +0.000 C 
ATOM      5  C   UNL     1       2.667   8.004  17.690  0.00  0.00    +0.000 C 
ATOM      6  C   UNL     1       3.489   7.000  18.486  0.00  0.00    +0.000 C 
ATOM      7  N   UNL     1       2.821   6.215  19.510  0.00  0.00    +0.000 NA
ATOM      8  C   UNL     1       2.572   7.024  20.703  0.00  0.00    +0.000 C 
ATOM      9  C   UNL     1       1.416   8.034  20.698  0.00  0.00    +0.000 C 
ENDROOT
BRANCH   7  10
ATOM     10  C   UNL     1       1.771   5.300  19.059  0.00  0.00    +0.000 C 
ATOM     11  C   UNL     1       2.267   4.307  17.996  0.00  0.00    +0.000 C 
ATOM     12  C   UNL     1       1.233   3.191  18.000  0.00  0.00    +0.000 C 
ATOM     13  C   UNL     1       0.732   3.104  19.435  0.00  0.00    +0.000 C 
ATOM     14  C   UNL     1       1.239   4.356  20.150  0.00  0.00    +0.000 C 
ENDBRANCH   7  10
BRANCH   1  15
ATOM     15  C   UNL     1      -0.079  11.099  19.038  0.00  0.00    +0.000 C 
ATOM     16  C   UNL     1       0.658  12.339  18.536  0.00  0.00    +0.000 C 
BRANCH  15  17
ATOM     17  S   UNL     1      -1.695  11.547  19.802  0.00  0.00    +0.000 S 
BRANCH  17  24
ATOM     18  C   UNL     1      -5.974  12.434  17.197  0.00  0.00    +0.000 C 
ATOM     19  C   UNL     1      -4.639  11.743  17.235  0.00  0.00    +0.000 A 
ATOM     20  C   UNL     1      -4.242  10.957  16.225  0.00  0.00    +0.000 A 
ATOM     21  C   UNL     1      -2.928  10.306  16.327  0.00  0.00    +0.000 A 
ATOM     22  O   UNL     1      -2.502   9.582  15.435  0.00  0.00    +0.000 OA
ATOM     23  N   UNL     1      -2.236  10.569  17.463  0.00  0.00    +0.000 N 
ATOM     24  C   UNL     1      -2.750  11.362  18.435  0.00  0.00    +0.000 A 
ATOM     25  N   UNL     1      -3.888  11.970  18.367  0.00  0.00    +0.000 NA
ATOM     26  H   UNL     1      -1.339  10.132  17.583  0.00  0.00    +0.000 HD
ENDBRANCH  17  24
ENDBRANCH  15  17
ENDBRANCH   1  15
TORSDOF 4
ENDMDL
MODEL 9
REMARK VINA RESULT:      -6.5      5.163      7.534
REMARK  Name = 
REMARK  6 active torsions:
REMARK  status: ('A' for Active; 'I' for Inactive)
REMARK    1  A    between atoms: C_1  and  C_2
REMARK    2  A    between atoms: C_7  and  S_8
REMARK    3  A    between atoms: S_8  and  C_9
REMARK    4  A    between atoms: C_9  and  C_10
REMARK    5  A    between atoms: C_9  and  C_11
REMARK    6  A    between atoms: N_17  and  C_18
REMARK                            x       y       z     vdW  Elec       q    Type
REMARK                         _______ _______ _______ _____ _____    ______ ____
ROOT
ATOM      1  C   UNL     1      -4.939  13.717  22.713  0.00  0.00    +0.000 C 
ATOM      2  O   UNL     1      -5.238  13.526  23.898  0.00  0.00    +0.000 OA
ATOM      3  N   UNL     1      -3.604  13.514  22.254  0.00  0.00    +0.000 N 
ATOM      4  C   UNL     1      -3.225  13.693  20.848  0.00  0.00    +0.000 C 
ATOM      5  C   UNL     1      -1.883  14.345  20.513  0.00  0.00    +0.000 C 
ATOM      6  C   UNL     1      -0.614  13.991  21.274  0.00  0.00    +0.000 C 
ATOM      7  N   UNL     1      -0.526  12.685  21.905  0.00  0.00    +0.000 NA
ATOM      8  C   UNL     1      -1.325  12.647  23.130  0.00  0.00    +0.000 C 
ATOM      9  C   UNL     1      -2.851  12.516  23.028  0.00  0.00    +0.000 C 
ENDROOT
BRANCH   7  10
ATOM     10  C   UNL     1      -0.558  11.521  21.018  0.00  0.00    +0.000 C 
ATOM     11  C   UNL     1       0.421  11.648  19.840  0.00  0.00    +0.000 C 
ATOM     12  C   UNL     1       0.592  10.225  19.327  0.00  0.00    +0.000 C 
ATOM     13  C   UNL     1       0.457   9.331  20.552  0.00  0.00    +0.000 C 
ATOM     14  C   UNL     1      -0.096  10.209  21.674  0.00  0.00    +0.000 C 
ENDBRANCH   7  10
BRANCH   1  15
ATOM     15  C   UNL     1      -6.059  14.036  21.694  0.00  0.00    +0.000 C 
ATOM     16  C   UNL     1      -6.504  15.497  21.722  0.00  0.00    +0.000 C 
BRANCH  15  17
ATOM     17  S   UNL     1      -7.476  12.902  22.022  0.00  0.00    +0.000 S 
BRANCH  17  24
ATOM     18  C   UNL     1      -5.653  11.208  17.584  0.00  0.00    +0.000 C 
ATOM     19  C   UNL     1      -6.366  10.877  18.865  0.00  0.00    +0.000 A 
ATOM     20  C   UNL     1      -6.803   9.633  19.108  0.00  0.00    +0.000 A 
ATOM     21  C   UNL     1      -7.499   9.376  20.376  0.00  0.00    +0.000 A 
ATOM     22  O   UNL     1      -7.915   8.261  20.664  0.00  0.00    +0.000 OA
ATOM     23  N   UNL     1      -7.637  10.451  21.192  0.00  0.00    +0.000 N 
ATOM     24  C   UNL     1      -7.177  11.675  20.829  0.00  0.00    +0.000 A 
ATOM     25  N   UNL     1      -6.540  11.930  19.736  0.00  0.00    +0.000 NA
ATOM     26  H   UNL     1      -8.121  10.325  22.063  0.00  0.00    +0.000 HD
ENDBRANCH  17  24
ENDBRANCH  15  17
ENDBRANCH   1  15
TORSDOF 4
ENDMDL
