MODEL 1
REMARK VINA RESULT:      -7.0      0.000      0.000
REMARK  Name = 
REMARK  14 active torsions:
REMARK  status: ('A' for Active; 'I' for Inactive)
REMARK    1  A    between atoms: C_1  and  C_2
REMARK    2  A    between atoms: C_2  and  N_3
REMARK    3  A    between atoms: N_3  and  C_4
REMARK    4  A    between atoms: N_3  and  S_6
REMARK    5  A    between atoms: C_4  and  C_5
REMARK    6  A    between atoms: S_6  and  C_9
REMARK    7  A    between atoms: N_13  and  C_14
REMARK    8  A    between atoms: N_13  and  C_15
REMARK    9  A    between atoms: C_15  and  C_16
REMARK   10  A    between atoms: C_16  and  C_17
REMARK   11  A    between atoms: C_20  and  O_21
REMARK   12  A    between atoms: O_21  and  C_22
REMARK   13  A    between atoms: C_23  and  O_24
REMARK   14  A    between atoms: O_24  and  C_25
REMARK                            x       y       z     vdW  Elec       q    Type
REMARK                         _______ _______ _______ _____ _____    ______ ____
ROOT
ATOM      1  C   UNL     1       1.252   9.229  19.870  0.00  0.00    +0.000 A 
ATOM      2  C   UNL     1       0.952   8.513  21.022  0.00  0.00    +0.000 A 
ATOM      3  C   UNL     1       1.339   7.166  21.107  0.00  0.00    +0.000 A 
ATOM      4  C   UNL     1       2.011   6.545  20.047  0.00  0.00    +0.000 A 
ATOM      5  N   UNL     1       2.291   5.185  20.028  0.00  0.00    +0.000 N 
ATOM      6  C   UNL     1       1.505   4.236  20.801  0.00  0.00    +0.000 C 
ATOM      7  N   UNL     1       2.367   7.285  18.971  0.00  0.00    +0.000 NA
ATOM      8  C   UNL     1       1.996   8.595  18.902  0.00  0.00    +0.000 A 
ENDROOT
BRANCH   1   9
ATOM      9  S   UNL     1       0.832  10.932  19.685  0.00  0.00    +0.000 S 
ATOM     10  O   UNL     1       1.360  11.367  18.403  0.00  0.00    +0.000 OA
ATOM     11  O   UNL     1       1.209  11.618  20.910  0.00  0.00    +0.000 OA
BRANCH   9  12
ATOM     12  N   UNL     1      -0.901  10.981  19.599  0.00  0.00    +0.000 NA
BRANCH  12  14
ATOM     13  C   UNL     1      -1.894  13.170  20.424  0.00  0.00    +0.000 C 
ATOM     14  C   UNL     1      -1.525  11.727  20.737  0.00  0.00    +0.000 C 
ENDBRANCH  12  14
BRANCH  12  15
ATOM     15  C   UNL     1      -1.433  11.347  18.242  0.00  0.00    +0.000 C 
ATOM     16  C   UNL     1      -1.919  10.162  17.421  0.00  0.00    +0.000 C 
ENDBRANCH  12  15
ENDBRANCH   9  12
ENDBRANCH   1   9
BRANCH   5  17
ATOM     17  C   UNL     1       3.587   4.771  19.443  0.00  0.00    +0.000 C 
BRANCH  17  18
ATOM     18  C   UNL     1       3.468   4.137  18.044  0.00  0.00    +0.000 C 
BRANCH  18  19
ATOM     19  C   UNL     1       4.613   4.516  17.123  0.00  0.00    +0.000 A 
ATOM     20  C   UNL     1       5.012   3.671  16.085  0.00  0.00    +0.000 A 
ATOM     21  C   UNL     1       6.078   4.030  15.256  0.00  0.00    +0.000 A 
ATOM     22  C   UNL     1       6.773   5.236  15.438  0.00  0.00    +0.000 A 
ATOM     23  C   UNL     1       6.385   6.095  16.483  0.00  0.00    +0.000 A 
ATOM     24  C   UNL     1       5.299   5.727  17.300  0.00  0.00    +0.000 A 
BRANCH  22  25
ATOM     25  O   UNL     1       7.777   5.403  14.519  0.00  0.00    +0.000 OA
ATOM     26  C   UNL     1       7.564   4.970  13.184  0.00  0.00    +0.000 C 
ENDBRANCH  22  25
BRANCH  23  27
ATOM     27  O   UNL     1       7.092   7.254  16.667  0.00  0.00    +0.000 OA
ATOM     28  C   UNL     1       7.790   7.434  17.891  0.00  0.00    +0.000 C 
ENDBRANCH  23  27
ENDBRANCH  18  19
ENDBRANCH  17  18
ENDBRANCH   5  17
TORSDOF 9
ENDMDL
MODEL 2
REMARK VINA RESULT:      -6.8      3.805      8.919
REMARK  Name = 
REMARK  14 active torsions:
REMARK  status: ('A' for Active; 'I' for Inactive)
REMARK    1  A    between atoms: C_1  and  C_2
REMARK    2  A    between atoms: C_2  and  N_3
REMARK    3  A    between atoms: N_3  and  C_4
REMARK    4  A    between atoms: N_3  and  S_6
REMARK    5  A    between atoms: C_4  and  C_5
REMARK    6  A    between atoms: S_6  and  C_9
REMARK    7  A    between atoms: N_13  and  C_14
REMARK    8  A    between atoms: N_13  and  C_15
REMARK    9  A    between atoms: C_15  and  C_16
REMARK   10  A    between atoms: C_16  and  C_17
REMARK   11  A    between atoms: C_20  and  O_21
REMARK   12  A    between atoms: O_21  and  C_22
REMARK   13  A    between atoms: C_23  and  O_24
REMARK   14  A    between atoms: O_24  and  C_25
REMARK                            x       y       z     vdW  Elec       q    Type
REMARK                         _______ _______ _______ _____ _____    ______ ____
ROOT
ATOM      1  C   UNL     1       2.670   6.398  19.322  0.00  0.00    +0.000 A 
ATOM      2  C   UNL     1       1.806   6.362  20.409  0.00  0.00    +0.000 A 
ATOM      3  C   UNL     1       1.138   7.537  20.788  0.00  0.00    +0.000 A 
ATOM      4  C   UNL     1       1.341   8.734  20.090  0.00  0.00    +0.000 A 
ATOM      5  N   UNL     1       0.813   9.948  20.509  0.00  0.00    +0.000 N 
ATOM      6  C   UNL     1       0.464  10.185  21.901  0.00  0.00    +0.000 C 
ATOM      7  N   UNL     1       2.121   8.726  18.984  0.00  0.00    +0.000 NA
ATOM      8  C   UNL     1       2.757   7.576  18.617  0.00  0.00    +0.000 A 
ENDROOT
BRANCH   1   9
ATOM      9  S   UNL     1       3.530   4.966  18.755  0.00  0.00    +0.000 S 
ATOM     10  O   UNL     1       4.776   4.892  19.498  0.00  0.00    +0.000 OA
ATOM     11  O   UNL     1       3.537   5.000  17.302  0.00  0.00    +0.000 OA
BRANCH   9  12
ATOM     12  N   UNL     1       2.544   3.615  19.217  0.00  0.00    +0.000 NA
BRANCH  12  14
ATOM     13  C   UNL     1       3.498   1.508  18.165  0.00  0.00    +0.000 C 
ATOM     14  C   UNL     1       2.420   2.581  18.141  0.00  0.00    +0.000 C 
ENDBRANCH  12  14
BRANCH  12  15
ATOM     15  C   UNL     1       2.864   3.065  20.579  0.00  0.00    +0.000 C 
ATOM     16  C   UNL     1       1.643   2.794  21.446  0.00  0.00    +0.000 C 
ENDBRANCH  12  15
ENDBRANCH   9  12
ENDBRANCH   1   9
BRANCH   5  17
ATOM     17  C   UNL     1       0.336  10.875  19.457  0.00  0.00    +0.000 C 
BRANCH  17  18
ATOM     18  C   UNL     1      -1.149  11.264  19.593  0.00  0.00    +0.000 C 
BRANCH  18  19
ATOM     19  C   UNL     1      -1.973  10.889  18.375  0.00  0.00    +0.000 A 
ATOM     20  C   UNL     1      -1.561   9.870  17.514  0.00  0.00    +0.000 A 
ATOM     21  C   UNL     1      -2.326   9.549  16.389  0.00  0.00    +0.000 A 
ATOM     22  C   UNL     1      -3.517  10.231  16.094  0.00  0.00    +0.000 A 
ATOM     23  C   UNL     1      -3.941  11.264  16.951  0.00  0.00    +0.000 A 
ATOM     24  C   UNL     1      -3.168  11.566  18.088  0.00  0.00    +0.000 A 
BRANCH  22  25
ATOM     25  O   UNL     1      -4.119   9.760  14.954  0.00  0.00    +0.000 OA
ATOM     26  C   UNL     1      -3.605  10.158  13.692  0.00  0.00    +0.000 C 
ENDBRANCH  22  25
BRANCH  23  27
ATOM     27  O   UNL     1      -5.089  11.941  16.633  0.00  0.00    +0.000 OA
ATOM     28  C   UNL     1      -5.855  12.506  17.687  0.00  0.00    +0.000 C 
ENDBRANCH  23  27
ENDBRANCH  18  19
ENDBRANCH  17  18
ENDBRANCH   5  17
TORSDOF 9
ENDMDL
MODEL 3
REMARK VINA RESULT:      -6.8      1.021      1.596
REMARK  Name = 
REMARK  14 active torsions:
REMARK  status: ('A' for Active; 'I' for Inactive)
REMARK    1  A    between atoms: C_1  and  C_2
REMARK    2  A    between atoms: C_2  and  N_3
REMARK    3  A    between atoms: N_3  and  C_4
REMARK    4  A    between atoms: N_3  and  S_6
REMARK    5  A    between atoms: C_4  and  C_5
REMARK    6  A    between atoms: S_6  and  C_9
REMARK    7  A    between atoms: N_13  and  C_14
REMARK    8  A    between atoms: N_13  and  C_15
REMARK    9  A    between atoms: C_15  and  C_16
REMARK   10  A    between atoms: C_16  and  C_17
REMARK   11  A    between atoms: C_20  and  O_21
REMARK   12  A    between atoms: O_21  and  C_22
REMARK   13  A    between atoms: C_23  and  O_24
REMARK   14  A    between atoms: O_24  and  C_25
REMARK                            x       y       z     vdW  Elec       q    Type
REMARK                         _______ _______ _______ _____ _____    ______ ____
ROOT
ATOM      1  C   UNL     1       0.769   9.739  20.574  0.00  0.00    +0.000 A 
ATOM      2  C   UNL     1       0.476   8.825  21.578  0.00  0.00    +0.000 A 
ATOM      3  C   UNL     1       0.936   7.505  21.455  0.00  0.00    +0.000 A 
ATOM      4  C   UNL     1       1.674   7.105  20.333  0.00  0.00    +0.000 A 
ATOM      5  N   UNL     1       2.032   5.784  20.100  0.00  0.00    +0.000 N 
ATOM      6  C   UNL     1       1.278   4.680  20.674  0.00  0.00    +0.000 C 
ATOM      7  N   UNL     1       2.020   8.032  19.410  0.00  0.00    +0.000 NA
ATOM      8  C   UNL     1       1.578   9.315  19.545  0.00  0.00    +0.000 A 
ENDROOT
BRANCH   1   9
ATOM      9  S   UNL     1       0.259  11.425  20.657  0.00  0.00    +0.000 S 
ATOM     10  O   UNL     1       1.408  12.200  21.092  0.00  0.00    +0.000 OA
ATOM     11  O   UNL     1      -0.989  11.475  21.401  0.00  0.00    +0.000 OA
BRANCH   9  12
ATOM     12  N   UNL     1      -0.115  11.882  19.025  0.00  0.00    +0.000 NA
BRANCH  12  14
ATOM     13  C   UNL     1      -1.843  10.743  17.551  0.00  0.00    +0.000 C 
ATOM     14  C   UNL     1      -1.564  11.718  18.686  0.00  0.00    +0.000 C 
ENDBRANCH  12  14
BRANCH  12  15
ATOM     15  C   UNL     1       0.480  13.199  18.611  0.00  0.00    +0.000 C 
ATOM     16  C   UNL     1      -0.425  14.398  18.851  0.00  0.00    +0.000 C 
ENDBRANCH  12  15
ENDBRANCH   9  12
ENDBRANCH   1   9
BRANCH   5  17
ATOM     17  C   UNL     1       3.367   5.541  19.507  0.00  0.00    +0.000 C 
BRANCH  17  18
ATOM     18  C   UNL     1       3.341   4.643  18.255  0.00  0.00    +0.000 C 
BRANCH  18  19
ATOM     19  C   UNL     1       4.497   4.912  17.310  0.00  0.00    +0.000 A 
ATOM     20  C   UNL     1       4.778   4.045  16.252  0.00  0.00    +0.000 A 
ATOM     21  C   UNL     1       5.856   4.301  15.400  0.00  0.00    +0.000 A 
ATOM     22  C   UNL     1       6.680   5.424  15.579  0.00  0.00    +0.000 A 
ATOM     23  C   UNL     1       6.411   6.303  16.644  0.00  0.00    +0.000 A 
ATOM     24  C   UNL     1       5.313   6.040  17.484  0.00  0.00    +0.000 A 
BRANCH  22  25
ATOM     25  O   UNL     1       7.673   5.497  14.636  0.00  0.00    +0.000 OA
ATOM     26  C   UNL     1       7.442   4.939  13.351  0.00  0.00    +0.000 C 
ENDBRANCH  22  25
BRANCH  23  27
ATOM     27  O   UNL     1       7.242   7.378  16.825  0.00  0.00    +0.000 OA
ATOM     28  C   UNL     1       7.882   7.534  18.083  0.00  0.00    +0.000 C 
ENDBRANCH  23  27
ENDBRANCH  18  19
ENDBRANCH  17  18
ENDBRANCH   5  17
TORSDOF 9
ENDMDL
MODEL 4
REMARK VINA RESULT:      -6.7      1.386      1.803
REMARK  Name = 
REMARK  14 active torsions:
REMARK  status: ('A' for Active; 'I' for Inactive)
REMARK    1  A    between atoms: C_1  and  C_2
REMARK    2  A    between atoms: C_2  and  N_3
REMARK    3  A    between atoms: N_3  and  C_4
REMARK    4  A    between atoms: N_3  and  S_6
REMARK    5  A    between atoms: C_4  and  C_5
REMARK    6  A    between atoms: S_6  and  C_9
REMARK    7  A    between atoms: N_13  and  C_14
REMARK    8  A    between atoms: N_13  and  C_15
REMARK    9  A    between atoms: C_15  and  C_16
REMARK   10  A    between atoms: C_16  and  C_17
REMARK   11  A    between atoms: C_20  and  O_21
REMARK   12  A    between atoms: O_21  and  C_22
REMARK   13  A    between atoms: C_23  and  O_24
REMARK   14  A    between atoms: O_24  and  C_25
REMARK                            x       y       z     vdW  Elec       q    Type
REMARK                         _______ _______ _______ _____ _____    ______ ____
ROOT
ATOM      1  C   UNL     1       1.569   8.831  19.011  0.00  0.00    +0.000 A 
ATOM      2  C   UNL     1       1.302   8.358  20.289  0.00  0.00    +0.000 A 
ATOM      3  C   UNL     1       1.813   7.108  20.676  0.00  0.00    +0.000 A 
ATOM      4  C   UNL     1       2.576   6.341  19.787  0.00  0.00    +0.000 A 
ATOM      5  N   UNL     1       2.986   5.045  20.072  0.00  0.00    +0.000 N 
ATOM      6  C   UNL     1       2.269   4.215  21.028  0.00  0.00    +0.000 C 
ATOM      7  N   UNL     1       2.895   6.859  18.577  0.00  0.00    +0.000 NA
ATOM      8  C   UNL     1       2.403   8.078  18.216  0.00  0.00    +0.000 A 
ENDROOT
BRANCH   1   9
ATOM      9  S   UNL     1       0.995  10.400  18.449  0.00  0.00    +0.000 S 
ATOM     10  O   UNL     1      -0.353  10.207  17.943  0.00  0.00    +0.000 OA
ATOM     11  O   UNL     1       2.027  10.972  17.600  0.00  0.00    +0.000 OA
BRANCH   9  12
ATOM     12  N   UNL     1       0.902  11.400  19.865  0.00  0.00    +0.000 NA
BRANCH  12  14
ATOM     13  C   UNL     1       2.267  13.267  20.917  0.00  0.00    +0.000 C 
ATOM     14  C   UNL     1       1.551  12.737  19.684  0.00  0.00    +0.000 C 
ENDBRANCH  12  14
BRANCH  12  15
ATOM     15  C   UNL     1      -0.465  11.446  20.489  0.00  0.00    +0.000 C 
ATOM     16  C   UNL     1      -0.487  11.099  21.970  0.00  0.00    +0.000 C 
ENDBRANCH  12  15
ENDBRANCH   9  12
ENDBRANCH   1   9
BRANCH   5  17
ATOM     17  C   UNL     1       4.335   4.647  19.608  0.00  0.00    +0.000 C 
BRANCH  17  18
ATOM     18  C   UNL     1       4.323   3.683  18.405  0.00  0.00    +0.000 C 
BRANCH  18  19
ATOM     19  C   UNL     1       5.155   4.183  17.239  0.00  0.00    +0.000 A 
ATOM     20  C   UNL     1       5.070   3.579  15.983  0.00  0.00    +0.000 A 
ATOM     21  C   UNL     1       5.856   4.044  14.925  0.00  0.00    +0.000 A 
ATOM     22  C   UNL     1       6.744   5.118  15.089  0.00  0.00    +0.000 A 
ATOM     23  C   UNL     1       6.844   5.733  16.351  0.00  0.00    +0.000 A 
ATOM     24  C   UNL     1       6.035   5.264  17.403  0.00  0.00    +0.000 A 
BRANCH  22  25
ATOM     25  O   UNL     1       7.414   5.423  13.931  0.00  0.00    +0.000 OA
ATOM     26  C   UNL     1       7.321   4.532  12.830  0.00  0.00    +0.000 C 
ENDBRANCH  22  25
BRANCH  23  27
ATOM     27  O   UNL     1       7.737   6.761  16.504  0.00  0.00    +0.000 OA
ATOM     28  C   UNL     1       7.578   7.637  17.611  0.00  0.00    +0.000 C 
ENDBRANCH  23  27
ENDBRANCH  18  19
ENDBRANCH  17  18
ENDBRANCH   5  17
TORSDOF 9
ENDMDL
MODEL 5
REMARK VINA RESULT:      -6.7      3.263      9.405
REMARK  Name = 
REMARK  14 active torsions:
REMARK  status: ('A' for Active; 'I' for Inactive)
REMARK    1  A    between atoms: C_1  and  C_2
REMARK    2  A    between atoms: C_2  and  N_3
REMARK    3  A    between atoms: N_3  and  C_4
REMARK    4  A    between atoms: N_3  and  S_6
REMARK    5  A    between atoms: C_4  and  C_5
REMARK    6  A    between atoms: S_6  and  C_9
REMARK    7  A    between atoms: N_13  and  C_14
REMARK    8  A    between atoms: N_13  and  C_15
REMARK    9  A    between atoms: C_15  and  C_16
REMARK   10  A    between atoms: C_16  and  C_17
REMARK   11  A    between atoms: C_20  and  O_21
REMARK   12  A    between atoms: O_21  and  C_22
REMARK   13  A    between atoms: C_23  and  O_24
REMARK   14  A    between atoms: O_24  and  C_25
REMARK                            x       y       z     vdW  Elec       q    Type
REMARK                         _______ _______ _______ _____ _____    ______ ____
ROOT
ATOM      1  C   UNL     1       3.003   6.440  19.392  0.00  0.00    +0.000 A 
ATOM      2  C   UNL     1       2.204   6.558  20.522  0.00  0.00    +0.000 A 
ATOM      3  C   UNL     1       1.395   7.696  20.671  0.00  0.00    +0.000 A 
ATOM      4  C   UNL     1       1.396   8.707  19.701  0.00  0.00    +0.000 A 
ATOM      5  N   UNL     1       0.723   9.909  19.868  0.00  0.00    +0.000 N 
ATOM      6  C   UNL     1       0.409  10.428  21.190  0.00  0.00    +0.000 C 
ATOM      7  N   UNL     1       2.117   8.531  18.569  0.00  0.00    +0.000 NA
ATOM      8  C   UNL     1       2.890   7.416  18.429  0.00  0.00    +0.000 A 
ENDROOT
BRANCH   1   9
ATOM      9  S   UNL     1       4.027   5.034  19.106  0.00  0.00    +0.000 S 
ATOM     10  O   UNL     1       3.537   3.965  19.959  0.00  0.00    +0.000 OA
ATOM     11  O   UNL     1       5.411   5.468  19.189  0.00  0.00    +0.000 OA
BRANCH   9  12
ATOM     12  N   UNL     1       3.746   4.578  17.455  0.00  0.00    +0.000 NA
BRANCH  12  14
ATOM     13  C   UNL     1       5.326   5.604  15.749  0.00  0.00    +0.000 C 
ATOM     14  C   UNL     1       5.008   4.429  16.663  0.00  0.00    +0.000 C 
ENDBRANCH  12  14
BRANCH  12  15
ATOM     15  C   UNL     1       2.768   3.448  17.293  0.00  0.00    +0.000 C 
ATOM     16  C   UNL     1       1.327   3.819  17.610  0.00  0.00    +0.000 C 
ENDBRANCH  12  15
ENDBRANCH   9  12
ENDBRANCH   1   9
BRANCH   5  17
ATOM     17  C   UNL     1       0.072  10.490  18.670  0.00  0.00    +0.000 C 
BRANCH  17  18
ATOM     18  C   UNL     1      -0.671  11.812  18.942  0.00  0.00    +0.000 C 
BRANCH  18  19
ATOM     19  C   UNL     1      -2.129  11.768  18.526  0.00  0.00    +0.000 A 
ATOM     20  C   UNL     1      -3.137  12.205  19.387  0.00  0.00    +0.000 A 
ATOM     21  C   UNL     1      -4.477  12.143  18.992  0.00  0.00    +0.000 A 
ATOM     22  C   UNL     1      -4.846  11.646  17.732  0.00  0.00    +0.000 A 
ATOM     23  C   UNL     1      -3.840  11.199  16.855  0.00  0.00    +0.000 A 
ATOM     24  C   UNL     1      -2.495  11.281  17.261  0.00  0.00    +0.000 A 
BRANCH  22  25
ATOM     25  O   UNL     1      -6.203  11.677  17.537  0.00  0.00    +0.000 OA
ATOM     26  C   UNL     1      -6.814  12.901  17.156  0.00  0.00    +0.000 C 
ENDBRANCH  22  25
BRANCH  23  27
ATOM     27  O   UNL     1      -4.218  10.689  15.641  0.00  0.00    +0.000 OA
ATOM     28  C   UNL     1      -3.205  10.358  14.701  0.00  0.00    +0.000 C 
ENDBRANCH  23  27
ENDBRANCH  18  19
ENDBRANCH  17  18
ENDBRANCH   5  17
TORSDOF 9
ENDMDL
MODEL 6
REMARK VINA RESULT:      -6.7      3.231      9.229
REMARK  Name = 
REMARK  14 active torsions:
REMARK  status: ('A' for Active; 'I' for Inactive)
REMARK    1  A    between atoms: C_1  and  C_2
REMARK    2  A    between atoms: C_2  and  N_3
REMARK    3  A    between atoms: N_3  and  C_4
REMARK    4  A    between atoms: N_3  and  S_6
REMARK    5  A    between atoms: C_4  and  C_5
REMARK    6  A    between atoms: S_6  and  C_9
REMARK    7  A    between atoms: N_13  and  C_14
REMARK    8  A    between atoms: N_13  and  C_15
REMARK    9  A    between atoms: C_15  and  C_16
REMARK   10  A    between atoms: C_16  and  C_17
REMARK   11  A    between atoms: C_20  and  O_21
REMARK   12  A    between atoms: O_21  and  C_22
REMARK   13  A    between atoms: C_23  and  O_24
REMARK   14  A    between atoms: O_24  and  C_25
REMARK                            x       y       z     vdW  Elec       q    Type
REMARK                         _______ _______ _______ _____ _____    ______ ____
ROOT
ATOM      1  C   UNL     1       3.067   6.301  18.806  0.00  0.00    +0.000 A 
ATOM      2  C   UNL     1       2.311   6.259  19.970  0.00  0.00    +0.000 A 
ATOM      3  C   UNL     1       1.598   7.404  20.362  0.00  0.00    +0.000 A 
ATOM      4  C   UNL     1       1.651   8.577  19.600  0.00  0.00    +0.000 A 
ATOM      5  N   UNL     1       1.079   9.771  20.016  0.00  0.00    +0.000 N 
ATOM      6  C   UNL     1       0.843  10.050  21.424  0.00  0.00    +0.000 C 
ATOM      7  N   UNL     1       2.325   8.568  18.426  0.00  0.00    +0.000 NA
ATOM      8  C   UNL     1       3.004   7.447  18.047  0.00  0.00    +0.000 A 
ENDROOT
BRANCH   1   9
ATOM      9  S   UNL     1       3.970   4.904  18.219  0.00  0.00    +0.000 S 
ATOM     10  O   UNL     1       3.068   4.132  17.382  0.00  0.00    +0.000 OA
ATOM     11  O   UNL     1       4.627   4.290  19.360  0.00  0.00    +0.000 OA
BRANCH   9  12
ATOM     12  N   UNL     1       5.225   5.549  17.208  0.00  0.00    +0.000 NA
BRANCH  12  14
ATOM     13  C   UNL     1       7.408   6.796  17.580  0.00  0.00    +0.000 C 
ATOM     14  C   UNL     1       6.566   5.563  17.874  0.00  0.00    +0.000 C 
ENDBRANCH  12  14
BRANCH  12  15
ATOM     15  C   UNL     1       5.224   4.998  15.810  0.00  0.00    +0.000 C 
ATOM     16  C   UNL     1       6.145   3.803  15.609  0.00  0.00    +0.000 C 
ENDBRANCH  12  15
ENDBRANCH   9  12
ENDBRANCH   1   9
BRANCH   5  17
ATOM     17  C   UNL     1       0.443  10.613  18.977  0.00  0.00    +0.000 C 
BRANCH  17  18
ATOM     18  C   UNL     1      -0.378   9.817  17.943  0.00  0.00    +0.000 C 
BRANCH  18  19
ATOM     19  C   UNL     1      -1.741  10.427  17.674  0.00  0.00    +0.000 A 
ATOM     20  C   UNL     1      -2.455  11.069  18.687  0.00  0.00    +0.000 A 
ATOM     21  C   UNL     1      -3.716  11.612  18.423  0.00  0.00    +0.000 A 
ATOM     22  C   UNL     1      -4.297  11.530  17.148  0.00  0.00    +0.000 A 
ATOM     23  C   UNL     1      -3.589  10.881  16.118  0.00  0.00    +0.000 A 
ATOM     24  C   UNL     1      -2.314  10.353  16.395  0.00  0.00    +0.000 A 
BRANCH  22  25
ATOM     25  O   UNL     1      -5.530  12.129  17.096  0.00  0.00    +0.000 OA
ATOM     26  C   UNL     1      -6.573  11.623  17.916  0.00  0.00    +0.000 C 
ENDBRANCH  22  25
BRANCH  23  27
ATOM     27  O   UNL     1      -4.181  10.782  14.886  0.00  0.00    +0.000 OA
ATOM     28  C   UNL     1      -3.580   9.940  13.912  0.00  0.00    +0.000 C 
ENDBRANCH  23  27
ENDBRANCH  18  19
ENDBRANCH  17  18
ENDBRANCH   5  17
TORSDOF 9
ENDMDL
MODEL 7
REMARK VINA RESULT:      -6.6      3.506      8.683
REMARK  Name = 
REMARK  14 active torsions:
REMARK  status: ('A' for Active; 'I' for Inactive)
REMARK    1  A    between atoms: C_1  and  C_2
REMARK    2  A    between atoms: C_2  and  N_3
REMARK    3  A    between atoms: N_3  and  C_4
REMARK    4  A    between atoms: N_3  and  S_6
REMARK    5  A    between atoms: C_4  and  C_5
REMARK    6  A    between atoms: S_6  and  C_9
REMARK    7  A    between atoms: N_13  and  C_14
REMARK    8  A    between atoms: N_13  and  C_15
REMARK    9  A    between atoms: C_15  and  C_16
REMARK   10  A    between atoms: C_16  and  C_17
REMARK   11  A    between atoms: C_20  and  O_21
REMARK   12  A    between atoms: O_21  and  C_22
REMARK   13  A    between atoms: C_23  and  O_24
REMARK   14  A    between atoms: O_24  and  C_25
REMARK                            x       y       z     vdW  Elec       q    Type
REMARK                         _______ _______ _______ _____ _____    ______ ____
ROOT
ATOM      1  C   UNL     1       3.609   5.440  18.770  0.00  0.00    +0.000 A 
ATOM      2  C   UNL     1       2.788   5.368  19.888  0.00  0.00    +0.000 A 
ATOM      3  C   UNL     1       2.000   6.479  20.228  0.00  0.00    +0.000 A 
ATOM      4  C   UNL     1       2.043   7.650  19.461  0.00  0.00    +0.000 A 
ATOM      5  N   UNL     1       1.391   8.817  19.834  0.00  0.00    +0.000 N 
ATOM      6  C   UNL     1       1.058   9.092  21.223  0.00  0.00    +0.000 C 
ATOM      7  N   UNL     1       2.785   7.667  18.330  0.00  0.00    +0.000 NA
ATOM      8  C   UNL     1       3.538   6.579  18.001  0.00  0.00    +0.000 A 
ENDROOT
BRANCH   1   9
ATOM      9  S   UNL     1       4.611   4.085  18.249  0.00  0.00    +0.000 S 
ATOM     10  O   UNL     1       3.756   3.185  17.497  0.00  0.00    +0.000 OA
ATOM     11  O   UNL     1       5.349   3.608  19.407  0.00  0.00    +0.000 OA
BRANCH   9  12
ATOM     12  N   UNL     1       5.779   4.760  17.157  0.00  0.00    +0.000 NA
BRANCH  12  14
ATOM     13  C   UNL     1       7.429   6.655  17.536  0.00  0.00    +0.000 C 
ATOM     14  C   UNL     1       7.028   5.219  17.843  0.00  0.00    +0.000 C 
ENDBRANCH  12  14
BRANCH  12  15
ATOM     15  C   UNL     1       6.009   3.930  15.924  0.00  0.00    +0.000 C 
ATOM     16  C   UNL     1       5.690   4.647  14.621  0.00  0.00    +0.000 C 
ENDBRANCH  12  15
ENDBRANCH   9  12
ENDBRANCH   1   9
BRANCH   5  17
ATOM     17  C   UNL     1       0.779   9.623  18.752  0.00  0.00    +0.000 C 
BRANCH  17  18
ATOM     18  C   UNL     1       0.008  10.860  19.253  0.00  0.00    +0.000 C 
BRANCH  18  19
ATOM     19  C   UNL     1       0.749  12.160  19.004  0.00  0.00    +0.000 A 
ATOM     20  C   UNL     1       2.050  12.162  18.499  0.00  0.00    +0.000 A 
ATOM     21  C   UNL     1       2.723  13.370  18.290  0.00  0.00    +0.000 A 
ATOM     22  C   UNL     1       2.118  14.603  18.578  0.00  0.00    +0.000 A 
ATOM     23  C   UNL     1       0.808  14.616  19.092  0.00  0.00    +0.000 A 
ATOM     24  C   UNL     1       0.138  13.393  19.283  0.00  0.00    +0.000 A 
BRANCH  22  25
ATOM     25  O   UNL     1       2.940  15.665  18.297  0.00  0.00    +0.000 OA
ATOM     26  C   UNL     1       4.201  15.416  17.695  0.00  0.00    +0.000 C 
ENDBRANCH  22  25
BRANCH  23  27
ATOM     27  O   UNL     1       0.242  15.826  19.397  0.00  0.00    +0.000 OA
ATOM     28  C   UNL     1      -0.418  16.544  18.364  0.00  0.00    +0.000 C 
ENDBRANCH  23  27
ENDBRANCH  18  19
ENDBRANCH  17  18
ENDBRANCH   5  17
TORSDOF 9
ENDMDL
MODEL 8
REMARK VINA RESULT:      -6.6      3.621     10.511
REMARK  Name = 
REMARK  14 active torsions:
REMARK  status: ('A' for Active; 'I' for Inactive)
REMARK    1  A    between atoms: C_1  and  C_2
REMARK    2  A    between atoms: C_2  and  N_3
REMARK    3  A    between atoms: N_3  and  C_4
REMARK    4  A    between atoms: N_3  and  S_6
REMARK    5  A    between atoms: C_4  and  C_5
REMARK    6  A    between atoms: S_6  and  C_9
REMARK    7  A    between atoms: N_13  and  C_14
REMARK    8  A    between atoms: N_13  and  C_15
REMARK    9  A    between atoms: C_15  and  C_16
REMARK   10  A    between atoms: C_16  and  C_17
REMARK   11  A    between atoms: C_20  and  O_21
REMARK   12  A    between atoms: O_21  and  C_22
REMARK   13  A    between atoms: C_23  and  O_24
REMARK   14  A    between atoms: O_24  and  C_25
REMARK                            x       y       z     vdW  Elec       q    Type
REMARK                         _______ _______ _______ _____ _____    ______ ____
ROOT
ATOM      1  C   UNL     1       2.540   7.111  18.886  0.00  0.00    +0.000 A 
ATOM      2  C   UNL     1       2.286   8.046  17.890  0.00  0.00    +0.000 A 
ATOM      3  C   UNL     1       1.560   9.204  18.211  0.00  0.00    +0.000 A 
ATOM      4  C   UNL     1       1.088   9.417  19.512  0.00  0.00    +0.000 A 
ATOM      5  N   UNL     1       0.251  10.473  19.845  0.00  0.00    +0.000 N 
ATOM      6  C   UNL     1      -0.593  11.117  18.851  0.00  0.00    +0.000 C 
ATOM      7  N   UNL     1       1.419   8.534  20.484  0.00  0.00    +0.000 NA
ATOM      8  C   UNL     1       2.135   7.418  20.165  0.00  0.00    +0.000 A 
ENDROOT
BRANCH   1   9
ATOM      9  S   UNL     1       3.469   5.643  18.584  0.00  0.00    +0.000 S 
ATOM     10  O   UNL     1       4.469   5.545  19.632  0.00  0.00    +0.000 OA
ATOM     11  O   UNL     1       3.863   5.648  17.185  0.00  0.00    +0.000 OA
BRANCH   9  12
ATOM     12  N   UNL     1       2.349   4.332  18.782  0.00  0.00    +0.000 NA
BRANCH  12  14
ATOM     13  C   UNL     1       3.346   2.172  17.887  0.00  0.00    +0.000 C 
ATOM     14  C   UNL     1       2.399   3.342  17.660  0.00  0.00    +0.000 C 
ENDBRANCH  12  14
BRANCH  12  15
ATOM     15  C   UNL     1       2.362   3.723  20.156  0.00  0.00    +0.000 C 
ATOM     16  C   UNL     1       1.009   3.207  20.623  0.00  0.00    +0.000 C 
ENDBRANCH  12  15
ENDBRANCH   9  12
ENDBRANCH   1   9
BRANCH   5  17
ATOM     17  C   UNL     1       0.467  11.116  21.162  0.00  0.00    +0.000 C 
BRANCH  17  18
ATOM     18  C   UNL     1      -0.513  10.648  22.255  0.00  0.00    +0.000 C 
BRANCH  18  19
ATOM     19  C   UNL     1      -1.343  11.780  22.829  0.00  0.00    +0.000 A 
ATOM     20  C   UNL     1      -0.854  13.087  22.860  0.00  0.00    +0.000 A 
ATOM     21  C   UNL     1      -1.628  14.116  23.407  0.00  0.00    +0.000 A 
ATOM     22  C   UNL     1      -2.905  13.869  23.935  0.00  0.00    +0.000 A 
ATOM     23  C   UNL     1      -3.409  12.555  23.914  0.00  0.00    +0.000 A 
ATOM     24  C   UNL     1      -2.625  11.533  23.347  0.00  0.00    +0.000 A 
BRANCH  22  25
ATOM     25  O   UNL     1      -3.500  15.009  24.414  0.00  0.00    +0.000 OA
ATOM     26  C   UNL     1      -2.689  16.003  25.021  0.00  0.00    +0.000 C 
ENDBRANCH  22  25
BRANCH  23  27
ATOM     27  O   UNL     1      -4.644  12.325  24.460  0.00  0.00    +0.000 OA
ATOM     28  C   UNL     1      -5.781  12.900  23.831  0.00  0.00    +0.000 C 
ENDBRANCH  23  27
ENDBRANCH  18  19
ENDBRANCH  17  18
ENDBRANCH   5  17
TORSDOF 9
ENDMDL
MODEL 9
REMARK VINA RESULT:      -6.5      3.527      9.764
REMARK  Name = 
REMARK  14 active torsions:
REMARK  status: ('A' for Active; 'I' for Inactive)
REMARK    1  A    between atoms: C_1  and  C_2
REMARK    2  A    between atoms: C_2  and  N_3
REMARK    3  A    between atoms: N_3  and  C_4
REMARK    4  A    between atoms: N_3  and  S_6
REMARK    5  A    between atoms: C_4  and  C_5
REMARK    6  A    between atoms: S_6  and  C_9
REMARK    7  A    between atoms: N_13  and  C_14
REMARK    8  A    between atoms: N_13  and  C_15
REMARK    9  A    between atoms: C_15  and  C_16
REMARK   10  A    between atoms: C_16  and  C_17
REMARK   11  A    between atoms: C_20  and  O_21
REMARK   12  A    between atoms: O_21  and  C_22
REMARK   13  A    between atoms: C_23  and  O_24
REMARK   14  A    between atoms: O_24  and  C_25
REMARK                            x       y       z     vdW  Elec       q    Type
REMARK                         _______ _______ _______ _____ _____    ______ ____
ROOT
ATOM      1  C   UNL     1       2.573   7.199  18.886  0.00  0.00    +0.000 A 
ATOM      2  C   UNL     1       2.014   7.414  20.139  0.00  0.00    +0.000 A 
ATOM      3  C   UNL     1       1.250   8.571  20.357  0.00  0.00    +0.000 A 
ATOM      4  C   UNL     1       1.057   9.505  19.332  0.00  0.00    +0.000 A 
ATOM      5  N   UNL     1       0.429  10.727  19.535  0.00  0.00    +0.000 N 
ATOM      6  C   UNL     1       0.384  11.348  20.850  0.00  0.00    +0.000 C 
ATOM      7  N   UNL     1       1.539   9.234  18.096  0.00  0.00    +0.000 NA
ATOM      8  C   UNL     1       2.270   8.101  17.892  0.00  0.00    +0.000 A 
ENDROOT
BRANCH   1   9
ATOM      9  S   UNL     1       3.521   5.761  18.512  0.00  0.00    +0.000 S 
ATOM     10  O   UNL     1       4.468   5.577  19.598  0.00  0.00    +0.000 OA
ATOM     11  O   UNL     1       3.985   5.880  17.140  0.00  0.00    +0.000 OA
BRANCH   9  12
ATOM     12  N   UNL     1       2.398   4.438  18.545  0.00  0.00    +0.000 NA
BRANCH  12  14
ATOM     13  C   UNL     1       2.917   2.078  17.758  0.00  0.00    +0.000 C 
ATOM     14  C   UNL     1       2.552   3.506  17.383  0.00  0.00    +0.000 C 
ENDBRANCH  12  14
BRANCH  12  15
ATOM     15  C   UNL     1       2.297   3.759  19.883  0.00  0.00    +0.000 C 
ATOM     16  C   UNL     1       0.903   3.784  20.492  0.00  0.00    +0.000 C 
ENDBRANCH  12  15
ENDBRANCH   9  12
ENDBRANCH   1   9
BRANCH   5  17
ATOM     17  C   UNL     1      -0.447  11.224  18.450  0.00  0.00    +0.000 C 
BRANCH  17  18
ATOM     18  C   UNL     1      -1.542  10.227  18.023  0.00  0.00    +0.000 C 
BRANCH  18  19
ATOM     19  C   UNL     1      -2.905  10.874  17.869  0.00  0.00    +0.000 A 
ATOM     20  C   UNL     1      -3.521  10.966  16.619  0.00  0.00    +0.000 A 
ATOM     21  C   UNL     1      -4.771  11.580  16.495  0.00  0.00    +0.000 A 
ATOM     22  C   UNL     1      -5.438  12.115  17.608  0.00  0.00    +0.000 A 
ATOM     23  C   UNL     1      -4.826  12.033  18.873  0.00  0.00    +0.000 A 
ATOM     24  C   UNL     1      -3.574  11.400  18.985  0.00  0.00    +0.000 A 
BRANCH  22  25
ATOM     25  O   UNL     1      -6.650  12.664  17.275  0.00  0.00    +0.000 OA
ATOM     26  C   UNL     1      -6.708  14.038  16.923  0.00  0.00    +0.000 C 
ENDBRANCH  22  25
BRANCH  23  27
ATOM     27  O   UNL     1      -5.475  12.587  19.945  0.00  0.00    +0.000 OA
ATOM     28  C   UNL     1      -5.140  13.914  20.328  0.00  0.00    +0.000 C 
ENDBRANCH  23  27
ENDBRANCH  18  19
ENDBRANCH  17  18
ENDBRANCH   5  17
TORSDOF 9
ENDMDL
