MODEL 1
REMARK VINA RESULT:      -7.3      0.000      0.000
REMARK  Name = 
REMARK  6 active torsions:
REMARK  status: ('A' for Active; 'I' for Inactive)
REMARK    1  A    between atoms: C_1  and  C_2
REMARK    2  A    between atoms: C_8  and  C_9
REMARK    3  A    between atoms: C_9  and  N_10
REMARK    4  A    between atoms: C_13  and  C_14
REMARK    5  A    between atoms: C_13  and  O_15
REMARK    6  A    between atoms: C_16  and  O_17
REMARK                            x       y       z     vdW  Elec       q    Type
REMARK                         _______ _______ _______ _____ _____    ______ ____
ROOT
ATOM      1  C   UNL     1       3.878   2.806  17.407  0.00  0.00    +0.000 C 
ENDROOT
BRANCH   1   9
ATOM      2  C   UNL     1       8.418   8.552  18.577  0.00  0.00    +0.000 C 
ATOM      3  C   UNL     1       7.862   7.277  18.045  0.00  0.00    +0.000 A 
ATOM      4  C   UNL     1       7.421   7.022  16.806  0.00  0.00    +0.000 A 
ATOM      5  N   UNL     1       6.750   5.821  16.686  0.00  0.00    +0.000 N 
ATOM      6  C   UNL     1       6.102   5.377  15.558  0.00  0.00    +0.000 A 
ATOM      7  O   UNL     1       6.167   5.895  14.446  0.00  0.00    +0.000 OA
ATOM      8  C   UNL     1       5.181   4.236  15.792  0.00  0.00    +0.000 A 
ATOM      9  C   UNL     1       5.069   3.710  17.026  0.00  0.00    +0.000 A 
ATOM     10  N   UNL     1       5.871   4.112  18.078  0.00  0.00    +0.000 NA
ATOM     11  C   UNL     1       6.630   5.127  17.864  0.00  0.00    +0.000 A 
ATOM     12  S   UNL     1       7.583   5.909  19.107  0.00  0.00    +0.000 S 
ENDBRANCH   1   9
BRANCH   1  13
ATOM     13  N   UNL     1       2.532   3.399  17.492  0.00  0.00    +0.000 NA
ATOM     14  C   UNL     1       1.553   2.580  18.206  0.00  0.00    +0.000 C 
ATOM     15  C   UNL     1       1.914   2.431  19.681  0.00  0.00    +0.000 C 
ATOM     16  C   UNL     1       1.746   3.770  20.399  0.00  0.00    +0.000 C 
ATOM     17  C   UNL     1       2.217   3.628  21.856  0.00  0.00    +0.000 C 
ATOM     18  C   UNL     1       2.457   4.926  19.633  0.00  0.00    +0.000 C 
ATOM     19  C   UNL     1       2.516   4.765  18.073  0.00  0.00    +0.000 C 
BRANCH  16  20
ATOM     20  O   UNL     1       0.333   4.051  20.441  0.00  0.00    +0.000 OA
ATOM     21  H   UNL     1       0.227   5.017  20.513  0.00  0.00    +0.000 HD
ENDBRANCH  16  20
BRANCH  18  22
ATOM     22  O   UNL     1       3.767   5.175  20.162  0.00  0.00    +0.000 OA
ATOM     23  H   UNL     1       4.425   4.745  19.600  0.00  0.00    +0.000 HD
ENDBRANCH  18  22
ENDBRANCH   1  13
TORSDOF 4
ENDMDL
MODEL 2
REMARK VINA RESULT:      -6.7      4.719      6.077
REMARK  Name = 
REMARK  6 active torsions:
REMARK  status: ('A' for Active; 'I' for Inactive)
REMARK    1  A    between atoms: C_1  and  C_2
REMARK    2  A    between atoms: C_8  and  C_9
REMARK    3  A    between atoms: C_9  and  N_10
REMARK    4  A    between atoms: C_13  and  C_14
REMARK    5  A    between atoms: C_13  and  O_15
REMARK    6  A    between atoms: C_16  and  O_17
REMARK                            x       y       z     vdW  Elec       q    Type
REMARK                         _______ _______ _______ _____ _____    ______ ____
ROOT
ATOM      1  C   UNL     1       2.148   5.887  20.491  0.00  0.00    +0.000 C 
ENDROOT
BRANCH   1   9
ATOM      2  C   UNL     1      -1.831  12.131  20.091  0.00  0.00    +0.000 C 
ATOM      3  C   UNL     1      -0.677  11.191  20.096  0.00  0.00    +0.000 A 
ATOM      4  C   UNL     1       0.101  10.833  19.067  0.00  0.00    +0.000 A 
ATOM      5  N   UNL     1       0.936   9.767  19.339  0.00  0.00    +0.000 N 
ATOM      6  C   UNL     1       1.747   9.134  18.426  0.00  0.00    +0.000 A 
ATOM      7  O   UNL     1       1.980   9.525  17.285  0.00  0.00    +0.000 OA
ATOM      8  C   UNL     1       2.271   7.822  18.882  0.00  0.00    +0.000 A 
ATOM      9  C   UNL     1       1.963   7.371  20.112  0.00  0.00    +0.000 A 
ATOM     10  N   UNL     1       1.269   8.137  21.029  0.00  0.00    +0.000 NA
ATOM     11  C   UNL     1       0.791   9.250  20.601  0.00  0.00    +0.000 A 
ATOM     12  S   UNL     1      -0.271  10.280  21.539  0.00  0.00    +0.000 S 
ENDBRANCH   1   9
BRANCH   1  13
ATOM     13  N   UNL     1       1.490   4.855  19.671  0.00  0.00    +0.000 NA
ATOM     14  C   UNL     1       2.261   4.424  18.507  0.00  0.00    +0.000 C 
ATOM     15  C   UNL     1       3.548   3.713  18.915  0.00  0.00    +0.000 C 
ATOM     16  C   UNL     1       3.221   2.365  19.558  0.00  0.00    +0.000 C 
ATOM     17  C   UNL     1       4.519   1.714  20.062  0.00  0.00    +0.000 C 
ATOM     18  C   UNL     1       2.133   2.505  20.665  0.00  0.00    +0.000 C 
ATOM     19  C   UNL     1       1.084   3.651  20.440  0.00  0.00    +0.000 C 
BRANCH  16  20
ATOM     20  O   UNL     1       2.703   1.517  18.514  0.00  0.00    +0.000 OA
ATOM     21  H   UNL     1       2.552   2.074  17.729  0.00  0.00    +0.000 HD
ENDBRANCH  16  20
BRANCH  18  22
ATOM     22  O   UNL     1       2.724   2.616  21.967  0.00  0.00    +0.000 OA
ATOM     23  H   UNL     1       2.098   2.296  22.630  0.00  0.00    +0.000 HD
ENDBRANCH  18  22
ENDBRANCH   1  13
TORSDOF 4
ENDMDL
MODEL 3
REMARK VINA RESULT:      -6.6      4.226      6.134
REMARK  Name = 
REMARK  6 active torsions:
REMARK  status: ('A' for Active; 'I' for Inactive)
REMARK    1  A    between atoms: C_1  and  C_2
REMARK    2  A    between atoms: C_8  and  C_9
REMARK    3  A    between atoms: C_9  and  N_10
REMARK    4  A    between atoms: C_13  and  C_14
REMARK    5  A    between atoms: C_13  and  O_15
REMARK    6  A    between atoms: C_16  and  O_17
REMARK                            x       y       z     vdW  Elec       q    Type
REMARK                         _______ _______ _______ _____ _____    ______ ____
ROOT
ATOM      1  C   UNL     1       2.422   5.422  18.662  0.00  0.00    +0.000 C 
ENDROOT
BRANCH   1   9
ATOM      2  C   UNL     1      -0.828  11.182  22.015  0.00  0.00    +0.000 C 
ATOM      3  C   UNL     1       0.178  10.347  21.304  0.00  0.00    +0.000 A 
ATOM      4  C   UNL     1       0.611  10.472  20.043  0.00  0.00    +0.000 A 
ATOM      5  N   UNL     1       1.370   9.405  19.602  0.00  0.00    +0.000 N 
ATOM      6  C   UNL     1       1.835   9.231  18.320  0.00  0.00    +0.000 A 
ATOM      7  O   UNL     1       1.796  10.072  17.425  0.00  0.00    +0.000 OA
ATOM      8  C   UNL     1       2.318   7.858  18.026  0.00  0.00    +0.000 A 
ATOM      9  C   UNL     1       2.303   6.924  18.995  0.00  0.00    +0.000 A 
ATOM     10  N   UNL     1       1.964   7.218  20.302  0.00  0.00    +0.000 NA
ATOM     11  C   UNL     1       1.511   8.399  20.524  0.00  0.00    +0.000 A 
ATOM     12  S   UNL     1       0.854   8.918  22.063  0.00  0.00    +0.000 S 
ENDBRANCH   1   9
BRANCH   1  13
ATOM     13  N   UNL     1       3.661   4.709  19.019  0.00  0.00    +0.000 NA
ATOM     14  C   UNL     1       3.958   3.552  18.177  0.00  0.00    +0.000 C 
ATOM     15  C   UNL     1       4.247   3.963  16.736  0.00  0.00    +0.000 C 
ATOM     16  C   UNL     1       5.574   4.718  16.663  0.00  0.00    +0.000 C 
ATOM     17  C   UNL     1       5.796   5.219  15.227  0.00  0.00    +0.000 C 
ATOM     18  C   UNL     1       5.649   5.853  17.729  0.00  0.00    +0.000 C 
ATOM     19  C   UNL     1       4.862   5.582  19.059  0.00  0.00    +0.000 C 
BRANCH  16  20
ATOM     20  O   UNL     1       6.618   3.762  16.940  0.00  0.00    +0.000 OA
ATOM     21  H   UNL     1       7.412   4.262  17.204  0.00  0.00    +0.000 HD
ENDBRANCH  16  20
BRANCH  18  22
ATOM     22  O   UNL     1       5.270   7.119  17.171  0.00  0.00    +0.000 OA
ATOM     23  H   UNL     1       4.398   7.367  17.506  0.00  0.00    +0.000 HD
ENDBRANCH  18  22
ENDBRANCH   1  13
TORSDOF 4
ENDMDL
MODEL 4
REMARK VINA RESULT:      -6.5      4.750      6.269
REMARK  Name = 
REMARK  6 active torsions:
REMARK  status: ('A' for Active; 'I' for Inactive)
REMARK    1  A    between atoms: C_1  and  C_2
REMARK    2  A    between atoms: C_8  and  C_9
REMARK    3  A    between atoms: C_9  and  N_10
REMARK    4  A    between atoms: C_13  and  C_14
REMARK    5  A    between atoms: C_13  and  O_15
REMARK    6  A    between atoms: C_16  and  O_17
REMARK                            x       y       z     vdW  Elec       q    Type
REMARK                         _______ _______ _______ _____ _____    ______ ____
ROOT
ATOM      1  C   UNL     1       2.379   6.598  18.195  0.00  0.00    +0.000 C 
ENDROOT
BRANCH   1   9
ATOM      2  C   UNL     1      -1.220  10.991  22.964  0.00  0.00    +0.000 C 
ATOM      3  C   UNL     1      -0.192  10.478  22.017  0.00  0.00    +0.000 A 
ATOM      4  C   UNL     1       0.097  10.929  20.789  0.00  0.00    +0.000 A 
ATOM      5  N   UNL     1       0.936  10.099  20.070  0.00  0.00    +0.000 N 
ATOM      6  C   UNL     1       1.292  10.270  18.753  0.00  0.00    +0.000 A 
ATOM      7  O   UNL     1       1.062  11.267  18.074  0.00  0.00    +0.000 OA
ATOM      8  C   UNL     1       1.911   9.073  18.128  0.00  0.00    +0.000 A 
ATOM      9  C   UNL     1       2.107   7.962  18.863  0.00  0.00    +0.000 A 
ATOM     10  N   UNL     1       1.864   7.921  20.222  0.00  0.00    +0.000 NA
ATOM     11  C   UNL     1       1.291   8.951  20.733  0.00  0.00    +0.000 A 
ATOM     12  S   UNL     1       0.728   9.032  22.390  0.00  0.00    +0.000 S 
ENDBRANCH   1   9
BRANCH   1  13
ATOM     13  N   UNL     1       3.747   6.050  18.225  0.00  0.00    +0.000 NA
ATOM     14  C   UNL     1       4.137   5.466  19.507  0.00  0.00    +0.000 C 
ATOM     15  C   UNL     1       3.306   4.230  19.838  0.00  0.00    +0.000 C 
ATOM     16  C   UNL     1       3.660   3.090  18.884  0.00  0.00    +0.000 C 
ATOM     17  C   UNL     1       2.738   1.891  19.160  0.00  0.00    +0.000 C 
ATOM     18  C   UNL     1       3.633   3.556  17.397  0.00  0.00    +0.000 C 
ATOM     19  C   UNL     1       4.015   5.058  17.154  0.00  0.00    +0.000 C 
BRANCH  16  20
ATOM     20  O   UNL     1       5.001   2.671  19.207  0.00  0.00    +0.000 OA
ATOM     21  H   UNL     1       5.091   1.739  18.937  0.00  0.00    +0.000 HD
ENDBRANCH  16  20
BRANCH  18  22
ATOM     22  O   UNL     1       2.376   3.251  16.777  0.00  0.00    +0.000 OA
ATOM     23  H   UNL     1       2.208   3.886  16.067  0.00  0.00    +0.000 HD
ENDBRANCH  18  22
ENDBRANCH   1  13
TORSDOF 4
ENDMDL
MODEL 5
REMARK VINA RESULT:      -6.4      5.045      6.747
REMARK  Name = 
REMARK  6 active torsions:
REMARK  status: ('A' for Active; 'I' for Inactive)
REMARK    1  A    between atoms: C_1  and  C_2
REMARK    2  A    between atoms: C_8  and  C_9
REMARK    3  A    between atoms: C_9  and  N_10
REMARK    4  A    between atoms: C_13  and  C_14
REMARK    5  A    between atoms: C_13  and  O_15
REMARK    6  A    between atoms: C_16  and  O_17
REMARK                            x       y       z     vdW  Elec       q    Type
REMARK                         _______ _______ _______ _____ _____    ______ ____
ROOT
ATOM      1  C   UNL     1       2.199   6.404  19.802  0.00  0.00    +0.000 C 
ENDROOT
BRANCH   1   9
ATOM      2  C   UNL     1      -1.984  11.579  23.075  0.00  0.00    +0.000 C 
ATOM      3  C   UNL     1      -0.844  10.912  22.387  0.00  0.00    +0.000 A 
ATOM      4  C   UNL     1      -0.408  11.106  21.136  0.00  0.00    +0.000 A 
ATOM      5  N   UNL     1       0.517  10.172  20.713  0.00  0.00    +0.000 N 
ATOM      6  C   UNL     1       1.033  10.076  19.442  0.00  0.00    +0.000 A 
ATOM      7  O   UNL     1       0.883  10.902  18.546  0.00  0.00    +0.000 OA
ATOM      8  C   UNL     1       1.730   8.795  19.161  0.00  0.00    +0.000 A 
ATOM      9  C   UNL     1       1.840   7.868  20.131  0.00  0.00    +0.000 A 
ATOM     10  N   UNL     1       1.431   8.103  21.429  0.00  0.00    +0.000 NA
ATOM     11  C   UNL     1       0.794   9.198  21.640  0.00  0.00    +0.000 A 
ATOM     12  S   UNL     1       0.030   9.604  23.163  0.00  0.00    +0.000 S 
ENDBRANCH   1   9
BRANCH   1  13
ATOM     13  N   UNL     1       3.355   6.133  18.929  0.00  0.00    +0.000 NA
ATOM     14  C   UNL     1       4.359   5.244  19.513  0.00  0.00    +0.000 C 
ATOM     15  C   UNL     1       3.807   3.838  19.733  0.00  0.00    +0.000 C 
ATOM     16  C   UNL     1       3.565   3.154  18.388  0.00  0.00    +0.000 C 
ATOM     17  C   UNL     1       2.907   1.785  18.626  0.00  0.00    +0.000 C 
ATOM     18  C   UNL     1       2.754   4.065  17.417  0.00  0.00    +0.000 C 
ATOM     19  C   UNL     1       2.983   5.608  17.591  0.00  0.00    +0.000 C 
BRANCH  16  20
ATOM     20  O   UNL     1       4.859   2.903  17.805  0.00  0.00    +0.000 OA
ATOM     21  H   UNL     1       4.769   2.137  17.209  0.00  0.00    +0.000 HD
ENDBRANCH  16  20
BRANCH  18  22
ATOM     22  O   UNL     1       1.354   3.757  17.458  0.00  0.00    +0.000 OA
ATOM     23  H   UNL     1       1.205   3.031  18.079  0.00  0.00    +0.000 HD
ENDBRANCH  18  22
ENDBRANCH   1  13
TORSDOF 4
ENDMDL
MODEL 6
REMARK VINA RESULT:      -6.4      4.401      6.603
REMARK  Name = 
REMARK  6 active torsions:
REMARK  status: ('A' for Active; 'I' for Inactive)
REMARK    1  A    between atoms: C_1  and  C_2
REMARK    2  A    between atoms: C_8  and  C_9
REMARK    3  A    between atoms: C_9  and  N_10
REMARK    4  A    between atoms: C_13  and  C_14
REMARK    5  A    between atoms: C_13  and  O_15
REMARK    6  A    between atoms: C_16  and  O_17
REMARK                            x       y       z     vdW  Elec       q    Type
REMARK                         _______ _______ _______ _____ _____    ______ ____
ROOT
ATOM      1  C   UNL     1       2.678   6.297  18.087  0.00  0.00    +0.000 C 
ENDROOT
BRANCH   1   9
ATOM      2  C   UNL     1      -1.001  10.472  22.988  0.00  0.00    +0.000 C 
ATOM      3  C   UNL     1      -0.063  10.059  21.908  0.00  0.00    +0.000 A 
ATOM      4  C   UNL     1      -0.122  10.360  20.605  0.00  0.00    +0.000 A 
ATOM      5  N   UNL     1       0.757   9.637  19.822  0.00  0.00    +0.000 N 
ATOM      6  C   UNL     1       0.817   9.670  18.449  0.00  0.00    +0.000 A 
ATOM      7  O   UNL     1       0.224  10.468  17.726  0.00  0.00    +0.000 OA
ATOM      8  C   UNL     1       1.596   8.560  17.844  0.00  0.00    +0.000 A 
ATOM      9  C   UNL     1       2.194   7.654  18.640  0.00  0.00    +0.000 A 
ATOM     10  N   UNL     1       2.217   7.777  20.016  0.00  0.00    +0.000 NA
ATOM     11  C   UNL     1       1.503   8.720  20.518  0.00  0.00    +0.000 A 
ATOM     12  S   UNL     1       1.243   8.936  22.237  0.00  0.00    +0.000 S 
ENDBRANCH   1   9
BRANCH   1  13
ATOM     13  N   UNL     1       3.993   5.784  18.509  0.00  0.00    +0.000 NA
ATOM     14  C   UNL     1       4.182   4.351  18.290  0.00  0.00    +0.000 C 
ATOM     15  C   UNL     1       4.182   4.003  16.804  0.00  0.00    +0.000 C 
ATOM     16  C   UNL     1       5.436   4.564  16.134  0.00  0.00    +0.000 C 
ATOM     17  C   UNL     1       5.366   4.301  14.621  0.00  0.00    +0.000 C 
ATOM     18  C   UNL     1       5.654   6.066  16.488  0.00  0.00    +0.000 C 
ATOM     19  C   UNL     1       5.139   6.508  17.903  0.00  0.00    +0.000 C 
BRANCH  16  20
ATOM     20  O   UNL     1       6.556   3.809  16.640  0.00  0.00    +0.000 OA
ATOM     21  H   UNL     1       6.927   3.300  15.897  0.00  0.00    +0.000 HD
ENDBRANCH  16  20
BRANCH  18  22
ATOM     22  O   UNL     1       5.121   6.924  15.470  0.00  0.00    +0.000 OA
ATOM     23  H   UNL     1       5.785   7.584  15.229  0.00  0.00    +0.000 HD
ENDBRANCH  18  22
ENDBRANCH   1  13
TORSDOF 4
ENDMDL
MODEL 7
REMARK VINA RESULT:      -6.3      4.695      6.094
REMARK  Name = 
REMARK  6 active torsions:
REMARK  status: ('A' for Active; 'I' for Inactive)
REMARK    1  A    between atoms: C_1  and  C_2
REMARK    2  A    between atoms: C_8  and  C_9
REMARK    3  A    between atoms: C_9  and  N_10
REMARK    4  A    between atoms: C_13  and  C_14
REMARK    5  A    between atoms: C_13  and  O_15
REMARK    6  A    between atoms: C_16  and  O_17
REMARK                            x       y       z     vdW  Elec       q    Type
REMARK                         _______ _______ _______ _____ _____    ______ ____
ROOT
ATOM      1  C   UNL     1       2.242   5.825  19.484  0.00  0.00    +0.000 C 
ENDROOT
BRANCH   1   9
ATOM      2  C   UNL     1      -1.547  12.002  21.056  0.00  0.00    +0.000 C 
ATOM      3  C   UNL     1      -0.429  11.080  20.717  0.00  0.00    +0.000 A 
ATOM      4  C   UNL     1       0.248  10.993  19.565  0.00  0.00    +0.000 A 
ATOM      5  N   UNL     1       1.068   9.884  19.479  0.00  0.00    +0.000 N 
ATOM      6  C   UNL     1       1.777   9.500  18.366  0.00  0.00    +0.000 A 
ATOM      7  O   UNL     1       1.927  10.170  17.347  0.00  0.00    +0.000 OA
ATOM      8  C   UNL     1       2.294   8.109  18.421  0.00  0.00    +0.000 A 
ATOM      9  C   UNL     1       2.076   7.359  19.517  0.00  0.00    +0.000 A 
ATOM     10  N   UNL     1       1.487   7.869  20.658  0.00  0.00    +0.000 NA
ATOM     11  C   UNL     1       1.011   9.060  20.574  0.00  0.00    +0.000 A 
ATOM     12  S   UNL     1       0.067   9.823  21.836  0.00  0.00    +0.000 S 
ENDBRANCH   1   9
BRANCH   1  13
ATOM     13  N   UNL     1       3.379   5.217  20.197  0.00  0.00    +0.000 NA
ATOM     14  C   UNL     1       3.071   3.950  20.860  0.00  0.00    +0.000 C 
ATOM     15  C   UNL     1       2.723   2.858  19.852  0.00  0.00    +0.000 C 
ATOM     16  C   UNL     1       3.965   2.468  19.052  0.00  0.00    +0.000 C 
ATOM     17  C   UNL     1       3.573   1.448  17.970  0.00  0.00    +0.000 C 
ATOM     18  C   UNL     1       4.697   3.720  18.481  0.00  0.00    +0.000 C 
ATOM     19  C   UNL     1       4.581   5.023  19.348  0.00  0.00    +0.000 C 
BRANCH  16  20
ATOM     20  O   UNL     1       4.856   1.793  19.962  0.00  0.00    +0.000 OA
ATOM     21  H   UNL     1       4.435   0.952  20.217  0.00  0.00    +0.000 HD
ENDBRANCH  16  20
BRANCH  18  22
ATOM     22  O   UNL     1       4.304   3.982  17.126  0.00  0.00    +0.000 OA
ATOM     23  H   UNL     1       3.564   4.603  17.123  0.00  0.00    +0.000 HD
ENDBRANCH  18  22
ENDBRANCH   1  13
TORSDOF 4
ENDMDL
MODEL 8
REMARK VINA RESULT:      -6.2      4.703      6.286
REMARK  Name = 
REMARK  6 active torsions:
REMARK  status: ('A' for Active; 'I' for Inactive)
REMARK    1  A    between atoms: C_1  and  C_2
REMARK    2  A    between atoms: C_8  and  C_9
REMARK    3  A    between atoms: C_9  and  N_10
REMARK    4  A    between atoms: C_13  and  C_14
REMARK    5  A    between atoms: C_13  and  O_15
REMARK    6  A    between atoms: C_16  and  O_17
REMARK                            x       y       z     vdW  Elec       q    Type
REMARK                         _______ _______ _______ _____ _____    ______ ____
ROOT
ATOM      1  C   UNL     1       2.400   5.965  19.754  0.00  0.00    +0.000 C 
ENDROOT
BRANCH   1   9
ATOM      2  C   UNL     1      -1.634  11.445  22.700  0.00  0.00    +0.000 C 
ATOM      3  C   UNL     1      -0.525  10.711  22.032  0.00  0.00    +0.000 A 
ATOM      4  C   UNL     1      -0.137  10.787  20.752  0.00  0.00    +0.000 A 
ATOM      5  N   UNL     1       0.768   9.811  20.381  0.00  0.00    +0.000 N 
ATOM      6  C   UNL     1       1.232   9.596  19.105  0.00  0.00    +0.000 A 
ATOM      7  O   UNL     1       1.050  10.339  18.144  0.00  0.00    +0.000 OA
ATOM      8  C   UNL     1       1.914   8.291  18.916  0.00  0.00    +0.000 A 
ATOM      9  C   UNL     1       2.059   7.455  19.961  0.00  0.00    +0.000 A 
ATOM     10  N   UNL     1       1.701   7.810  21.248  0.00  0.00    +0.000 NA
ATOM     11  C   UNL     1       1.077   8.925  21.382  0.00  0.00    +0.000 A 
ATOM     12  S   UNL     1       0.375   9.473  22.890  0.00  0.00    +0.000 S 
ENDBRANCH   1   9
BRANCH   1  13
ATOM     13  N   UNL     1       1.358   5.061  19.235  0.00  0.00    +0.000 NA
ATOM     14  C   UNL     1       1.615   4.551  17.889  0.00  0.00    +0.000 C 
ATOM     15  C   UNL     1       2.846   3.650  17.853  0.00  0.00    +0.000 C 
ATOM     16  C   UNL     1       2.565   2.349  18.603  0.00  0.00    +0.000 C 
ATOM     17  C   UNL     1       3.848   1.503  18.652  0.00  0.00    +0.000 C 
ATOM     18  C   UNL     1       1.953   2.618  20.011  0.00  0.00    +0.000 C 
ATOM     19  C   UNL     1       1.069   3.910  20.126  0.00  0.00    +0.000 C 
BRANCH  16  20
ATOM     20  O   UNL     1       1.605   1.611  17.821  0.00  0.00    +0.000 OA
ATOM     21  H   UNL     1       0.720   1.954  18.042  0.00  0.00    +0.000 HD
ENDBRANCH  16  20
BRANCH  18  22
ATOM     22  O   UNL     1       2.962   2.608  21.030  0.00  0.00    +0.000 OA
ATOM     23  H   UNL     1       3.831   2.522  20.618  0.00  0.00    +0.000 HD
ENDBRANCH  18  22
ENDBRANCH   1  13
TORSDOF 4
ENDMDL
MODEL 9
REMARK VINA RESULT:      -6.2      5.085      6.668
REMARK  Name = 
REMARK  6 active torsions:
REMARK  status: ('A' for Active; 'I' for Inactive)
REMARK    1  A    between atoms: C_1  and  C_2
REMARK    2  A    between atoms: C_8  and  C_9
REMARK    3  A    between atoms: C_9  and  N_10
REMARK    4  A    between atoms: C_13  and  C_14
REMARK    5  A    between atoms: C_13  and  O_15
REMARK    6  A    between atoms: C_16  and  O_17
REMARK                            x       y       z     vdW  Elec       q    Type
REMARK                         _______ _______ _______ _____ _____    ______ ____
ROOT
ATOM      1  C   UNL     1       2.168   6.708  19.191  0.00  0.00    +0.000 C 
ENDROOT
BRANCH   1   9
ATOM      2  C   UNL     1      -1.873  11.474  23.183  0.00  0.00    +0.000 C 
ATOM      3  C   UNL     1      -0.764  10.892  22.378  0.00  0.00    +0.000 A 
ATOM      4  C   UNL     1      -0.383  11.223  21.138  0.00  0.00    +0.000 A 
ATOM      5  N   UNL     1       0.524  10.345  20.577  0.00  0.00    +0.000 N 
ATOM      6  C   UNL     1       0.984  10.391  19.282  0.00  0.00    +0.000 A 
ATOM      7  O   UNL     1       0.794  11.308  18.488  0.00  0.00    +0.000 OA
ATOM      8  C   UNL     1       1.670   9.152  18.834  0.00  0.00    +0.000 A 
ATOM      9  C   UNL     1       1.822   8.126  19.692  0.00  0.00    +0.000 A 
ATOM     10  N   UNL     1       1.470   8.216  21.024  0.00  0.00    +0.000 NA
ATOM     11  C   UNL     1       0.841   9.279  21.380  0.00  0.00    +0.000 A 
ATOM     12  S   UNL     1       0.144   9.513  22.970  0.00  0.00    +0.000 S 
ENDBRANCH   1   9
BRANCH   1  13
ATOM     13  N   UNL     1       3.060   5.863  20.004  0.00  0.00    +0.000 NA
ATOM     14  C   UNL     1       2.406   4.711  20.622  0.00  0.00    +0.000 C 
ATOM     15  C   UNL     1       1.914   3.715  19.575  0.00  0.00    +0.000 C 
ATOM     16  C   UNL     1       3.104   3.039  18.895  0.00  0.00    +0.000 C 
ATOM     17  C   UNL     1       2.594   2.123  17.770  0.00  0.00    +0.000 C 
ATOM     18  C   UNL     1       4.157   4.081  18.410  0.00  0.00    +0.000 C 
ATOM     19  C   UNL     1       4.261   5.387  19.274  0.00  0.00    +0.000 C 
BRANCH  16  20
ATOM     20  O   UNL     1       3.724   2.189  19.880  0.00  0.00    +0.000 OA
ATOM     21  H   UNL     1       4.258   2.757  20.465  0.00  0.00    +0.000 HD
ENDBRANCH  16  20
BRANCH  18  22
ATOM     22  O   UNL     1       3.968   4.409  17.026  0.00  0.00    +0.000 OA
ATOM     23  H   UNL     1       3.475   5.237  16.959  0.00  0.00    +0.000 HD
ENDBRANCH  18  22
ENDBRANCH   1  13
TORSDOF 4
ENDMDL
