MODEL 1
REMARK VINA RESULT:      -7.1      0.000      0.000
REMARK  Name = 
REMARK  12 active torsions:
REMARK  status: ('A' for Active; 'I' for Inactive)
REMARK    1  A    between atoms: C_1  and  C_2
REMARK    2  A    between atoms: C_2  and  C_3
REMARK    3  A    between atoms: C_3  and  C_4
REMARK    4  A    between atoms: C_4  and  C_5
REMARK    5  A    between atoms: C_5  and  C_6
REMARK    6  A    between atoms: C_6  and  C_7
REMARK    7  A    between atoms: C_7  and  C_8
REMARK    8  A    between atoms: C_8  and  C_9
REMARK    9  A    between atoms: C_9  and  C_10
REMARK   10  A    between atoms: C_10  and  C_11
REMARK   11  A    between atoms: C_11  and  C_12
REMARK   12  A    between atoms: N_14  and  C_15
REMARK                            x       y       z     vdW  Elec       q    Type
REMARK                         _______ _______ _______ _____ _____    ______ ____
ROOT
ATOM      1  C   UNL     1       3.895   6.509  17.608  0.00  0.00    +0.000 C 
ATOM      2  O   UNL     1       2.838   7.068  17.924  0.00  0.00    +0.000 OA
ATOM      3  N   UNL     1       4.212   5.214  17.953  0.00  0.00    +0.000 N 
ATOM      4  H   UNL     1       5.168   4.902  17.820  0.00  0.00    +0.000 HD
ENDROOT
BRANCH   3   5
ATOM      5  C   UNL     1       3.308   4.391  18.773  0.00  0.00    +0.000 C 
ATOM      6  C   UNL     1       3.954   3.020  19.109  0.00  0.00    +0.000 C 
ATOM      7  C   UNL     1       3.016   2.180  19.991  0.00  0.00    +0.000 C 
ATOM      8  C   UNL     1       2.722   2.949  21.288  0.00  0.00    +0.000 C 
ATOM      9  C   UNL     1       2.024   4.282  20.968  0.00  0.00    +0.000 C 
ATOM     10  C   UNL     1       0.722   4.027  20.200  0.00  0.00    +0.000 C 
ATOM     11  C   UNL     1       1.025   3.270  18.899  0.00  0.00    +0.000 C 
ATOM     12  C   UNL     1       1.696   1.930  19.244  0.00  0.00    +0.000 C 
ATOM     13  C   UNL     1       1.975   4.111  18.025  0.00  0.00    +0.000 C 
ATOM     14  C   UNL     1       2.957   5.128  20.096  0.00  0.00    +0.000 C 
ENDBRANCH   3   5
BRANCH   1  15
ATOM     15  C   UNL     1       4.892   7.223  16.738  0.00  0.00    +0.000 C 
BRANCH  15  16
ATOM     16  C   UNL     1       6.080   7.647  17.594  0.00  0.00    +0.000 C 
BRANCH  16  17
ATOM     17  C   UNL     1       7.360   6.947  17.176  0.00  0.00    +0.000 C 
BRANCH  17  18
ATOM     18  C   UNL     1       7.739   5.892  18.210  0.00  0.00    +0.000 C 
BRANCH  18  19
ATOM     19  C   UNL     1       7.527   4.500  17.638  0.00  0.00    +0.000 C 
BRANCH  19  20
ATOM     20  C   UNL     1       7.296   4.572  16.137  0.00  0.00    +0.000 C 
BRANCH  20  21
ATOM     21  C   UNL     1       6.018   3.834  15.772  0.00  0.00    +0.000 C 
BRANCH  21  22
ATOM     22  C   UNL     1       5.656   4.087  14.317  0.00  0.00    +0.000 C 
BRANCH  22  23
ATOM     23  C   UNL     1       6.907   4.383  13.503  0.00  0.00    +0.000 C 
BRANCH  23  25
ATOM     24  C   UNL     1       5.457   3.094  11.929  0.00  0.00    +0.000 C 
ATOM     25  C   UNL     1       6.776   3.824  12.094  0.00  0.00    +0.000 C 
ENDBRANCH  23  25
ENDBRANCH  22  23
ENDBRANCH  21  22
ENDBRANCH  20  21
ENDBRANCH  19  20
ENDBRANCH  18  19
ENDBRANCH  17  18
ENDBRANCH  16  17
ENDBRANCH  15  16
ENDBRANCH   1  15
TORSDOF 11
ENDMDL
MODEL 2
REMARK VINA RESULT:      -7.1      3.549      5.769
REMARK  Name = 
REMARK  12 active torsions:
REMARK  status: ('A' for Active; 'I' for Inactive)
REMARK    1  A    between atoms: C_1  and  C_2
REMARK    2  A    between atoms: C_2  and  C_3
REMARK    3  A    between atoms: C_3  and  C_4
REMARK    4  A    between atoms: C_4  and  C_5
REMARK    5  A    between atoms: C_5  and  C_6
REMARK    6  A    between atoms: C_6  and  C_7
REMARK    7  A    between atoms: C_7  and  C_8
REMARK    8  A    between atoms: C_8  and  C_9
REMARK    9  A    between atoms: C_9  and  C_10
REMARK   10  A    between atoms: C_10  and  C_11
REMARK   11  A    between atoms: C_11  and  C_12
REMARK   12  A    between atoms: N_14  and  C_15
REMARK                            x       y       z     vdW  Elec       q    Type
REMARK                         _______ _______ _______ _____ _____    ______ ____
ROOT
ATOM      1  C   UNL     1       4.975   5.485  17.325  0.00  0.00    +0.000 C 
ATOM      2  O   UNL     1       5.206   4.346  16.901  0.00  0.00    +0.000 OA
ATOM      3  N   UNL     1       4.081   5.763  18.335  0.00  0.00    +0.000 N 
ATOM      4  H   UNL     1       3.814   6.729  18.488  0.00  0.00    +0.000 HD
ENDROOT
BRANCH   3   5
ATOM      5  C   UNL     1       3.289   4.701  18.976  0.00  0.00    +0.000 C 
ATOM      6  C   UNL     1       2.609   5.218  20.273  0.00  0.00    +0.000 C 
ATOM      7  C   UNL     1       1.759   4.112  20.919  0.00  0.00    +0.000 C 
ATOM      8  C   UNL     1       0.689   3.651  19.918  0.00  0.00    +0.000 C 
ATOM      9  C   UNL     1       1.354   3.078  18.656  0.00  0.00    +0.000 C 
ATOM     10  C   UNL     1       2.269   1.905  19.026  0.00  0.00    +0.000 C 
ATOM     11  C   UNL     1       3.345   2.376  20.015  0.00  0.00    +0.000 C 
ATOM     12  C   UNL     1       2.658   2.919  21.280  0.00  0.00    +0.000 C 
ATOM     13  C   UNL     1       4.185   3.493  19.367  0.00  0.00    +0.000 C 
ATOM     14  C   UNL     1       2.196   4.177  18.001  0.00  0.00    +0.000 C 
ENDBRANCH   3   5
BRANCH   1  15
ATOM     15  C   UNL     1       5.744   6.658  16.784  0.00  0.00    +0.000 C 
BRANCH  15  16
ATOM     16  C   UNL     1       7.234   6.409  16.988  0.00  0.00    +0.000 C 
BRANCH  16  17
ATOM     17  C   UNL     1       7.795   7.224  18.139  0.00  0.00    +0.000 C 
BRANCH  17  18
ATOM     18  C   UNL     1       7.855   8.698  17.755  0.00  0.00    +0.000 C 
BRANCH  18  19
ATOM     19  C   UNL     1       8.829   9.434  18.660  0.00  0.00    +0.000 C 
BRANCH  19  20
ATOM     20  C   UNL     1       8.934  10.895  18.250  0.00  0.00    +0.000 C 
BRANCH  20  21
ATOM     21  C   UNL     1       9.639  11.690  19.338  0.00  0.00    +0.000 C 
BRANCH  21  22
ATOM     22  C   UNL     1      11.136  11.425  19.302  0.00  0.00    +0.000 C 
BRANCH  22  23
ATOM     23  C   UNL     1      11.887  12.683  18.889  0.00  0.00    +0.000 C 
BRANCH  23  25
ATOM     24  C   UNL     1      11.271  14.007  16.862  0.00  0.00    +0.000 C 
ATOM     25  C   UNL     1      11.990  12.773  17.373  0.00  0.00    +0.000 C 
ENDBRANCH  23  25
ENDBRANCH  22  23
ENDBRANCH  21  22
ENDBRANCH  20  21
ENDBRANCH  19  20
ENDBRANCH  18  19
ENDBRANCH  17  18
ENDBRANCH  16  17
ENDBRANCH  15  16
ENDBRANCH   1  15
TORSDOF 11
ENDMDL
MODEL 3
REMARK VINA RESULT:      -6.9      3.127      5.478
REMARK  Name = 
REMARK  12 active torsions:
REMARK  status: ('A' for Active; 'I' for Inactive)
REMARK    1  A    between atoms: C_1  and  C_2
REMARK    2  A    between atoms: C_2  and  C_3
REMARK    3  A    between atoms: C_3  and  C_4
REMARK    4  A    between atoms: C_4  and  C_5
REMARK    5  A    between atoms: C_5  and  C_6
REMARK    6  A    between atoms: C_6  and  C_7
REMARK    7  A    between atoms: C_7  and  C_8
REMARK    8  A    between atoms: C_8  and  C_9
REMARK    9  A    between atoms: C_9  and  C_10
REMARK   10  A    between atoms: C_10  and  C_11
REMARK   11  A    between atoms: C_11  and  C_12
REMARK   12  A    between atoms: N_14  and  C_15
REMARK                            x       y       z     vdW  Elec       q    Type
REMARK                         _______ _______ _______ _____ _____    ______ ____
ROOT
ATOM      1  C   UNL     1       4.588   5.219  16.855  0.00  0.00    +0.000 C 
ATOM      2  O   UNL     1       4.584   4.070  16.395  0.00  0.00    +0.000 OA
ATOM      3  N   UNL     1       3.931   5.587  18.009  0.00  0.00    +0.000 N 
ATOM      4  H   UNL     1       3.829   6.576  18.207  0.00  0.00    +0.000 HD
ENDROOT
BRANCH   3   5
ATOM      5  C   UNL     1       3.129   4.624  18.779  0.00  0.00    +0.000 C 
ATOM      6  C   UNL     1       1.885   4.163  17.971  0.00  0.00    +0.000 C 
ATOM      7  C   UNL     1       1.069   3.133  18.771  0.00  0.00    +0.000 C 
ATOM      8  C   UNL     1       1.961   1.924  19.091  0.00  0.00    +0.000 C 
ATOM      9  C   UNL     1       3.162   2.362  19.946  0.00  0.00    +0.000 C 
ATOM     10  C   UNL     1       2.678   3.017  21.243  0.00  0.00    +0.000 C 
ATOM     11  C   UNL     1       1.799   4.234  20.916  0.00  0.00    +0.000 C 
ATOM     12  C   UNL     1       0.591   3.768  20.086  0.00  0.00    +0.000 C 
ATOM     13  C   UNL     1       2.618   5.255  20.104  0.00  0.00    +0.000 C 
ATOM     14  C   UNL     1       3.985   3.381  19.152  0.00  0.00    +0.000 C 
ENDBRANCH   3   5
BRANCH   1  15
ATOM     15  C   UNL     1       5.400   6.293  16.186  0.00  0.00    +0.000 C 
BRANCH  15  16
ATOM     16  C   UNL     1       6.866   6.108  16.560  0.00  0.00    +0.000 C 
BRANCH  16  17
ATOM     17  C   UNL     1       7.052   5.901  18.052  0.00  0.00    +0.000 C 
BRANCH  17  18
ATOM     18  C   UNL     1       8.136   6.835  18.577  0.00  0.00    +0.000 C 
BRANCH  18  19
ATOM     19  C   UNL     1       7.980   8.216  17.962  0.00  0.00    +0.000 C 
BRANCH  19  20
ATOM     20  C   UNL     1       8.743   9.249  18.774  0.00  0.00    +0.000 C 
BRANCH  20  21
ATOM     21  C   UNL     1       8.655  10.609  18.100  0.00  0.00    +0.000 C 
BRANCH  21  22
ATOM     22  C   UNL     1       9.533  11.618  18.823  0.00  0.00    +0.000 C 
BRANCH  22  23
ATOM     23  C   UNL     1      10.992  11.425  18.435  0.00  0.00    +0.000 C 
BRANCH  23  25
ATOM     24  C   UNL     1      11.956  13.445  19.547  0.00  0.00    +0.000 C 
ATOM     25  C   UNL     1      11.912  11.929  19.539  0.00  0.00    +0.000 C 
ENDBRANCH  23  25
ENDBRANCH  22  23
ENDBRANCH  21  22
ENDBRANCH  20  21
ENDBRANCH  19  20
ENDBRANCH  18  19
ENDBRANCH  17  18
ENDBRANCH  16  17
ENDBRANCH  15  16
ENDBRANCH   1  15
TORSDOF 11
ENDMDL
MODEL 4
REMARK VINA RESULT:      -6.9      3.112      7.582
REMARK  Name = 
REMARK  12 active torsions:
REMARK  status: ('A' for Active; 'I' for Inactive)
REMARK    1  A    between atoms: C_1  and  C_2
REMARK    2  A    between atoms: C_2  and  C_3
REMARK    3  A    between atoms: C_3  and  C_4
REMARK    4  A    between atoms: C_4  and  C_5
REMARK    5  A    between atoms: C_5  and  C_6
REMARK    6  A    between atoms: C_6  and  C_7
REMARK    7  A    between atoms: C_7  and  C_8
REMARK    8  A    between atoms: C_8  and  C_9
REMARK    9  A    between atoms: C_9  and  C_10
REMARK   10  A    between atoms: C_10  and  C_11
REMARK   11  A    between atoms: C_11  and  C_12
REMARK   12  A    between atoms: N_14  and  C_15
REMARK                            x       y       z     vdW  Elec       q    Type
REMARK                         _______ _______ _______ _____ _____    ______ ____
ROOT
ATOM      1  C   UNL     1       2.598   2.960  17.925  0.00  0.00    +0.000 C 
ATOM      2  O   UNL     1       2.155   3.316  16.826  0.00  0.00    +0.000 OA
ATOM      3  N   UNL     1       3.808   3.374  18.437  0.00  0.00    +0.000 N 
ATOM      4  H   UNL     1       4.177   2.890  19.247  0.00  0.00    +0.000 HD
ENDROOT
BRANCH   3   5
ATOM      5  C   UNL     1       4.700   4.266  17.678  0.00  0.00    +0.000 C 
ATOM      6  C   UNL     1       4.002   5.618  17.367  0.00  0.00    +0.000 C 
ATOM      7  C   UNL     1       4.951   6.556  16.602  0.00  0.00    +0.000 C 
ATOM      8  C   UNL     1       6.208   6.800  17.451  0.00  0.00    +0.000 C 
ATOM      9  C   UNL     1       6.940   5.473  17.710  0.00  0.00    +0.000 C 
ATOM     10  C   UNL     1       7.323   4.811  16.383  0.00  0.00    +0.000 C 
ATOM     11  C   UNL     1       6.061   4.556  15.546  0.00  0.00    +0.000 C 
ATOM     12  C   UNL     1       5.361   5.899  15.275  0.00  0.00    +0.000 C 
ATOM     13  C   UNL     1       5.109   3.627  16.322  0.00  0.00    +0.000 C 
ATOM     14  C   UNL     1       6.003   4.537  18.481  0.00  0.00    +0.000 C 
ENDBRANCH   3   5
BRANCH   1  15
ATOM     15  C   UNL     1       1.770   2.079  18.819  0.00  0.00    +0.000 C 
BRANCH  15  16
ATOM     16  C   UNL     1       1.665   2.729  20.193  0.00  0.00    +0.000 C 
BRANCH  16  17
ATOM     17  C   UNL     1       1.019   4.101  20.126  0.00  0.00    +0.000 C 
BRANCH  17  18
ATOM     18  C   UNL     1       1.865   5.114  20.890  0.00  0.00    +0.000 C 
BRANCH  18  19
ATOM     19  C   UNL     1       1.973   6.407  20.098  0.00  0.00    +0.000 C 
BRANCH  19  20
ATOM     20  C   UNL     1       1.595   7.596  20.968  0.00  0.00    +0.000 C 
BRANCH  20  21
ATOM     21  C   UNL     1       1.175   8.767  20.093  0.00  0.00    +0.000 C 
BRANCH  21  22
ATOM     22  C   UNL     1       0.390   9.782  20.908  0.00  0.00    +0.000 C 
BRANCH  22  23
ATOM     23  C   UNL     1       0.535   9.496  22.395  0.00  0.00    +0.000 C 
BRANCH  23  25
ATOM     24  C   UNL     1      -1.143  11.334  22.613  0.00  0.00    +0.000 C 
ATOM     25  C   UNL     1      -0.683   9.996  23.159  0.00  0.00    +0.000 C 
ENDBRANCH  23  25
ENDBRANCH  22  23
ENDBRANCH  21  22
ENDBRANCH  20  21
ENDBRANCH  19  20
ENDBRANCH  18  19
ENDBRANCH  17  18
ENDBRANCH  16  17
ENDBRANCH  15  16
ENDBRANCH   1  15
TORSDOF 11
ENDMDL
MODEL 5
REMARK VINA RESULT:      -6.9      3.038      5.373
REMARK  Name = 
REMARK  12 active torsions:
REMARK  status: ('A' for Active; 'I' for Inactive)
REMARK    1  A    between atoms: C_1  and  C_2
REMARK    2  A    between atoms: C_2  and  C_3
REMARK    3  A    between atoms: C_3  and  C_4
REMARK    4  A    between atoms: C_4  and  C_5
REMARK    5  A    between atoms: C_5  and  C_6
REMARK    6  A    between atoms: C_6  and  C_7
REMARK    7  A    between atoms: C_7  and  C_8
REMARK    8  A    between atoms: C_8  and  C_9
REMARK    9  A    between atoms: C_9  and  C_10
REMARK   10  A    between atoms: C_10  and  C_11
REMARK   11  A    between atoms: C_11  and  C_12
REMARK   12  A    between atoms: N_14  and  C_15
REMARK                            x       y       z     vdW  Elec       q    Type
REMARK                         _______ _______ _______ _____ _____    ______ ____
ROOT
ATOM      1  C   UNL     1       4.613   5.166  16.886  0.00  0.00    +0.000 C 
ATOM      2  O   UNL     1       4.801   3.983  16.577  0.00  0.00    +0.000 OA
ATOM      3  N   UNL     1       3.795   5.570  17.917  0.00  0.00    +0.000 N 
ATOM      4  H   UNL     1       3.549   6.552  17.978  0.00  0.00    +0.000 HD
ENDROOT
BRANCH   3   5
ATOM      5  C   UNL     1       3.039   4.601  18.727  0.00  0.00    +0.000 C 
ATOM      6  C   UNL     1       2.388   5.289  19.958  0.00  0.00    +0.000 C 
ATOM      7  C   UNL     1       1.575   4.276  20.780  0.00  0.00    +0.000 C 
ATOM      8  C   UNL     1       0.485   3.665  19.888  0.00  0.00    +0.000 C 
ATOM      9  C   UNL     1       1.123   2.925  18.700  0.00  0.00    +0.000 C 
ATOM     10  C   UNL     1       2.067   1.829  19.204  0.00  0.00    +0.000 C 
ATOM     11  C   UNL     1       3.163   2.449  20.083  0.00  0.00    +0.000 C 
ATOM     12  C   UNL     1       2.504   3.157  21.278  0.00  0.00    +0.000 C 
ATOM     13  C   UNL     1       3.965   3.472  19.257  0.00  0.00    +0.000 C 
ATOM     14  C   UNL     1       1.928   3.931  17.870  0.00  0.00    +0.000 C 
ENDBRANCH   3   5
BRANCH   1  15
ATOM     15  C   UNL     1       5.353   6.257  16.164  0.00  0.00    +0.000 C 
BRANCH  15  16
ATOM     16  C   UNL     1       6.003   7.176  17.192  0.00  0.00    +0.000 C 
BRANCH  16  17
ATOM     17  C   UNL     1       7.196   6.523  17.865  0.00  0.00    +0.000 C 
BRANCH  17  18
ATOM     18  C   UNL     1       8.194   7.588  18.306  0.00  0.00    +0.000 C 
BRANCH  18  19
ATOM     19  C   UNL     1       8.080   8.813  17.414  0.00  0.00    +0.000 C 
BRANCH  19  20
ATOM     20  C   UNL     1       8.198  10.084  18.239  0.00  0.00    +0.000 C 
BRANCH  20  21
ATOM     21  C   UNL     1       9.297   9.930  19.277  0.00  0.00    +0.000 C 
BRANCH  21  22
ATOM     22  C   UNL     1       9.990  11.262  19.518  0.00  0.00    +0.000 C 
BRANCH  22  23
ATOM     23  C   UNL     1       9.450  12.320  18.568  0.00  0.00    +0.000 C 
BRANCH  23  25
ATOM     24  C   UNL     1      11.798  12.350  17.714  0.00  0.00    +0.000 C 
ATOM     25  C   UNL     1      10.580  13.193  18.038  0.00  0.00    +0.000 C 
ENDBRANCH  23  25
ENDBRANCH  22  23
ENDBRANCH  21  22
ENDBRANCH  20  21
ENDBRANCH  19  20
ENDBRANCH  18  19
ENDBRANCH  17  18
ENDBRANCH  16  17
ENDBRANCH  15  16
ENDBRANCH   1  15
TORSDOF 11
ENDMDL
MODEL 6
REMARK VINA RESULT:      -6.8      3.364      5.642
REMARK  Name = 
REMARK  12 active torsions:
REMARK  status: ('A' for Active; 'I' for Inactive)
REMARK    1  A    between atoms: C_1  and  C_2
REMARK    2  A    between atoms: C_2  and  C_3
REMARK    3  A    between atoms: C_3  and  C_4
REMARK    4  A    between atoms: C_4  and  C_5
REMARK    5  A    between atoms: C_5  and  C_6
REMARK    6  A    between atoms: C_6  and  C_7
REMARK    7  A    between atoms: C_7  and  C_8
REMARK    8  A    between atoms: C_8  and  C_9
REMARK    9  A    between atoms: C_9  and  C_10
REMARK   10  A    between atoms: C_10  and  C_11
REMARK   11  A    between atoms: C_11  and  C_12
REMARK   12  A    between atoms: N_14  and  C_15
REMARK                            x       y       z     vdW  Elec       q    Type
REMARK                         _______ _______ _______ _____ _____    ______ ____
ROOT
ATOM      1  C   UNL     1       4.528   5.264  16.878  0.00  0.00    +0.000 C 
ATOM      2  O   UNL     1       4.637   4.090  16.505  0.00  0.00    +0.000 OA
ATOM      3  N   UNL     1       3.792   5.658  17.974  0.00  0.00    +0.000 N 
ATOM      4  H   UNL     1       3.602   6.646  18.095  0.00  0.00    +0.000 HD
ENDROOT
BRANCH   3   5
ATOM      5  C   UNL     1       3.034   4.688  18.781  0.00  0.00    +0.000 C 
ATOM      6  C   UNL     1       3.948   3.525  19.258  0.00  0.00    +0.000 C 
ATOM      7  C   UNL     1       3.156   2.534  20.126  0.00  0.00    +0.000 C 
ATOM      8  C   UNL     1       2.580   3.277  21.341  0.00  0.00    +0.000 C 
ATOM      9  C   UNL     1       1.624   4.389  20.879  0.00  0.00    +0.000 C 
ATOM     10  C   UNL     1       0.489   3.796  20.039  0.00  0.00    +0.000 C 
ATOM     11  C   UNL     1       1.070   3.067  18.818  0.00  0.00    +0.000 C 
ATOM     12  C   UNL     1       1.999   1.943  19.304  0.00  0.00    +0.000 C 
ATOM     13  C   UNL     1       1.873   4.063  17.960  0.00  0.00    +0.000 C 
ATOM     14  C   UNL     1       2.409   5.387  20.021  0.00  0.00    +0.000 C 
ENDBRANCH   3   5
BRANCH   1  15
ATOM     15  C   UNL     1       5.282   6.353  16.165  0.00  0.00    +0.000 C 
BRANCH  15  16
ATOM     16  C   UNL     1       6.042   7.182  17.193  0.00  0.00    +0.000 C 
BRANCH  16  17
ATOM     17  C   UNL     1       7.515   6.818  17.242  0.00  0.00    +0.000 C 
BRANCH  17  18
ATOM     18  C   UNL     1       8.206   7.590  18.361  0.00  0.00    +0.000 C 
BRANCH  18  19
ATOM     19  C   UNL     1       8.198   9.078  18.052  0.00  0.00    +0.000 C 
BRANCH  19  20
ATOM     20  C   UNL     1       9.178   9.813  18.952  0.00  0.00    +0.000 C 
BRANCH  20  21
ATOM     21  C   UNL     1       9.475  11.191  18.382  0.00  0.00    +0.000 C 
BRANCH  21  22
ATOM     22  C   UNL     1      10.835  11.679  18.853  0.00  0.00    +0.000 C 
BRANCH  22  23
ATOM     23  C   UNL     1      10.777  13.159  19.200  0.00  0.00    +0.000 C 
BRANCH  23  25
ATOM     24  C   UNL     1       9.890  13.158  21.536  0.00  0.00    +0.000 C 
ATOM     25  C   UNL     1       9.573  13.456  20.084  0.00  0.00    +0.000 C 
ENDBRANCH  23  25
ENDBRANCH  22  23
ENDBRANCH  21  22
ENDBRANCH  20  21
ENDBRANCH  19  20
ENDBRANCH  18  19
ENDBRANCH  17  18
ENDBRANCH  16  17
ENDBRANCH  15  16
ENDBRANCH   1  15
TORSDOF 11
ENDMDL
MODEL 7
REMARK VINA RESULT:      -6.8      3.688      6.364
REMARK  Name = 
REMARK  12 active torsions:
REMARK  status: ('A' for Active; 'I' for Inactive)
REMARK    1  A    between atoms: C_1  and  C_2
REMARK    2  A    between atoms: C_2  and  C_3
REMARK    3  A    between atoms: C_3  and  C_4
REMARK    4  A    between atoms: C_4  and  C_5
REMARK    5  A    between atoms: C_5  and  C_6
REMARK    6  A    between atoms: C_6  and  C_7
REMARK    7  A    between atoms: C_7  and  C_8
REMARK    8  A    between atoms: C_8  and  C_9
REMARK    9  A    between atoms: C_9  and  C_10
REMARK   10  A    between atoms: C_10  and  C_11
REMARK   11  A    between atoms: C_11  and  C_12
REMARK   12  A    between atoms: N_14  and  C_15
REMARK                            x       y       z     vdW  Elec       q    Type
REMARK                         _______ _______ _______ _____ _____    ______ ____
ROOT
ATOM      1  C   UNL     1       6.173   5.287  18.242  0.00  0.00    +0.000 C 
ATOM      2  O   UNL     1       5.467   6.036  17.557  0.00  0.00    +0.000 OA
ATOM      3  N   UNL     1       5.692   4.198  18.935  0.00  0.00    +0.000 N 
ATOM      4  H   UNL     1       6.299   3.756  19.617  0.00  0.00    +0.000 HD
ENDROOT
BRANCH   3   5
ATOM      5  C   UNL     1       4.260   3.858  18.937  0.00  0.00    +0.000 C 
ATOM      6  C   UNL     1       3.399   5.076  19.368  0.00  0.00    +0.000 C 
ATOM      7  C   UNL     1       1.903   4.722  19.338  0.00  0.00    +0.000 C 
ATOM      8  C   UNL     1       1.518   4.288  17.915  0.00  0.00    +0.000 C 
ATOM      9  C   UNL     1       2.321   3.042  17.504  0.00  0.00    +0.000 C 
ATOM     10  C   UNL     1       2.065   1.898  18.491  0.00  0.00    +0.000 C 
ATOM     11  C   UNL     1       2.466   2.333  19.908  0.00  0.00    +0.000 C 
ATOM     12  C   UNL     1       1.631   3.561  20.308  0.00  0.00    +0.000 C 
ATOM     13  C   UNL     1       3.962   2.699  19.929  0.00  0.00    +0.000 C 
ATOM     14  C   UNL     1       3.812   3.391  17.523  0.00  0.00    +0.000 C 
ENDBRANCH   3   5
BRANCH   1  15
ATOM     15  C   UNL     1       7.661   5.498  18.296  0.00  0.00    +0.000 C 
BRANCH  15  16
ATOM     16  C   UNL     1       7.940   6.941  18.701  0.00  0.00    +0.000 C 
BRANCH  16  17
ATOM     17  C   UNL     1       8.147   7.840  17.497  0.00  0.00    +0.000 C 
BRANCH  17  18
ATOM     18  C   UNL     1       7.895   9.294  17.881  0.00  0.00    +0.000 C 
BRANCH  18  19
ATOM     19  C   UNL     1       8.982   9.782  18.823  0.00  0.00    +0.000 C 
BRANCH  19  20
ATOM     20  C   UNL     1       9.684  10.998  18.241  0.00  0.00    +0.000 C 
BRANCH  20  21
ATOM     21  C   UNL     1      10.840  11.411  19.138  0.00  0.00    +0.000 C 
BRANCH  21  22
ATOM     22  C   UNL     1      10.342  11.697  20.546  0.00  0.00    +0.000 C 
BRANCH  22  23
ATOM     23  C   UNL     1      10.336  13.195  20.812  0.00  0.00    +0.000 C 
BRANCH  23  25
ATOM     24  C   UNL     1       8.804  12.363  22.602  0.00  0.00    +0.000 C 
ATOM     25  C   UNL     1       9.216  13.565  21.775  0.00  0.00    +0.000 C 
ENDBRANCH  23  25
ENDBRANCH  22  23
ENDBRANCH  21  22
ENDBRANCH  20  21
ENDBRANCH  19  20
ENDBRANCH  18  19
ENDBRANCH  17  18
ENDBRANCH  16  17
ENDBRANCH  15  16
ENDBRANCH   1  15
TORSDOF 11
ENDMDL
MODEL 8
REMARK VINA RESULT:      -6.8      2.327      6.611
REMARK  Name = 
REMARK  12 active torsions:
REMARK  status: ('A' for Active; 'I' for Inactive)
REMARK    1  A    between atoms: C_1  and  C_2
REMARK    2  A    between atoms: C_2  and  C_3
REMARK    3  A    between atoms: C_3  and  C_4
REMARK    4  A    between atoms: C_4  and  C_5
REMARK    5  A    between atoms: C_5  and  C_6
REMARK    6  A    between atoms: C_6  and  C_7
REMARK    7  A    between atoms: C_7  and  C_8
REMARK    8  A    between atoms: C_8  and  C_9
REMARK    9  A    between atoms: C_9  and  C_10
REMARK   10  A    between atoms: C_10  and  C_11
REMARK   11  A    between atoms: C_11  and  C_12
REMARK   12  A    between atoms: N_14  and  C_15
REMARK                            x       y       z     vdW  Elec       q    Type
REMARK                         _______ _______ _______ _____ _____    ______ ____
ROOT
ATOM      1  C   UNL     1       2.735   2.774  17.799  0.00  0.00    +0.000 C 
ATOM      2  O   UNL     1       2.236   3.241  16.769  0.00  0.00    +0.000 OA
ATOM      3  N   UNL     1       3.981   3.117  18.275  0.00  0.00    +0.000 N 
ATOM      4  H   UNL     1       4.387   2.551  19.011  0.00  0.00    +0.000 HD
ENDROOT
BRANCH   3   5
ATOM      5  C   UNL     1       4.846   4.065  17.554  0.00  0.00    +0.000 C 
ATOM      6  C   UNL     1       6.017   4.547  18.453  0.00  0.00    +0.000 C 
ATOM      7  C   UNL     1       6.932   5.512  17.682  0.00  0.00    +0.000 C 
ATOM      8  C   UNL     1       7.488   4.796  16.442  0.00  0.00    +0.000 C 
ATOM      9  C   UNL     1       6.337   4.372  15.514  0.00  0.00    +0.000 C 
ATOM     10  C   UNL     1       5.519   5.597  15.092  0.00  0.00    +0.000 C 
ATOM     11  C   UNL     1       4.954   6.299  16.335  0.00  0.00    +0.000 C 
ATOM     12  C   UNL     1       6.122   6.739  17.234  0.00  0.00    +0.000 C 
ATOM     13  C   UNL     1       4.049   5.323  17.110  0.00  0.00    +0.000 C 
ATOM     14  C   UNL     1       5.426   3.402  16.272  0.00  0.00    +0.000 C 
ENDBRANCH   3   5
BRANCH   1  15
ATOM     15  C   UNL     1       1.943   1.822  18.653  0.00  0.00    +0.000 C 
BRANCH  15  16
ATOM     16  C   UNL     1       0.698   2.536  19.165  0.00  0.00    +0.000 C 
BRANCH  16  17
ATOM     17  C   UNL     1       0.966   3.296  20.451  0.00  0.00    +0.000 C 
BRANCH  17  18
ATOM     18  C   UNL     1       1.019   4.794  20.171  0.00  0.00    +0.000 C 
BRANCH  18  19
ATOM     19  C   UNL     1       2.293   5.389  20.749  0.00  0.00    +0.000 C 
BRANCH  19  20
ATOM     20  C   UNL     1       2.935   6.340  19.751  0.00  0.00    +0.000 C 
BRANCH  20  21
ATOM     21  C   UNL     1       2.056   7.566  19.562  0.00  0.00    +0.000 C 
BRANCH  21  22
ATOM     22  C   UNL     1       2.083   8.019  18.111  0.00  0.00    +0.000 C 
BRANCH  22  23
ATOM     23  C   UNL     1       1.865   9.522  18.021  0.00  0.00    +0.000 C 
BRANCH  23  25
ATOM     24  C   UNL     1       0.965  11.507  19.243  0.00  0.00    +0.000 C 
ATOM     25  C   UNL     1       0.926   9.996  19.122  0.00  0.00    +0.000 C 
ENDBRANCH  23  25
ENDBRANCH  22  23
ENDBRANCH  21  22
ENDBRANCH  20  21
ENDBRANCH  19  20
ENDBRANCH  18  19
ENDBRANCH  17  18
ENDBRANCH  16  17
ENDBRANCH  15  16
ENDBRANCH   1  15
TORSDOF 11
ENDMDL
MODEL 9
REMARK VINA RESULT:      -6.7      3.362      5.627
REMARK  Name = 
REMARK  12 active torsions:
REMARK  status: ('A' for Active; 'I' for Inactive)
REMARK    1  A    between atoms: C_1  and  C_2
REMARK    2  A    between atoms: C_2  and  C_3
REMARK    3  A    between atoms: C_3  and  C_4
REMARK    4  A    between atoms: C_4  and  C_5
REMARK    5  A    between atoms: C_5  and  C_6
REMARK    6  A    between atoms: C_6  and  C_7
REMARK    7  A    between atoms: C_7  and  C_8
REMARK    8  A    between atoms: C_8  and  C_9
REMARK    9  A    between atoms: C_9  and  C_10
REMARK   10  A    between atoms: C_10  and  C_11
REMARK   11  A    between atoms: C_11  and  C_12
REMARK   12  A    between atoms: N_14  and  C_15
REMARK                            x       y       z     vdW  Elec       q    Type
REMARK                         _______ _______ _______ _____ _____    ______ ____
ROOT
ATOM      1  C   UNL     1       5.677   4.365  17.146  0.00  0.00    +0.000 C 
ATOM      2  O   UNL     1       4.839   4.509  16.248  0.00  0.00    +0.000 OA
ATOM      3  N   UNL     1       5.372   3.941  18.421  0.00  0.00    +0.000 N 
ATOM      4  H   UNL     1       6.081   4.034  19.140  0.00  0.00    +0.000 HD
ENDROOT
BRANCH   3   5
ATOM      5  C   UNL     1       3.987   3.655  18.827  0.00  0.00    +0.000 C 
ATOM      6  C   UNL     1       3.172   4.967  18.990  0.00  0.00    +0.000 C 
ATOM      7  C   UNL     1       1.718   4.658  19.384  0.00  0.00    +0.000 C 
ATOM      8  C   UNL     1       1.079   3.778  18.298  0.00  0.00    +0.000 C 
ATOM      9  C   UNL     1       1.843   2.449  18.175  0.00  0.00    +0.000 C 
ATOM     10  C   UNL     1       1.842   1.712  19.518  0.00  0.00    +0.000 C 
ATOM     11  C   UNL     1       2.495   2.590  20.595  0.00  0.00    +0.000 C 
ATOM     12  C   UNL     1       1.699   3.900  20.721  0.00  0.00    +0.000 C 
ATOM     13  C   UNL     1       3.946   2.907  20.188  0.00  0.00    +0.000 C 
ATOM     14  C   UNL     1       3.290   2.749  17.774  0.00  0.00    +0.000 C 
ENDBRANCH   3   5
BRANCH   1  15
ATOM     15  C   UNL     1       7.135   4.587  16.856  0.00  0.00    +0.000 C 
BRANCH  15  16
ATOM     16  C   UNL     1       7.320   5.996  16.306  0.00  0.00    +0.000 C 
BRANCH  16  17
ATOM     17  C   UNL     1       6.851   7.055  17.287  0.00  0.00    +0.000 C 
BRANCH  17  18
ATOM     18  C   UNL     1       8.027   7.549  18.124  0.00  0.00    +0.000 C 
BRANCH  18  19
ATOM     19  C   UNL     1       8.239   9.037  17.901  0.00  0.00    +0.000 C 
BRANCH  19  20
ATOM     20  C   UNL     1       9.086   9.626  19.017  0.00  0.00    +0.000 C 
BRANCH  20  21
ATOM     21  C   UNL     1       9.169  11.137  18.864  0.00  0.00    +0.000 C 
BRANCH  21  22
ATOM     22  C   UNL     1      10.193  11.507  17.802  0.00  0.00    +0.000 C 
BRANCH  22  23
ATOM     23  C   UNL     1      11.484  11.980  18.453  0.00  0.00    +0.000 C 
BRANCH  23  25
ATOM     24  C   UNL     1      11.308  13.853  16.808  0.00  0.00    +0.000 C 
ATOM     25  C   UNL     1      12.253  12.900  17.514  0.00  0.00    +0.000 C 
ENDBRANCH  23  25
ENDBRANCH  22  23
ENDBRANCH  21  22
ENDBRANCH  20  21
ENDBRANCH  19  20
ENDBRANCH  18  19
ENDBRANCH  17  18
ENDBRANCH  16  17
ENDBRANCH  15  16
ENDBRANCH   1  15
TORSDOF 11
ENDMDL
