MODEL 1
REMARK VINA RESULT:      -7.0      0.000      0.000
REMARK  Name = 
REMARK  10 active torsions:
REMARK  status: ('A' for Active; 'I' for Inactive)
REMARK    1  A    between atoms: C_1  and  C_2
REMARK    2  A    between atoms: C_2  and  C_3
REMARK    3  A    between atoms: C_3  and  N_4
REMARK    4  A    between atoms: C_3  and  C_21
REMARK    5  A    between atoms: C_5  and  C_7
REMARK    6  A    between atoms: C_10  and  C_11
REMARK    7  A    between atoms: C_14  and  O_15
REMARK    8  A    between atoms: O_15  and  C_16
REMARK    9  A    between atoms: C_16  and  C_17
REMARK   10  A    between atoms: C_24  and  C_25
REMARK                            x       y       z     vdW  Elec       q    Type
REMARK                         _______ _______ _______ _____ _____    ______ ____
ROOT
ATOM      1  C   UNL     1       2.134   7.868  19.376  0.00  0.00    +0.000 A 
ATOM      2  C   UNL     1       2.496   8.283  18.110  0.00  0.00    +0.000 A 
ATOM      3  C   UNL     1       3.305   7.439  17.361  0.00  0.00    +0.000 A 
ATOM      4  C   UNL     1       3.744   6.200  17.865  0.00  0.00    +0.000 A 
ATOM      5  C   UNL     1       3.322   5.891  19.169  0.00  0.00    +0.000 A 
ATOM      6  N   UNL     1       2.532   6.696  19.928  0.00  0.00    +0.000 NA
ENDROOT
BRANCH   1   8
ATOM      7  N   UNL     1       0.601   9.748  19.526  0.00  0.00    +0.000 N 
ATOM      8  C   UNL     1       1.229   8.732  20.199  0.00  0.00    +0.000 C 
ATOM      9  O   UNL     1       1.087   8.524  21.402  0.00  0.00    +0.000 OA
ATOM     10  H   UNL     1       0.809   9.872  18.537  0.00  0.00    +0.000 HD
BRANCH   7  11
ATOM     11  C   UNL     1      -0.239  10.733  20.195  0.00  0.00    +0.000 C 
BRANCH  11  12
ATOM     12  C   UNL     1       0.617  11.909  20.572  0.00  0.00    +0.000 A 
ATOM     13  N   UNL     1       0.446  12.590  21.715  0.00  0.00    +0.000 NA
ATOM     14  O   UNL     1       1.443  13.565  21.660  0.00  0.00    +0.000 OA
ATOM     15  C   UNL     1       2.111  13.373  20.488  0.00  0.00    +0.000 A 
ATOM     16  C   UNL     1       3.236  14.282  20.206  0.00  0.00    +0.000 C 
ATOM     17  N   UNL     1       1.643  12.376  19.772  0.00  0.00    +0.000 NA
ENDBRANCH  11  12
BRANCH  11  19
ATOM     18  C   UNL     1      -1.560  10.399  18.019  0.00  0.00    +0.000 C 
ATOM     19  C   UNL     1      -1.427  11.178  19.321  0.00  0.00    +0.000 C 
ENDBRANCH  11  19
ENDBRANCH   7  11
ENDBRANCH   1   8
BRANCH   4  20
ATOM     20  C   UNL     1       4.612   5.350  16.960  0.00  0.00    +0.000 C 
ATOM     21  C   UNL     1       5.363   5.839  15.753  0.00  0.00    +0.000 C 
ATOM     22  C   UNL     1       6.109   5.608  17.030  0.00  0.00    +0.000 C 
ENDBRANCH   4  20
BRANCH   5  23
ATOM     23  O   UNL     1       3.757   4.702  19.740  0.00  0.00    +0.000 OA
BRANCH  23  24
ATOM     24  C   UNL     1       2.666   3.818  20.025  0.00  0.00    +0.000 C 
BRANCH  24  25
ATOM     25  C   UNL     1       1.896   3.515  18.770  0.00  0.00    +0.000 C 
ATOM     26  C   UNL     1       2.246   2.350  17.879  0.00  0.00    +0.000 C 
ATOM     27  C   UNL     1       1.019   2.284  18.744  0.00  0.00    +0.000 C 
ENDBRANCH  24  25
ENDBRANCH  23  24
ENDBRANCH   5  23
TORSDOF 8
ENDMDL
MODEL 2
REMARK VINA RESULT:      -7.0      2.235      4.319
REMARK  Name = 
REMARK  10 active torsions:
REMARK  status: ('A' for Active; 'I' for Inactive)
REMARK    1  A    between atoms: C_1  and  C_2
REMARK    2  A    between atoms: C_2  and  C_3
REMARK    3  A    between atoms: C_3  and  N_4
REMARK    4  A    between atoms: C_3  and  C_21
REMARK    5  A    between atoms: C_5  and  C_7
REMARK    6  A    between atoms: C_10  and  C_11
REMARK    7  A    between atoms: C_14  and  O_15
REMARK    8  A    between atoms: O_15  and  C_16
REMARK    9  A    between atoms: C_16  and  C_17
REMARK   10  A    between atoms: C_24  and  C_25
REMARK                            x       y       z     vdW  Elec       q    Type
REMARK                         _______ _______ _______ _____ _____    ______ ____
ROOT
ATOM      1  C   UNL     1       2.044   7.562  19.044  0.00  0.00    +0.000 A 
ATOM      2  C   UNL     1       1.669   7.177  20.316  0.00  0.00    +0.000 A 
ATOM      3  C   UNL     1       1.889   5.856  20.681  0.00  0.00    +0.000 A 
ATOM      4  C   UNL     1       2.477   4.934  19.795  0.00  0.00    +0.000 A 
ATOM      5  C   UNL     1       2.806   5.437  18.525  0.00  0.00    +0.000 A 
ATOM      6  N   UNL     1       2.601   6.724  18.136  0.00  0.00    +0.000 NA
ENDROOT
BRANCH   1   8
ATOM      7  N   UNL     1       1.026   9.737  19.416  0.00  0.00    +0.000 N 
ATOM      8  C   UNL     1       1.861   8.988  18.627  0.00  0.00    +0.000 C 
ATOM      9  O   UNL     1       2.429   9.427  17.629  0.00  0.00    +0.000 OA
ATOM     10  H   UNL     1       0.565   9.280  20.200  0.00  0.00    +0.000 HD
BRANCH   7  11
ATOM     11  C   UNL     1       0.669  11.114  19.096  0.00  0.00    +0.000 C 
BRANCH  11  12
ATOM     12  C   UNL     1      -0.626  11.103  18.334  0.00  0.00    +0.000 A 
ATOM     13  N   UNL     1      -1.459  12.155  18.311  0.00  0.00    +0.000 NA
ATOM     14  O   UNL     1      -2.501  11.721  17.491  0.00  0.00    +0.000 OA
ATOM     15  C   UNL     1      -2.190  10.452  17.105  0.00  0.00    +0.000 A 
ATOM     16  C   UNL     1      -3.144   9.776  16.207  0.00  0.00    +0.000 C 
ATOM     17  N   UNL     1      -1.054  10.014  17.598  0.00  0.00    +0.000 NA
ENDBRANCH  11  12
BRANCH  11  19
ATOM     18  C   UNL     1      -0.026  11.270  21.563  0.00  0.00    +0.000 C 
ATOM     19  C   UNL     1       0.556  11.994  20.355  0.00  0.00    +0.000 C 
ENDBRANCH  11  19
ENDBRANCH   7  11
ENDBRANCH   1   8
BRANCH   4  20
ATOM     20  C   UNL     1       2.684   3.520  20.299  0.00  0.00    +0.000 C 
ATOM     21  C   UNL     1       2.011   2.909  21.497  0.00  0.00    +0.000 C 
ATOM     22  C   UNL     1       1.513   2.567  20.127  0.00  0.00    +0.000 C 
ENDBRANCH   4  20
BRANCH   5  23
ATOM     23  O   UNL     1       3.349   4.566  17.590  0.00  0.00    +0.000 OA
BRANCH  23  24
ATOM     24  C   UNL     1       4.759   4.766  17.433  0.00  0.00    +0.000 C 
BRANCH  24  25
ATOM     25  C   UNL     1       5.260   4.030  16.223  0.00  0.00    +0.000 C 
ATOM     26  C   UNL     1       5.556   4.734  14.923  0.00  0.00    +0.000 C 
ATOM     27  C   UNL     1       6.689   4.254  15.785  0.00  0.00    +0.000 C 
ENDBRANCH  24  25
ENDBRANCH  23  24
ENDBRANCH   5  23
TORSDOF 8
ENDMDL
MODEL 3
REMARK VINA RESULT:      -6.9      2.063      4.339
REMARK  Name = 
REMARK  10 active torsions:
REMARK  status: ('A' for Active; 'I' for Inactive)
REMARK    1  A    between atoms: C_1  and  C_2
REMARK    2  A    between atoms: C_2  and  C_3
REMARK    3  A    between atoms: C_3  and  N_4
REMARK    4  A    between atoms: C_3  and  C_21
REMARK    5  A    between atoms: C_5  and  C_7
REMARK    6  A    between atoms: C_10  and  C_11
REMARK    7  A    between atoms: C_14  and  O_15
REMARK    8  A    between atoms: O_15  and  C_16
REMARK    9  A    between atoms: C_16  and  C_17
REMARK   10  A    between atoms: C_24  and  C_25
REMARK                            x       y       z     vdW  Elec       q    Type
REMARK                         _______ _______ _______ _____ _____    ______ ____
ROOT
ATOM      1  C   UNL     1       2.171   7.335  18.937  0.00  0.00    +0.000 A 
ATOM      2  C   UNL     1       1.715   6.994  20.195  0.00  0.00    +0.000 A 
ATOM      3  C   UNL     1       1.955   5.701  20.639  0.00  0.00    +0.000 A 
ATOM      4  C   UNL     1       2.642   4.763  19.845  0.00  0.00    +0.000 A 
ATOM      5  C   UNL     1       3.047   5.221  18.579  0.00  0.00    +0.000 A 
ATOM      6  N   UNL     1       2.825   6.480  18.114  0.00  0.00    +0.000 NA
ENDROOT
BRANCH   1   8
ATOM      7  N   UNL     1       1.273   9.568  19.275  0.00  0.00    +0.000 N 
ATOM      8  C   UNL     1       1.967   8.732  18.439  0.00  0.00    +0.000 C 
ATOM      9  O   UNL     1       2.399   9.074  17.340  0.00  0.00    +0.000 OA
ATOM     10  H   UNL     1       0.917   9.188  20.149  0.00  0.00    +0.000 HD
BRANCH   7  11
ATOM     11  C   UNL     1       0.910  10.929  18.901  0.00  0.00    +0.000 C 
BRANCH  11  12
ATOM     12  C   UNL     1      -0.578  10.984  18.695  0.00  0.00    +0.000 A 
ATOM     13  N   UNL     1      -1.382  11.761  19.436  0.00  0.00    +0.000 NA
ATOM     14  O   UNL     1      -2.647  11.514  18.903  0.00  0.00    +0.000 OA
ATOM     15  C   UNL     1      -2.477  10.612  17.896  0.00  0.00    +0.000 A 
ATOM     16  C   UNL     1      -3.684  10.201  17.158  0.00  0.00    +0.000 C 
ATOM     17  N   UNL     1      -1.228  10.243  17.726  0.00  0.00    +0.000 NA
ENDBRANCH  11  12
BRANCH  11  19
ATOM     18  C   UNL     1       1.983  13.216  19.362  0.00  0.00    +0.000 C 
ATOM     19  C   UNL     1       1.354  11.962  19.955  0.00  0.00    +0.000 C 
ENDBRANCH  11  19
ENDBRANCH   7  11
ENDBRANCH   1   8
BRANCH   4  20
ATOM     20  C   UNL     1       2.863   3.384  20.431  0.00  0.00    +0.000 C 
ATOM     21  C   UNL     1       2.052   2.760  21.532  0.00  0.00    +0.000 C 
ATOM     22  C   UNL     1       1.801   2.343  20.116  0.00  0.00    +0.000 C 
ENDBRANCH   4  20
BRANCH   5  23
ATOM     23  O   UNL     1       3.692   4.332  17.730  0.00  0.00    +0.000 OA
BRANCH  23  24
ATOM     24  C   UNL     1       4.905   4.883  17.203  0.00  0.00    +0.000 C 
BRANCH  24  25
ATOM     25  C   UNL     1       6.050   4.615  18.138  0.00  0.00    +0.000 C 
ATOM     26  C   UNL     1       7.486   4.653  17.677  0.00  0.00    +0.000 C 
ATOM     27  C   UNL     1       6.947   5.768  18.527  0.00  0.00    +0.000 C 
ENDBRANCH  24  25
ENDBRANCH  23  24
ENDBRANCH   5  23
TORSDOF 8
ENDMDL
MODEL 4
REMARK VINA RESULT:      -6.9      1.386      1.766
REMARK  Name = 
REMARK  10 active torsions:
REMARK  status: ('A' for Active; 'I' for Inactive)
REMARK    1  A    between atoms: C_1  and  C_2
REMARK    2  A    between atoms: C_2  and  C_3
REMARK    3  A    between atoms: C_3  and  N_4
REMARK    4  A    between atoms: C_3  and  C_21
REMARK    5  A    between atoms: C_5  and  C_7
REMARK    6  A    between atoms: C_10  and  C_11
REMARK    7  A    between atoms: C_14  and  O_15
REMARK    8  A    between atoms: O_15  and  C_16
REMARK    9  A    between atoms: C_16  and  C_17
REMARK   10  A    between atoms: C_24  and  C_25
REMARK                            x       y       z     vdW  Elec       q    Type
REMARK                         _______ _______ _______ _____ _____    ______ ____
ROOT
ATOM      1  C   UNL     1       2.675   7.082  18.686  0.00  0.00    +0.000 A 
ATOM      2  C   UNL     1       3.556   7.608  17.761  0.00  0.00    +0.000 A 
ATOM      3  C   UNL     1       4.274   6.717  16.975  0.00  0.00    +0.000 A 
ATOM      4  C   UNL     1       4.114   5.324  17.105  0.00  0.00    +0.000 A 
ATOM      5  C   UNL     1       3.199   4.907  18.087  0.00  0.00    +0.000 A 
ATOM      6  N   UNL     1       2.483   5.753  18.874  0.00  0.00    +0.000 NA
ENDROOT
BRANCH   1   8
ATOM      7  N   UNL     1       1.397   9.139  18.892  0.00  0.00    +0.000 N 
ATOM      8  C   UNL     1       1.852   8.011  19.524  0.00  0.00    +0.000 C 
ATOM      9  O   UNL     1       1.626   7.754  20.704  0.00  0.00    +0.000 OA
ATOM     10  H   UNL     1       1.668   9.291  17.922  0.00  0.00    +0.000 HD
BRANCH   7  11
ATOM     11  C   UNL     1       0.663  10.188  19.588  0.00  0.00    +0.000 C 
BRANCH  11  12
ATOM     12  C   UNL     1       1.392  11.487  19.394  0.00  0.00    +0.000 A 
ATOM     13  N   UNL     1       2.125  11.748  18.302  0.00  0.00    +0.000 NA
ATOM     14  O   UNL     1       2.597  13.041  18.532  0.00  0.00    +0.000 OA
ATOM     15  C   UNL     1       2.102  13.426  19.741  0.00  0.00    +0.000 A 
ATOM     16  C   UNL     1       2.452  14.781  20.204  0.00  0.00    +0.000 C 
ATOM     17  N   UNL     1       1.361  12.510  20.323  0.00  0.00    +0.000 NA
ENDBRANCH  11  12
BRANCH  11  19
ATOM     18  C   UNL     1      -0.985   9.934  17.635  0.00  0.00    +0.000 C 
ATOM     19  C   UNL     1      -0.795  10.301  19.102  0.00  0.00    +0.000 C 
ENDBRANCH  11  19
ENDBRANCH   7  11
ENDBRANCH   1   8
BRANCH   4  20
ATOM     20  C   UNL     1       4.937   4.442  16.189  0.00  0.00    +0.000 C 
ATOM     21  C   UNL     1       5.917   4.923  15.156  0.00  0.00    +0.000 C 
ATOM     22  C   UNL     1       6.432   4.399  16.461  0.00  0.00    +0.000 C 
ENDBRANCH   4  20
BRANCH   5  23
ATOM     23  O   UNL     1       3.029   3.545  18.295  0.00  0.00    +0.000 OA
BRANCH  23  24
ATOM     24  C   UNL     1       1.717   3.241  18.784  0.00  0.00    +0.000 C 
BRANCH  24  25
ATOM     25  C   UNL     1       1.803   2.381  20.013  0.00  0.00    +0.000 C 
ATOM     26  C   UNL     1       2.710   2.724  21.168  0.00  0.00    +0.000 C 
ATOM     27  C   UNL     1       1.226   2.912  21.305  0.00  0.00    +0.000 C 
ENDBRANCH  24  25
ENDBRANCH  23  24
ENDBRANCH   5  23
TORSDOF 8
ENDMDL
MODEL 5
REMARK VINA RESULT:      -6.9      2.289      4.459
REMARK  Name = 
REMARK  10 active torsions:
REMARK  status: ('A' for Active; 'I' for Inactive)
REMARK    1  A    between atoms: C_1  and  C_2
REMARK    2  A    between atoms: C_2  and  C_3
REMARK    3  A    between atoms: C_3  and  N_4
REMARK    4  A    between atoms: C_3  and  C_21
REMARK    5  A    between atoms: C_5  and  C_7
REMARK    6  A    between atoms: C_10  and  C_11
REMARK    7  A    between atoms: C_14  and  O_15
REMARK    8  A    between atoms: O_15  and  C_16
REMARK    9  A    between atoms: C_16  and  C_17
REMARK   10  A    between atoms: C_24  and  C_25
REMARK                            x       y       z     vdW  Elec       q    Type
REMARK                         _______ _______ _______ _____ _____    ______ ____
ROOT
ATOM      1  C   UNL     1       1.898   7.694  18.950  0.00  0.00    +0.000 A 
ATOM      2  C   UNL     1       1.593   7.340  20.250  0.00  0.00    +0.000 A 
ATOM      3  C   UNL     1       1.926   6.059  20.665  0.00  0.00    +0.000 A 
ATOM      4  C   UNL     1       2.558   5.144  19.801  0.00  0.00    +0.000 A 
ATOM      5  C   UNL     1       2.808   5.611  18.499  0.00  0.00    +0.000 A 
ATOM      6  N   UNL     1       2.491   6.859  18.061  0.00  0.00    +0.000 NA
ENDROOT
BRANCH   1   8
ATOM      7  N   UNL     1       0.551   9.709  19.110  0.00  0.00    +0.000 N 
ATOM      8  C   UNL     1       1.591   9.080  18.476  0.00  0.00    +0.000 C 
ATOM      9  O   UNL     1       2.242   9.590  17.568  0.00  0.00    +0.000 OA
ATOM     10  H   UNL     1       0.040   9.196  19.825  0.00  0.00    +0.000 HD
BRANCH   7  11
ATOM     11  C   UNL     1       0.065  11.024  18.708  0.00  0.00    +0.000 C 
BRANCH  11  12
ATOM     12  C   UNL     1      -1.290  10.857  18.079  0.00  0.00    +0.000 A 
ATOM     13  N   UNL     1      -1.575   9.856  17.233  0.00  0.00    +0.000 NA
ATOM     14  O   UNL     1      -2.915  10.076  16.915  0.00  0.00    +0.000 OA
ATOM     15  C   UNL     1      -3.300  11.189  17.601  0.00  0.00    +0.000 A 
ATOM     16  C   UNL     1      -4.701  11.620  17.440  0.00  0.00    +0.000 C 
ATOM     17  N   UNL     1      -2.342  11.718  18.327  0.00  0.00    +0.000 NA
ENDBRANCH  11  12
BRANCH  11  19
ATOM     18  C   UNL     1      -0.040  11.333  21.255  0.00  0.00    +0.000 C 
ATOM     19  C   UNL     1       0.002  12.009  19.890  0.00  0.00    +0.000 C 
ENDBRANCH  11  19
ENDBRANCH   7  11
ENDBRANCH   1   8
BRANCH   4  20
ATOM     20  C   UNL     1       2.890   3.776  20.360  0.00  0.00    +0.000 C 
ATOM     21  C   UNL     1       2.229   3.128  21.544  0.00  0.00    +0.000 C 
ATOM     22  C   UNL     1       1.838   2.696  20.165  0.00  0.00    +0.000 C 
ENDBRANCH   4  20
BRANCH   5  23
ATOM     23  O   UNL     1       3.389   4.742  17.586  0.00  0.00    +0.000 OA
BRANCH  23  24
ATOM     24  C   UNL     1       4.672   5.209  17.151  0.00  0.00    +0.000 C 
BRANCH  24  25
ATOM     25  C   UNL     1       5.766   4.547  17.941  0.00  0.00    +0.000 C 
ATOM     26  C   UNL     1       7.217   4.920  17.769  0.00  0.00    +0.000 C 
ATOM     27  C   UNL     1       6.477   5.355  19.002  0.00  0.00    +0.000 C 
ENDBRANCH  24  25
ENDBRANCH  23  24
ENDBRANCH   5  23
TORSDOF 8
ENDMDL
MODEL 6
REMARK VINA RESULT:      -6.9      1.316      1.625
REMARK  Name = 
REMARK  10 active torsions:
REMARK  status: ('A' for Active; 'I' for Inactive)
REMARK    1  A    between atoms: C_1  and  C_2
REMARK    2  A    between atoms: C_2  and  C_3
REMARK    3  A    between atoms: C_3  and  N_4
REMARK    4  A    between atoms: C_3  and  C_21
REMARK    5  A    between atoms: C_5  and  C_7
REMARK    6  A    between atoms: C_10  and  C_11
REMARK    7  A    between atoms: C_14  and  O_15
REMARK    8  A    between atoms: O_15  and  C_16
REMARK    9  A    between atoms: C_16  and  C_17
REMARK   10  A    between atoms: C_24  and  C_25
REMARK                            x       y       z     vdW  Elec       q    Type
REMARK                         _______ _______ _______ _____ _____    ______ ____
ROOT
ATOM      1  C   UNL     1       2.884   7.182  18.803  0.00  0.00    +0.000 A 
ATOM      2  C   UNL     1       3.567   7.590  17.674  0.00  0.00    +0.000 A 
ATOM      3  C   UNL     1       4.478   6.705  17.116  0.00  0.00    +0.000 A 
ATOM      4  C   UNL     1       4.703   5.430  17.670  0.00  0.00    +0.000 A 
ATOM      5  C   UNL     1       3.960   5.131  18.825  0.00  0.00    +0.000 A 
ATOM      6  N   UNL     1       3.063   5.977  19.398  0.00  0.00    +0.000 NA
ENDROOT
BRANCH   1   8
ATOM      7  N   UNL     1       1.378   9.076  18.589  0.00  0.00    +0.000 N 
ATOM      8  C   UNL     1       1.864   8.093  19.412  0.00  0.00    +0.000 C 
ATOM      9  O   UNL     1       1.514   7.949  20.581  0.00  0.00    +0.000 OA
ATOM     10  H   UNL     1       1.755   9.147  17.647  0.00  0.00    +0.000 HD
BRANCH   7  11
ATOM     11  C   UNL     1       0.449  10.100  19.053  0.00  0.00    +0.000 C 
BRANCH  11  12
ATOM     12  C   UNL     1       1.215  11.378  19.255  0.00  0.00    +0.000 A 
ATOM     13  N   UNL     1       1.231  12.032  20.426  0.00  0.00    +0.000 NA
ATOM     14  O   UNL     1       2.057  13.128  20.170  0.00  0.00    +0.000 OA
ATOM     15  C   UNL     1       2.451  13.023  18.871  0.00  0.00    +0.000 A 
ATOM     16  C   UNL     1       3.356  14.069  18.362  0.00  0.00    +0.000 C 
ATOM     17  N   UNL     1       1.959  11.972  18.254  0.00  0.00    +0.000 NA
ENDBRANCH  11  12
BRANCH  11  19
ATOM     18  C   UNL     1      -1.916  11.032  18.688  0.00  0.00    +0.000 C 
ATOM     19  C   UNL     1      -0.721  10.313  18.074  0.00  0.00    +0.000 C 
ENDBRANCH  11  19
ENDBRANCH   7  11
ENDBRANCH   1   8
BRANCH   4  20
ATOM     20  C   UNL     1       5.709   4.537  16.974  0.00  0.00    +0.000 C 
ATOM     21  C   UNL     1       6.809   5.000  16.060  0.00  0.00    +0.000 C 
ATOM     22  C   UNL     1       7.143   4.625  17.470  0.00  0.00    +0.000 C 
ENDBRANCH   4  20
BRANCH   5  23
ATOM     23  O   UNL     1       4.168   3.906  19.446  0.00  0.00    +0.000 OA
BRANCH  23  24
ATOM     24  C   UNL     1       3.141   2.963  19.119  0.00  0.00    +0.000 C 
BRANCH  24  25
ATOM     25  C   UNL     1       2.462   2.476  20.368  0.00  0.00    +0.000 C 
ATOM     26  C   UNL     1       2.270   3.362  21.573  0.00  0.00    +0.000 C 
ATOM     27  C   UNL     1       1.093   3.022  20.703  0.00  0.00    +0.000 C 
ENDBRANCH  24  25
ENDBRANCH  23  24
ENDBRANCH   5  23
TORSDOF 8
ENDMDL
MODEL 7
REMARK VINA RESULT:      -6.9      2.415      3.476
REMARK  Name = 
REMARK  10 active torsions:
REMARK  status: ('A' for Active; 'I' for Inactive)
REMARK    1  A    between atoms: C_1  and  C_2
REMARK    2  A    between atoms: C_2  and  C_3
REMARK    3  A    between atoms: C_3  and  N_4
REMARK    4  A    between atoms: C_3  and  C_21
REMARK    5  A    between atoms: C_5  and  C_7
REMARK    6  A    between atoms: C_10  and  C_11
REMARK    7  A    between atoms: C_14  and  O_15
REMARK    8  A    between atoms: O_15  and  C_16
REMARK    9  A    between atoms: C_16  and  C_17
REMARK   10  A    between atoms: C_24  and  C_25
REMARK                            x       y       z     vdW  Elec       q    Type
REMARK                         _______ _______ _______ _____ _____    ______ ____
ROOT
ATOM      1  C   UNL     1       2.491   8.207  18.049  0.00  0.00    +0.000 A 
ATOM      2  C   UNL     1       3.696   8.095  17.385  0.00  0.00    +0.000 A 
ATOM      3  C   UNL     1       4.220   6.822  17.209  0.00  0.00    +0.000 A 
ATOM      4  C   UNL     1       3.551   5.677  17.683  0.00  0.00    +0.000 A 
ATOM      5  C   UNL     1       2.339   5.916  18.354  0.00  0.00    +0.000 A 
ATOM      6  N   UNL     1       1.802   7.150  18.545  0.00  0.00    +0.000 NA
ENDROOT
BRANCH   1   8
ATOM      7  N   UNL     1       0.782   9.615  19.050  0.00  0.00    +0.000 N 
ATOM      8  C   UNL     1       1.874   9.560  18.224  0.00  0.00    +0.000 C 
ATOM      9  O   UNL     1       2.336  10.539  17.641  0.00  0.00    +0.000 OA
ATOM     10  H   UNL     1       0.442   8.747  19.459  0.00  0.00    +0.000 HD
BRANCH   7  11
ATOM     11  C   UNL     1       0.011  10.836  19.253  0.00  0.00    +0.000 C 
BRANCH  11  12
ATOM     12  C   UNL     1      -1.103  10.868  18.245  0.00  0.00    +0.000 A 
ATOM     13  N   UNL     1      -1.984  11.876  18.174  0.00  0.00    +0.000 NA
ATOM     14  O   UNL     1      -2.810  11.507  17.112  0.00  0.00    +0.000 OA
ATOM     15  C   UNL     1      -2.343  10.313  16.653  0.00  0.00    +0.000 A 
ATOM     16  C   UNL     1      -3.051   9.717  15.505  0.00  0.00    +0.000 C 
ATOM     17  N   UNL     1      -1.300   9.865  17.314  0.00  0.00    +0.000 NA
ENDBRANCH  11  12
BRANCH  11  19
ATOM     18  C   UNL     1      -0.257   9.722  21.552  0.00  0.00    +0.000 C 
ATOM     19  C   UNL     1      -0.545  10.943  20.686  0.00  0.00    +0.000 C 
ENDBRANCH  11  19
ENDBRANCH   7  11
ENDBRANCH   1   8
BRANCH   4  20
ATOM     20  C   UNL     1       4.202   4.334  17.426  0.00  0.00    +0.000 C 
ATOM     21  C   UNL     1       5.679   4.088  17.287  0.00  0.00    +0.000 C 
ATOM     22  C   UNL     1       5.001   3.743  18.577  0.00  0.00    +0.000 C 
ENDBRANCH   4  20
BRANCH   5  23
ATOM     23  O   UNL     1       1.653   4.832  18.885  0.00  0.00    +0.000 OA
BRANCH  23  24
ATOM     24  C   UNL     1       1.580   4.897  20.314  0.00  0.00    +0.000 C 
BRANCH  24  25
ATOM     25  C   UNL     1       1.277   3.539  20.884  0.00  0.00    +0.000 C 
ATOM     26  C   UNL     1       1.777   2.271  20.240  0.00  0.00    +0.000 C 
ATOM     27  C   UNL     1       2.404   2.756  21.516  0.00  0.00    +0.000 C 
ENDBRANCH  24  25
ENDBRANCH  23  24
ENDBRANCH   5  23
TORSDOF 8
ENDMDL
MODEL 8
REMARK VINA RESULT:      -6.9      3.086      7.664
REMARK  Name = 
REMARK  10 active torsions:
REMARK  status: ('A' for Active; 'I' for Inactive)
REMARK    1  A    between atoms: C_1  and  C_2
REMARK    2  A    between atoms: C_2  and  C_3
REMARK    3  A    between atoms: C_3  and  N_4
REMARK    4  A    between atoms: C_3  and  C_21
REMARK    5  A    between atoms: C_5  and  C_7
REMARK    6  A    between atoms: C_10  and  C_11
REMARK    7  A    between atoms: C_14  and  O_15
REMARK    8  A    between atoms: O_15  and  C_16
REMARK    9  A    between atoms: C_16  and  C_17
REMARK   10  A    between atoms: C_24  and  C_25
REMARK                            x       y       z     vdW  Elec       q    Type
REMARK                         _______ _______ _______ _____ _____    ______ ____
ROOT
ATOM      1  C   UNL     1       3.807   7.152  17.981  0.00  0.00    +0.000 A 
ATOM      2  C   UNL     1       3.308   8.318  17.435  0.00  0.00    +0.000 A 
ATOM      3  C   UNL     1       2.201   8.894  18.044  0.00  0.00    +0.000 A 
ATOM      4  C   UNL     1       1.603   8.320  19.182  0.00  0.00    +0.000 A 
ATOM      5  C   UNL     1       2.191   7.128  19.641  0.00  0.00    +0.000 A 
ATOM      6  N   UNL     1       3.272   6.538  19.065  0.00  0.00    +0.000 NA
ENDROOT
BRANCH   1   8
ATOM      7  N   UNL     1       5.332   5.266  17.832  0.00  0.00    +0.000 N 
ATOM      8  C   UNL     1       5.023   6.522  17.377  0.00  0.00    +0.000 C 
ATOM      9  O   UNL     1       5.687   7.123  16.536  0.00  0.00    +0.000 OA
ATOM     10  H   UNL     1       4.749   4.860  18.561  0.00  0.00    +0.000 HD
BRANCH   7  11
ATOM     11  C   UNL     1       6.533   4.553  17.414  0.00  0.00    +0.000 C 
BRANCH  11  12
ATOM     12  C   UNL     1       6.564   4.514  15.912  0.00  0.00    +0.000 A 
ATOM     13  N   UNL     1       7.477   5.181  15.191  0.00  0.00    +0.000 NA
ATOM     14  O   UNL     1       7.147   4.856  13.875  0.00  0.00    +0.000 OA
ATOM     15  C   UNL     1       6.068   4.027  13.937  0.00  0.00    +0.000 A 
ATOM     16  C   UNL     1       5.536   3.527  12.657  0.00  0.00    +0.000 C 
ATOM     17  N   UNL     1       5.658   3.787  15.162  0.00  0.00    +0.000 NA
ENDBRANCH  11  12
BRANCH  11  19
ATOM     18  C   UNL     1       7.707   5.630  19.428  0.00  0.00    +0.000 C 
ATOM     19  C   UNL     1       7.817   5.196  17.971  0.00  0.00    +0.000 C 
ENDBRANCH  11  19
ENDBRANCH   7  11
ENDBRANCH   1   8
BRANCH   4  20
ATOM     20  C   UNL     1       0.409   9.037  19.776  0.00  0.00    +0.000 C 
ATOM     21  C   UNL     1       0.068   9.110  21.239  0.00  0.00    +0.000 C 
ATOM     22  C   UNL     1       0.710  10.292  20.581  0.00  0.00    +0.000 C 
ENDBRANCH   4  20
BRANCH   5  23
ATOM     23  O   UNL     1       1.621   6.489  20.734  0.00  0.00    +0.000 OA
BRANCH  23  24
ATOM     24  C   UNL     1       2.069   5.133  20.850  0.00  0.00    +0.000 C 
BRANCH  24  25
ATOM     25  C   UNL     1       0.995   4.187  20.393  0.00  0.00    +0.000 C 
ATOM     26  C   UNL     1       1.144   3.347  19.150  0.00  0.00    +0.000 C 
ATOM     27  C   UNL     1       1.250   2.701  20.502  0.00  0.00    +0.000 C 
ENDBRANCH  24  25
ENDBRANCH  23  24
ENDBRANCH   5  23
TORSDOF 8
ENDMDL
MODEL 9
REMARK VINA RESULT:      -6.8      2.181      4.190
REMARK  Name = 
REMARK  10 active torsions:
REMARK  status: ('A' for Active; 'I' for Inactive)
REMARK    1  A    between atoms: C_1  and  C_2
REMARK    2  A    between atoms: C_2  and  C_3
REMARK    3  A    between atoms: C_3  and  N_4
REMARK    4  A    between atoms: C_3  and  C_21
REMARK    5  A    between atoms: C_5  and  C_7
REMARK    6  A    between atoms: C_10  and  C_11
REMARK    7  A    between atoms: C_14  and  O_15
REMARK    8  A    between atoms: O_15  and  C_16
REMARK    9  A    between atoms: C_16  and  C_17
REMARK   10  A    between atoms: C_24  and  C_25
REMARK                            x       y       z     vdW  Elec       q    Type
REMARK                         _______ _______ _______ _____ _____    ______ ____
ROOT
ATOM      1  C   UNL     1       2.111   7.388  18.835  0.00  0.00    +0.000 A 
ATOM      2  C   UNL     1       1.785   7.163  20.159  0.00  0.00    +0.000 A 
ATOM      3  C   UNL     1       1.959   5.878  20.656  0.00  0.00    +0.000 A 
ATOM      4  C   UNL     1       2.454   4.836  19.849  0.00  0.00    +0.000 A 
ATOM      5  C   UNL     1       2.739   5.182  18.516  0.00  0.00    +0.000 A 
ATOM      6  N   UNL     1       2.577   6.429  17.999  0.00  0.00    +0.000 NA
ENDROOT
BRANCH   1   8
ATOM      7  N   UNL     1       1.176   9.626  18.985  0.00  0.00    +0.000 N 
ATOM      8  C   UNL     1       1.975   8.769  18.274  0.00  0.00    +0.000 C 
ATOM      9  O   UNL     1       2.548   9.081  17.232  0.00  0.00    +0.000 OA
ATOM     10  H   UNL     1       0.706   9.271  19.815  0.00  0.00    +0.000 HD
BRANCH   7  11
ATOM     11  C   UNL     1       0.865  10.975  18.527  0.00  0.00    +0.000 C 
BRANCH  11  12
ATOM     12  C   UNL     1      -0.608  11.211  18.711  0.00  0.00    +0.000 A 
ATOM     13  N   UNL     1      -1.540  10.515  18.043  0.00  0.00    +0.000 NA
ATOM     14  O   UNL     1      -2.739  11.042  18.523  0.00  0.00    +0.000 OA
ATOM     15  C   UNL     1      -2.407  12.003  19.429  0.00  0.00    +0.000 A 
ATOM     16  C   UNL     1      -3.520  12.703  20.096  0.00  0.00    +0.000 C 
ATOM     17  N   UNL     1      -1.112  12.159  19.581  0.00  0.00    +0.000 NA
ENDBRANCH  11  12
BRANCH  11  19
ATOM     18  C   UNL     1       2.511  12.937  18.345  0.00  0.00    +0.000 C 
ATOM     19  C   UNL     1       1.688  12.046  19.267  0.00  0.00    +0.000 C 
ENDBRANCH  11  19
ENDBRANCH   7  11
ENDBRANCH   1   8
BRANCH   4  20
ATOM     20  C   UNL     1       2.619   3.476  20.494  0.00  0.00    +0.000 C 
ATOM     21  C   UNL     1       1.794   2.939  21.631  0.00  0.00    +0.000 C 
ATOM     22  C   UNL     1       1.507   2.471  20.238  0.00  0.00    +0.000 C 
ENDBRANCH   4  20
BRANCH   5  23
ATOM     23  O   UNL     1       3.189   4.188  17.658  0.00  0.00    +0.000 OA
BRANCH  23  24
ATOM     24  C   UNL     1       4.615   4.207  17.523  0.00  0.00    +0.000 C 
BRANCH  24  25
ATOM     25  C   UNL     1       5.002   4.275  16.072  0.00  0.00    +0.000 C 
ATOM     26  C   UNL     1       5.478   5.553  15.429  0.00  0.00    +0.000 C 
ATOM     27  C   UNL     1       6.462   4.457  15.724  0.00  0.00    +0.000 C 
ENDBRANCH  24  25
ENDBRANCH  23  24
ENDBRANCH   5  23
TORSDOF 8
ENDMDL
