MODEL 1
REMARK VINA RESULT:      -7.0      0.000      0.000
REMARK  Name = 
REMARK  8 active torsions:
REMARK  status: ('A' for Active; 'I' for Inactive)
REMARK    1  A    between atoms: C_1  and  N_2
REMARK    2  A    between atoms: N_2  and  C_3
REMARK    3  A    between atoms: N_2  and  C_4
REMARK    4  A    between atoms: C_4  and  C_5
REMARK    5  A    between atoms: C_5  and  C_6
REMARK    6  A    between atoms: C_6  and  N_7
REMARK    7  A    between atoms: C_11  and  N_12
REMARK    8  A    between atoms: C_21  and  N_22
REMARK                            x       y       z     vdW  Elec       q    Type
REMARK                         _______ _______ _______ _____ _____    ______ ____
ROOT
ATOM      1  N   UNL     1       2.300   6.343  19.983  0.00  0.00    +0.000 N 
ATOM      2  C   UNL     1       3.430   6.156  19.136  0.00  0.00    +0.000 A 
ATOM      3  C   UNL     1       4.402   5.234  19.584  0.00  0.00    +0.000 A 
ATOM      4  C   UNL     1       5.653   5.125  18.974  0.00  0.00    +0.000 A 
ATOM      5  C   UNL     1       5.949   5.936  17.880  0.00  0.00    +0.000 A 
ATOM      6  C   UNL     1       4.988   6.820  17.379  0.00  0.00    +0.000 A 
ATOM      7  C   UNL     1       3.719   6.941  17.993  0.00  0.00    +0.000 A 
ATOM      8  C   UNL     1       2.800   7.964  17.349  0.00  0.00    +0.000 C 
ATOM      9  C   UNL     1       1.363   8.062  17.838  0.00  0.00    +0.000 C 
ATOM     10  C   UNL     1       1.333   8.497  19.278  0.00  0.00    +0.000 A 
ATOM     11  C   UNL     1       0.857   9.767  19.639  0.00  0.00    +0.000 A 
ATOM     12  C   UNL     1       0.868  10.162  20.986  0.00  0.00    +0.000 A 
ATOM     13  C   UNL     1       1.361   9.306  21.973  0.00  0.00    +0.000 A 
ATOM     14  C   UNL     1       1.839   8.054  21.606  0.00  0.00    +0.000 A 
ATOM     15  C   UNL     1       1.812   7.627  20.269  0.00  0.00    +0.000 A 
ENDROOT
BRANCH   5  16
ATOM     16  N   UNL     1       7.283   5.890  17.270  0.00  0.00    +0.000 N 
ATOM     17  O   UNL     1       7.890   4.810  17.297  0.00  0.00    +0.000 OA
ATOM     18  O   UNL     1       7.728   6.933  16.772  0.00  0.00    +0.000 OA
ENDBRANCH   5  16
BRANCH  12  19
ATOM     19  N   UNL     1       0.371  11.488  21.361  0.00  0.00    +0.000 N 
ATOM     20  O   UNL     1      -0.835  11.599  21.623  0.00  0.00    +0.000 OA
ATOM     21  O   UNL     1       1.184  12.423  21.392  0.00  0.00    +0.000 OA
ENDBRANCH  12  19
BRANCH   1  22
ATOM     22  C   UNL     1       1.282   5.261  19.839  0.00  0.00    +0.000 C 
BRANCH  22  23
ATOM     23  C   UNL     1       1.376   4.378  18.573  0.00  0.00    +0.000 C 
BRANCH  23  24
ATOM     24  C   UNL     1       1.535   2.858  18.783  0.00  0.00    +0.000 C 
BRANCH  24  26
ATOM     25  C   UNL     1       3.072   3.223  16.948  0.00  0.00    +0.000 C 
ATOM     26  N   UNL     1       2.484   2.232  17.850  0.00  0.00    +0.000 NA
ATOM     27  C   UNL     1       3.555   1.539  18.575  0.00  0.00    +0.000 C 
ENDBRANCH  24  26
ENDBRANCH  23  24
ENDBRANCH  22  23
ENDBRANCH   1  22
TORSDOF 6
ENDMDL
MODEL 2
REMARK VINA RESULT:      -7.0      0.818      1.241
REMARK  Name = 
REMARK  8 active torsions:
REMARK  status: ('A' for Active; 'I' for Inactive)
REMARK    1  A    between atoms: C_1  and  N_2
REMARK    2  A    between atoms: N_2  and  C_3
REMARK    3  A    between atoms: N_2  and  C_4
REMARK    4  A    between atoms: C_4  and  C_5
REMARK    5  A    between atoms: C_5  and  C_6
REMARK    6  A    between atoms: C_6  and  N_7
REMARK    7  A    between atoms: C_11  and  N_12
REMARK    8  A    between atoms: C_21  and  N_22
REMARK                            x       y       z     vdW  Elec       q    Type
REMARK                         _______ _______ _______ _____ _____    ______ ____
ROOT
ATOM      1  N   UNL     1       2.238   6.412  19.807  0.00  0.00    +0.000 N 
ATOM      2  C   UNL     1       3.382   6.257  18.972  0.00  0.00    +0.000 A 
ATOM      3  C   UNL     1       4.297   5.248  19.348  0.00  0.00    +0.000 A 
ATOM      4  C   UNL     1       5.560   5.141  18.761  0.00  0.00    +0.000 A 
ATOM      5  C   UNL     1       5.924   6.043  17.763  0.00  0.00    +0.000 A 
ATOM      6  C   UNL     1       5.019   7.018  17.331  0.00  0.00    +0.000 A 
ATOM      7  C   UNL     1       3.740   7.138  17.922  0.00  0.00    +0.000 A 
ATOM      8  C   UNL     1       2.887   8.264  17.364  0.00  0.00    +0.000 C 
ATOM      9  C   UNL     1       1.443   8.382  17.826  0.00  0.00    +0.000 C 
ATOM     10  C   UNL     1       1.392   8.671  19.301  0.00  0.00    +0.000 A 
ATOM     11  C   UNL     1       0.963   9.920  19.777  0.00  0.00    +0.000 A 
ATOM     12  C   UNL     1       0.954  10.176  21.158  0.00  0.00    +0.000 A 
ATOM     13  C   UNL     1       1.378   9.203  22.065  0.00  0.00    +0.000 A 
ATOM     14  C   UNL     1       1.809   7.972  21.584  0.00  0.00    +0.000 A 
ATOM     15  C   UNL     1       1.800   7.684  20.210  0.00  0.00    +0.000 A 
ENDROOT
BRANCH   5  16
ATOM     16  N   UNL     1       7.271   5.994  17.184  0.00  0.00    +0.000 N 
ATOM     17  O   UNL     1       7.770   7.061  16.798  0.00  0.00    +0.000 OA
ATOM     18  O   UNL     1       7.829   4.890  17.107  0.00  0.00    +0.000 OA
ENDBRANCH   5  16
BRANCH  12  19
ATOM     19  N   UNL     1       0.507  11.480  21.653  0.00  0.00    +0.000 N 
ATOM     20  O   UNL     1       1.034  12.492  21.170  0.00  0.00    +0.000 OA
ATOM     21  O   UNL     1      -0.370  11.498  22.530  0.00  0.00    +0.000 OA
ENDBRANCH  12  19
BRANCH   1  22
ATOM     22  C   UNL     1       1.175   5.401  19.529  0.00  0.00    +0.000 C 
BRANCH  22  23
ATOM     23  C   UNL     1       1.058   4.222  20.522  0.00  0.00    +0.000 C 
BRANCH  23  24
ATOM     24  C   UNL     1       0.870   2.812  19.925  0.00  0.00    +0.000 C 
BRANCH  24  26
ATOM     25  C   UNL     1       2.781   2.006  18.675  0.00  0.00    +0.000 C 
ATOM     26  N   UNL     1       2.089   1.990  19.965  0.00  0.00    +0.000 NA
ATOM     27  C   UNL     1       3.004   2.457  21.012  0.00  0.00    +0.000 C 
ENDBRANCH  24  26
ENDBRANCH  23  24
ENDBRANCH  22  23
ENDBRANCH   1  22
TORSDOF 6
ENDMDL
MODEL 3
REMARK VINA RESULT:      -6.5      1.411      1.731
REMARK  Name = 
REMARK  8 active torsions:
REMARK  status: ('A' for Active; 'I' for Inactive)
REMARK    1  A    between atoms: C_1  and  N_2
REMARK    2  A    between atoms: N_2  and  C_3
REMARK    3  A    between atoms: N_2  and  C_4
REMARK    4  A    between atoms: C_4  and  C_5
REMARK    5  A    between atoms: C_5  and  C_6
REMARK    6  A    between atoms: C_6  and  N_7
REMARK    7  A    between atoms: C_11  and  N_12
REMARK    8  A    between atoms: C_21  and  N_22
REMARK                            x       y       z     vdW  Elec       q    Type
REMARK                         _______ _______ _______ _____ _____    ______ ____
ROOT
ATOM      1  N   UNL     1       2.312   5.710  18.919  0.00  0.00    +0.000 N 
ATOM      2  C   UNL     1       3.665   5.475  18.540  0.00  0.00    +0.000 A 
ATOM      3  C   UNL     1       4.235   4.260  18.983  0.00  0.00    +0.000 A 
ATOM      4  C   UNL     1       5.605   4.008  18.881  0.00  0.00    +0.000 A 
ATOM      5  C   UNL     1       6.434   4.973  18.311  0.00  0.00    +0.000 A 
ATOM      6  C   UNL     1       5.891   6.162  17.814  0.00  0.00    +0.000 A 
ATOM      7  C   UNL     1       4.505   6.430  17.917  0.00  0.00    +0.000 A 
ATOM      8  C   UNL     1       4.077   7.775  17.358  0.00  0.00    +0.000 C 
ATOM      9  C   UNL     1       2.592   8.094  17.283  0.00  0.00    +0.000 C 
ATOM     10  C   UNL     1       2.001   8.142  18.666  0.00  0.00    +0.000 A 
ATOM     11  C   UNL     1       1.569   9.355  19.224  0.00  0.00    +0.000 A 
ATOM     12  C   UNL     1       1.050   9.378  20.528  0.00  0.00    +0.000 A 
ATOM     13  C   UNL     1       0.969   8.207  21.283  0.00  0.00    +0.000 A 
ATOM     14  C   UNL     1       1.406   7.011  20.725  0.00  0.00    +0.000 A 
ATOM     15  C   UNL     1       1.903   6.959  19.413  0.00  0.00    +0.000 A 
ENDROOT
BRANCH   5  16
ATOM     16  N   UNL     1       7.885   4.759  18.261  0.00  0.00    +0.000 N 
ATOM     17  O   UNL     1       8.555   5.134  19.234  0.00  0.00    +0.000 OA
ATOM     18  O   UNL     1       8.356   4.225  17.248  0.00  0.00    +0.000 OA
ENDBRANCH   5  16
BRANCH  12  19
ATOM     19  N   UNL     1       0.600  10.645  21.110  0.00  0.00    +0.000 N 
ATOM     20  O   UNL     1       0.366  11.585  20.336  0.00  0.00    +0.000 OA
ATOM     21  O   UNL     1       0.482  10.707  22.343  0.00  0.00    +0.000 OA
ENDBRANCH  12  19
BRANCH   1  22
ATOM     22  C   UNL     1       1.333   4.983  18.058  0.00  0.00    +0.000 C 
BRANCH  22  23
ATOM     23  C   UNL     1       0.897   3.577  18.531  0.00  0.00    +0.000 C 
BRANCH  23  24
ATOM     24  C   UNL     1       0.685   3.376  20.045  0.00  0.00    +0.000 C 
BRANCH  24  26
ATOM     25  C   UNL     1       2.273   1.610  19.573  0.00  0.00    +0.000 C 
ATOM     26  N   UNL     1       1.487   2.280  20.610  0.00  0.00    +0.000 NA
ATOM     27  C   UNL     1       2.387   2.772  21.659  0.00  0.00    +0.000 C 
ENDBRANCH  24  26
ENDBRANCH  23  24
ENDBRANCH  22  23
ENDBRANCH   1  22
TORSDOF 6
ENDMDL
MODEL 4
REMARK VINA RESULT:      -6.4      3.011      7.290
REMARK  Name = 
REMARK  8 active torsions:
REMARK  status: ('A' for Active; 'I' for Inactive)
REMARK    1  A    between atoms: C_1  and  N_2
REMARK    2  A    between atoms: N_2  and  C_3
REMARK    3  A    between atoms: N_2  and  C_4
REMARK    4  A    between atoms: C_4  and  C_5
REMARK    5  A    between atoms: C_5  and  C_6
REMARK    6  A    between atoms: C_6  and  N_7
REMARK    7  A    between atoms: C_11  and  N_12
REMARK    8  A    between atoms: C_21  and  N_22
REMARK                            x       y       z     vdW  Elec       q    Type
REMARK                         _______ _______ _______ _____ _____    ______ ____
ROOT
ATOM      1  N   UNL     1       4.427   4.487  17.198  0.00  0.00    +0.000 N 
ATOM      2  C   UNL     1       3.896   5.728  17.656  0.00  0.00    +0.000 A 
ATOM      3  C   UNL     1       2.571   5.698  18.143  0.00  0.00    +0.000 A 
ATOM      4  C   UNL     1       1.854   6.868  18.405  0.00  0.00    +0.000 A 
ATOM      5  C   UNL     1       2.468   8.102  18.197  0.00  0.00    +0.000 A 
ATOM      6  C   UNL     1       3.797   8.163  17.768  0.00  0.00    +0.000 A 
ATOM      7  C   UNL     1       4.530   6.984  17.495  0.00  0.00    +0.000 A 
ATOM      8  C   UNL     1       5.949   7.219  17.009  0.00  0.00    +0.000 C 
ATOM      9  C   UNL     1       6.868   6.019  16.833  0.00  0.00    +0.000 C 
ATOM     10  C   UNL     1       6.332   5.109  15.763  0.00  0.00    +0.000 A 
ATOM     11  C   UNL     1       6.993   4.973  14.532  0.00  0.00    +0.000 A 
ATOM     12  C   UNL     1       6.456   4.141  13.538  0.00  0.00    +0.000 A 
ATOM     13  C   UNL     1       5.261   3.452  13.755  0.00  0.00    +0.000 A 
ATOM     14  C   UNL     1       4.608   3.598  14.973  0.00  0.00    +0.000 A 
ATOM     15  C   UNL     1       5.141   4.404  15.993  0.00  0.00    +0.000 A 
ENDROOT
BRANCH   5  16
ATOM     16  N   UNL     1       1.710   9.343  18.396  0.00  0.00    +0.000 N 
ATOM     17  O   UNL     1       0.929   9.391  19.358  0.00  0.00    +0.000 OA
ATOM     18  O   UNL     1       1.888  10.265  17.589  0.00  0.00    +0.000 OA
ENDBRANCH   5  16
BRANCH  12  19
ATOM     19  N   UNL     1       7.147   4.001  12.253  0.00  0.00    +0.000 N 
ATOM     20  O   UNL     1       7.066   2.911  11.670  0.00  0.00    +0.000 OA
ATOM     21  O   UNL     1       7.776   4.980  11.825  0.00  0.00    +0.000 OA
ENDBRANCH  12  19
BRANCH   1  22
ATOM     22  C   UNL     1       4.899   3.612  18.313  0.00  0.00    +0.000 C 
BRANCH  22  23
ATOM     23  C   UNL     1       3.949   2.477  18.758  0.00  0.00    +0.000 C 
BRANCH  23  24
ATOM     24  C   UNL     1       3.307   2.602  20.155  0.00  0.00    +0.000 C 
BRANCH  24  26
ATOM     25  C   UNL     1       1.167   3.540  20.790  0.00  0.00    +0.000 C 
ATOM     26  N   UNL     1       1.848   2.414  20.150  0.00  0.00    +0.000 NA
ATOM     27  C   UNL     1       1.343   2.255  18.782  0.00  0.00    +0.000 C 
ENDBRANCH  24  26
ENDBRANCH  23  24
ENDBRANCH  22  23
ENDBRANCH   1  22
TORSDOF 6
ENDMDL
MODEL 5
REMARK VINA RESULT:      -6.3      3.338      7.865
REMARK  Name = 
REMARK  8 active torsions:
REMARK  status: ('A' for Active; 'I' for Inactive)
REMARK    1  A    between atoms: C_1  and  N_2
REMARK    2  A    between atoms: N_2  and  C_3
REMARK    3  A    between atoms: N_2  and  C_4
REMARK    4  A    between atoms: C_4  and  C_5
REMARK    5  A    between atoms: C_5  and  C_6
REMARK    6  A    between atoms: C_6  and  N_7
REMARK    7  A    between atoms: C_11  and  N_12
REMARK    8  A    between atoms: C_21  and  N_22
REMARK                            x       y       z     vdW  Elec       q    Type
REMARK                         _______ _______ _______ _____ _____    ______ ____
ROOT
ATOM      1  N   UNL     1       0.787  10.159  18.386  0.00  0.00    +0.000 N 
ATOM      2  C   UNL     1       0.895  11.346  19.166  0.00  0.00    +0.000 A 
ATOM      3  C   UNL     1       1.091  12.548  18.450  0.00  0.00    +0.000 A 
ATOM      4  C   UNL     1       1.440  13.740  19.090  0.00  0.00    +0.000 A 
ATOM      5  C   UNL     1       1.581  13.750  20.476  0.00  0.00    +0.000 A 
ATOM      6  C   UNL     1       1.340  12.589  21.217  0.00  0.00    +0.000 A 
ATOM      7  C   UNL     1       0.991  11.376  20.579  0.00  0.00    +0.000 A 
ATOM      8  C   UNL     1       0.792  10.201  21.518  0.00  0.00    +0.000 C 
ATOM      9  C   UNL     1       0.269   8.891  20.947  0.00  0.00    +0.000 C 
ATOM     10  C   UNL     1       1.255   8.324  19.963  0.00  0.00    +0.000 A 
ATOM     11  C   UNL     1       1.975   7.156  20.255  0.00  0.00    +0.000 A 
ATOM     12  C   UNL     1       2.913   6.663  19.334  0.00  0.00    +0.000 A 
ATOM     13  C   UNL     1       3.146   7.331  18.130  0.00  0.00    +0.000 A 
ATOM     14  C   UNL     1       2.435   8.492  17.853  0.00  0.00    +0.000 A 
ATOM     15  C   UNL     1       1.472   8.988  18.747  0.00  0.00    +0.000 A 
ENDROOT
BRANCH   5  16
ATOM     16  N   UNL     1       2.018  14.973  21.161  0.00  0.00    +0.000 N 
ATOM     17  O   UNL     1       2.133  16.003  20.481  0.00  0.00    +0.000 OA
ATOM     18  O   UNL     1       2.252  14.904  22.376  0.00  0.00    +0.000 OA
ENDBRANCH   5  16
BRANCH  12  19
ATOM     19  N   UNL     1       3.664   5.444  19.641  0.00  0.00    +0.000 N 
ATOM     20  O   UNL     1       3.060   4.520  20.203  0.00  0.00    +0.000 OA
ATOM     21  O   UNL     1       4.862   5.406  19.323  0.00  0.00    +0.000 OA
ENDBRANCH  12  19
BRANCH   1  22
ATOM     22  C   UNL     1      -0.570   9.978  17.789  0.00  0.00    +0.000 C 
BRANCH  22  23
ATOM     23  C   UNL     1      -1.748  10.670  18.512  0.00  0.00    +0.000 C 
BRANCH  23  24
ATOM     24  C   UNL     1      -2.614  11.641  17.683  0.00  0.00    +0.000 C 
BRANCH  24  26
ATOM     25  C   UNL     1      -4.923  11.664  16.954  0.00  0.00    +0.000 C 
ATOM     26  N   UNL     1      -3.639  10.966  16.872  0.00  0.00    +0.000 NA
ATOM     27  C   UNL     1      -3.224  10.876  15.468  0.00  0.00    +0.000 C 
ENDBRANCH  24  26
ENDBRANCH  23  24
ENDBRANCH  22  23
ENDBRANCH   1  22
TORSDOF 6
ENDMDL
MODEL 6
REMARK VINA RESULT:      -6.2      2.968      7.271
REMARK  Name = 
REMARK  8 active torsions:
REMARK  status: ('A' for Active; 'I' for Inactive)
REMARK    1  A    between atoms: C_1  and  N_2
REMARK    2  A    between atoms: N_2  and  C_3
REMARK    3  A    between atoms: N_2  and  C_4
REMARK    4  A    between atoms: C_4  and  C_5
REMARK    5  A    between atoms: C_5  and  C_6
REMARK    6  A    between atoms: C_6  and  N_7
REMARK    7  A    between atoms: C_11  and  N_12
REMARK    8  A    between atoms: C_21  and  N_22
REMARK                            x       y       z     vdW  Elec       q    Type
REMARK                         _______ _______ _______ _____ _____    ______ ____
ROOT
ATOM      1  N   UNL     1       4.339   4.327  16.975  0.00  0.00    +0.000 N 
ATOM      2  C   UNL     1       3.723   5.449  17.603  0.00  0.00    +0.000 A 
ATOM      3  C   UNL     1       2.345   5.327  17.885  0.00  0.00    +0.000 A 
ATOM      4  C   UNL     1       1.574   6.422  18.284  0.00  0.00    +0.000 A 
ATOM      5  C   UNL     1       2.184   7.667  18.424  0.00  0.00    +0.000 A 
ATOM      6  C   UNL     1       3.558   7.807  18.205  0.00  0.00    +0.000 A 
ATOM      7  C   UNL     1       4.346   6.706  17.797  0.00  0.00    +0.000 A 
ATOM      8  C   UNL     1       5.813   7.027  17.572  0.00  0.00    +0.000 C 
ATOM      9  C   UNL     1       6.773   5.883  17.278  0.00  0.00    +0.000 C 
ATOM     10  C   UNL     1       6.408   5.221  15.978  0.00  0.00    +0.000 A 
ATOM     11  C   UNL     1       7.234   5.341  14.850  0.00  0.00    +0.000 A 
ATOM     12  C   UNL     1       6.856   4.739  13.639  0.00  0.00    +0.000 A 
ATOM     13  C   UNL     1       5.658   4.029  13.541  0.00  0.00    +0.000 A 
ATOM     14  C   UNL     1       4.842   3.922  14.661  0.00  0.00    +0.000 A 
ATOM     15  C   UNL     1       5.212   4.492  15.889  0.00  0.00    +0.000 A 
ENDROOT
BRANCH   5  16
ATOM     16  N   UNL     1       1.379   8.845  18.771  0.00  0.00    +0.000 N 
ATOM     17  O   UNL     1       1.022   9.589  17.846  0.00  0.00    +0.000 OA
ATOM     18  O   UNL     1       1.110   9.031  19.965  0.00  0.00    +0.000 OA
ENDBRANCH   5  16
BRANCH  12  19
ATOM     19  N   UNL     1       7.719   4.866  12.462  0.00  0.00    +0.000 N 
ATOM     20  O   UNL     1       8.567   5.770  12.464  0.00  0.00    +0.000 OA
ATOM     21  O   UNL     1       7.551   4.064  11.532  0.00  0.00    +0.000 OA
ENDBRANCH  12  19
BRANCH   1  22
ATOM     22  C   UNL     1       4.672   3.235  17.937  0.00  0.00    +0.000 C 
BRANCH  22  23
ATOM     23  C   UNL     1       4.520   3.559  19.441  0.00  0.00    +0.000 C 
BRANCH  23  24
ATOM     24  C   UNL     1       3.688   2.580  20.294  0.00  0.00    +0.000 C 
BRANCH  24  26
ATOM     25  C   UNL     1       1.535   2.008  19.345  0.00  0.00    +0.000 C 
ATOM     26  N   UNL     1       2.247   2.873  20.287  0.00  0.00    +0.000 NA
ATOM     27  C   UNL     1       1.670   2.711  21.626  0.00  0.00    +0.000 C 
ENDBRANCH  24  26
ENDBRANCH  23  24
ENDBRANCH  22  23
ENDBRANCH   1  22
TORSDOF 6
ENDMDL
MODEL 7
REMARK VINA RESULT:      -6.2      1.392      1.692
REMARK  Name = 
REMARK  8 active torsions:
REMARK  status: ('A' for Active; 'I' for Inactive)
REMARK    1  A    between atoms: C_1  and  N_2
REMARK    2  A    between atoms: N_2  and  C_3
REMARK    3  A    between atoms: N_2  and  C_4
REMARK    4  A    between atoms: C_4  and  C_5
REMARK    5  A    between atoms: C_5  and  C_6
REMARK    6  A    between atoms: C_6  and  N_7
REMARK    7  A    between atoms: C_11  and  N_12
REMARK    8  A    between atoms: C_21  and  N_22
REMARK                            x       y       z     vdW  Elec       q    Type
REMARK                         _______ _______ _______ _____ _____    ______ ____
ROOT
ATOM      1  N   UNL     1       2.238   5.656  18.731  0.00  0.00    +0.000 N 
ATOM      2  C   UNL     1       3.461   5.601  18.002  0.00  0.00    +0.000 A 
ATOM      3  C   UNL     1       4.190   4.395  18.095  0.00  0.00    +0.000 A 
ATOM      4  C   UNL     1       5.501   4.286  17.624  0.00  0.00    +0.000 A 
ATOM      5  C   UNL     1       6.103   5.393  17.029  0.00  0.00    +0.000 A 
ATOM      6  C   UNL     1       5.388   6.585  16.873  0.00  0.00    +0.000 A 
ATOM      7  C   UNL     1       4.062   6.707  17.351  0.00  0.00    +0.000 A 
ATOM      8  C   UNL     1       3.433   8.071  17.132  0.00  0.00    +0.000 C 
ATOM      9  C   UNL     1       1.962   8.260  17.472  0.00  0.00    +0.000 C 
ATOM     10  C   UNL     1       1.742   8.061  18.947  0.00  0.00    +0.000 A 
ATOM     11  C   UNL     1       1.401   9.139  19.778  0.00  0.00    +0.000 A 
ATOM     12  C   UNL     1       1.230   8.934  21.156  0.00  0.00    +0.000 A 
ATOM     13  C   UNL     1       1.408   7.666  21.713  0.00  0.00    +0.000 A 
ATOM     14  C   UNL     1       1.753   6.605  20.885  0.00  0.00    +0.000 A 
ATOM     15  C   UNL     1       1.902   6.781  19.500  0.00  0.00    +0.000 A 
ENDROOT
BRANCH   5  16
ATOM     16  N   UNL     1       7.503   5.323  16.594  0.00  0.00    +0.000 N 
ATOM     17  O   UNL     1       7.872   6.117  15.716  0.00  0.00    +0.000 OA
ATOM     18  O   UNL     1       8.231   4.472  17.122  0.00  0.00    +0.000 OA
ENDBRANCH   5  16
BRANCH  12  19
ATOM     19  N   UNL     1       0.876  10.061  22.022  0.00  0.00    +0.000 N 
ATOM     20  O   UNL     1       0.555   9.810  23.192  0.00  0.00    +0.000 OA
ATOM     21  O   UNL     1       0.914  11.200  21.534  0.00  0.00    +0.000 OA
ENDBRANCH  12  19
BRANCH   1  22
ATOM     22  C   UNL     1       1.113   4.969  18.030  0.00  0.00    +0.000 C 
BRANCH  22  23
ATOM     23  C   UNL     1       0.852   3.493  18.409  0.00  0.00    +0.000 C 
BRANCH  23  24
ATOM     24  C   UNL     1       0.723   3.162  19.911  0.00  0.00    +0.000 C 
BRANCH  24  26
ATOM     25  C   UNL     1       2.565   1.716  19.296  0.00  0.00    +0.000 C 
ATOM     26  N   UNL     1       1.751   2.231  20.398  0.00  0.00    +0.000 NA
ATOM     27  C   UNL     1       2.623   2.880  21.384  0.00  0.00    +0.000 C 
ENDBRANCH  24  26
ENDBRANCH  23  24
ENDBRANCH  22  23
ENDBRANCH   1  22
TORSDOF 6
ENDMDL
MODEL 8
REMARK VINA RESULT:      -6.2      3.796      7.396
REMARK  Name = 
REMARK  8 active torsions:
REMARK  status: ('A' for Active; 'I' for Inactive)
REMARK    1  A    between atoms: C_1  and  N_2
REMARK    2  A    between atoms: N_2  and  C_3
REMARK    3  A    between atoms: N_2  and  C_4
REMARK    4  A    between atoms: C_4  and  C_5
REMARK    5  A    between atoms: C_5  and  C_6
REMARK    6  A    between atoms: C_6  and  N_7
REMARK    7  A    between atoms: C_11  and  N_12
REMARK    8  A    between atoms: C_21  and  N_22
REMARK                            x       y       z     vdW  Elec       q    Type
REMARK                         _______ _______ _______ _____ _____    ______ ____
ROOT
ATOM      1  N   UNL     1       0.658  10.684  18.692  0.00  0.00    +0.000 N 
ATOM      2  C   UNL     1      -0.763  10.741  18.598  0.00  0.00    +0.000 A 
ATOM      3  C   UNL     1      -1.340  10.105  17.476  0.00  0.00    +0.000 A 
ATOM      4  C   UNL     1      -2.685  10.278  17.140  0.00  0.00    +0.000 A 
ATOM      5  C   UNL     1      -3.487  11.087  17.943  0.00  0.00    +0.000 A 
ATOM      6  C   UNL     1      -2.958  11.685  19.091  0.00  0.00    +0.000 A 
ATOM      7  C   UNL     1      -1.596  11.520  19.437  0.00  0.00    +0.000 A 
ATOM      8  C   UNL     1      -1.169  12.257  20.694  0.00  0.00    +0.000 C 
ATOM      9  C   UNL     1       0.234  12.023  21.234  0.00  0.00    +0.000 C 
ATOM     10  C   UNL     1       1.259  12.502  20.243  0.00  0.00    +0.000 A 
ATOM     11  C   UNL     1       2.048  13.632  20.509  0.00  0.00    +0.000 A 
ATOM     12  C   UNL     1       2.976  14.078  19.555  0.00  0.00    +0.000 A 
ATOM     13  C   UNL     1       3.115  13.415  18.334  0.00  0.00    +0.000 A 
ATOM     14  C   UNL     1       2.324  12.302  18.075  0.00  0.00    +0.000 A 
ATOM     15  C   UNL     1       1.409  11.821  19.026  0.00  0.00    +0.000 A 
ENDROOT
BRANCH   5  16
ATOM     16  N   UNL     1      -4.883  11.341  17.568  0.00  0.00    +0.000 N 
ATOM     17  O   UNL     1      -5.764  10.707  18.168  0.00  0.00    +0.000 OA
ATOM     18  O   UNL     1      -5.100  12.167  16.671  0.00  0.00    +0.000 OA
ENDBRANCH   5  16
BRANCH  12  19
ATOM     19  N   UNL     1       3.798  15.258  19.834  0.00  0.00    +0.000 N 
ATOM     20  O   UNL     1       5.002  15.202  19.547  0.00  0.00    +0.000 OA
ATOM     21  O   UNL     1       3.243  16.243  20.344  0.00  0.00    +0.000 OA
ENDBRANCH  12  19
BRANCH   1  22
ATOM     22  C   UNL     1       1.152   9.380  19.227  0.00  0.00    +0.000 C 
BRANCH  22  23
ATOM     23  C   UNL     1       2.001   8.511  18.271  0.00  0.00    +0.000 C 
BRANCH  23  24
ATOM     24  C   UNL     1       2.606   7.214  18.846  0.00  0.00    +0.000 C 
BRANCH  24  26
ATOM     25  C   UNL     1       4.253   5.860  17.697  0.00  0.00    +0.000 C 
ATOM     26  N   UNL     1       2.829   6.171  17.834  0.00  0.00    +0.000 NA
ATOM     27  C   UNL     1       2.096   4.945  18.171  0.00  0.00    +0.000 C 
ENDBRANCH  24  26
ENDBRANCH  23  24
ENDBRANCH  22  23
ENDBRANCH   1  22
TORSDOF 6
ENDMDL
MODEL 9
REMARK VINA RESULT:      -6.1      3.876      7.361
REMARK  Name = 
REMARK  8 active torsions:
REMARK  status: ('A' for Active; 'I' for Inactive)
REMARK    1  A    between atoms: C_1  and  N_2
REMARK    2  A    between atoms: N_2  and  C_3
REMARK    3  A    between atoms: N_2  and  C_4
REMARK    4  A    between atoms: C_4  and  C_5
REMARK    5  A    between atoms: C_5  and  C_6
REMARK    6  A    between atoms: C_6  and  N_7
REMARK    7  A    between atoms: C_11  and  N_12
REMARK    8  A    between atoms: C_21  and  N_22
REMARK                            x       y       z     vdW  Elec       q    Type
REMARK                         _______ _______ _______ _____ _____    ______ ____
ROOT
ATOM      1  N   UNL     1       0.720  10.603  18.630  0.00  0.00    +0.000 N 
ATOM      2  C   UNL     1      -0.703  10.646  18.554  0.00  0.00    +0.000 A 
ATOM      3  C   UNL     1      -1.285  10.044  17.417  0.00  0.00    +0.000 A 
ATOM      4  C   UNL     1      -2.636  10.213  17.103  0.00  0.00    +0.000 A 
ATOM      5  C   UNL     1      -3.438  10.982  17.945  0.00  0.00    +0.000 A 
ATOM      6  C   UNL     1      -2.902  11.544  19.108  0.00  0.00    +0.000 A 
ATOM      7  C   UNL     1      -1.535  11.383  19.432  0.00  0.00    +0.000 A 
ATOM      8  C   UNL     1      -1.101  12.078  20.710  0.00  0.00    +0.000 C 
ATOM      9  C   UNL     1       0.311  11.842  21.225  0.00  0.00    +0.000 C 
ATOM     10  C   UNL     1       1.317  12.370  20.240  0.00  0.00    +0.000 A 
ATOM     11  C   UNL     1       2.096  13.499  20.539  0.00  0.00    +0.000 A 
ATOM     12  C   UNL     1       3.007  13.992  19.591  0.00  0.00    +0.000 A 
ATOM     13  C   UNL     1       3.139  13.376  18.345  0.00  0.00    +0.000 A 
ATOM     14  C   UNL     1       2.358  12.263  18.054  0.00  0.00    +0.000 A 
ATOM     15  C   UNL     1       1.461  11.737  18.997  0.00  0.00    +0.000 A 
ENDROOT
BRANCH   5  16
ATOM     16  N   UNL     1      -4.842  11.232  17.596  0.00  0.00    +0.000 N 
ATOM     17  O   UNL     1      -5.712  10.695  18.297  0.00  0.00    +0.000 OA
ATOM     18  O   UNL     1      -5.075  11.957  16.619  0.00  0.00    +0.000 OA
ENDBRANCH   5  16
BRANCH  12  19
ATOM     19  N   UNL     1       3.818  15.171  19.905  0.00  0.00    +0.000 N 
ATOM     20  O   UNL     1       3.378  15.966  20.747  0.00  0.00    +0.000 OA
ATOM     21  O   UNL     1       4.896  15.307  19.308  0.00  0.00    +0.000 OA
ENDBRANCH  12  19
BRANCH   1  22
ATOM     22  C   UNL     1       1.236   9.287  19.110  0.00  0.00    +0.000 C 
BRANCH  22  23
ATOM     23  C   UNL     1       2.243   8.556  18.193  0.00  0.00    +0.000 C 
BRANCH  23  24
ATOM     24  C   UNL     1       2.287   7.016  18.278  0.00  0.00    +0.000 C 
BRANCH  24  26
ATOM     25  C   UNL     1       1.910   5.836  20.359  0.00  0.00    +0.000 C 
ATOM     26  N   UNL     1       2.898   6.514  19.519  0.00  0.00    +0.000 NA
ATOM     27  C   UNL     1       4.001   5.592  19.227  0.00  0.00    +0.000 C 
ENDBRANCH  24  26
ENDBRANCH  23  24
ENDBRANCH  22  23
ENDBRANCH   1  22
TORSDOF 6
ENDMDL
