MODEL 1
REMARK VINA RESULT:      -7.6      0.000      0.000
REMARK  Name = 
REMARK  5 active torsions:
REMARK  status: ('A' for Active; 'I' for Inactive)
REMARK    1  A    between atoms: C_2  and  C_3
REMARK    2  A    between atoms: C_3  and  C_4
REMARK    3  A    between atoms: C_4  and  S_5
REMARK    4  A    between atoms: S_5  and  C_6
REMARK    5  A    between atoms: N_15  and  C_16
REMARK                            x       y       z     vdW  Elec       q    Type
REMARK                         _______ _______ _______ _____ _____    ______ ____
ROOT
ATOM      1  O   UNL     1       7.838   6.931  16.219  0.00  0.00    +0.000 OA
ATOM      2  C   UNL     1       7.515   6.790  17.398  0.00  0.00    +0.000 C 
ATOM      3  N   UNL     1       6.591   5.834  17.800  0.00  0.00    +0.000 N 
ATOM      4  C   UNL     1       6.073   5.619  19.165  0.00  0.00    +0.000 C 
ATOM      5  C   UNL     1       4.549   5.831  19.205  0.00  0.00    +0.000 C 
ATOM      6  N   UNL     1       3.870   5.005  18.186  0.00  0.00    +0.000 N 
ATOM      7  C   UNL     1       4.400   5.137  16.814  0.00  0.00    +0.000 C 
ATOM      8  C   UNL     1       5.940   4.987  16.796  0.00  0.00    +0.000 C 
ENDROOT
BRANCH   6   9
ATOM      9  C   UNL     1       2.995   3.987  18.526  0.00  0.00    +0.000 A 
ATOM     10  C   UNL     1       1.620   4.120  18.259  0.00  0.00    +0.000 A 
ATOM     11  C   UNL     1       0.693   3.131  18.617  0.00  0.00    +0.000 A 
ATOM     12  C   UNL     1       1.119   1.971  19.255  0.00  0.00    +0.000 A 
ATOM     13  C   UNL     1       2.471   1.805  19.532  0.00  0.00    +0.000 A 
ATOM     14  C   UNL     1       3.386   2.798  19.171  0.00  0.00    +0.000 A 
ATOM     15  F   UNL     1       4.683   2.555  19.426  0.00  0.00    +0.000 F 
ENDBRANCH   6   9
BRANCH   2  16
ATOM     16  C   UNL     1       8.164   7.634  18.488  0.00  0.00    +0.000 C 
BRANCH  16  17
ATOM     17  C   UNL     1       8.314   9.092  18.063  0.00  0.00    +0.000 C 
BRANCH  17  18
ATOM     18  S   UNL     1       9.118  10.023  19.426  0.00  0.00    +0.000 S 
BRANCH  18  19
ATOM     19  C   UNL     1       9.730  11.433  18.524  0.00  0.00    +0.000 A 
ATOM     20  C   UNL     1      11.026  11.407  18.000  0.00  0.00    +0.000 A 
ATOM     21  C   UNL     1      11.538  12.521  17.330  0.00  0.00    +0.000 A 
ATOM     22  C   UNL     1      10.750  13.658  17.163  0.00  0.00    +0.000 A 
ATOM     23  C   UNL     1       9.443  13.674  17.645  0.00  0.00    +0.000 A 
ATOM     24  C   UNL     1       8.931  12.561  18.315  0.00  0.00    +0.000 A 
ENDBRANCH  18  19
ENDBRANCH  17  18
ENDBRANCH  16  17
ENDBRANCH   2  16
TORSDOF 5
ENDMDL
MODEL 2
REMARK VINA RESULT:      -7.1      6.860      9.970
REMARK  Name = 
REMARK  5 active torsions:
REMARK  status: ('A' for Active; 'I' for Inactive)
REMARK    1  A    between atoms: C_2  and  C_3
REMARK    2  A    between atoms: C_3  and  C_4
REMARK    3  A    between atoms: C_4  and  S_5
REMARK    4  A    between atoms: S_5  and  C_6
REMARK    5  A    between atoms: N_15  and  C_16
REMARK                            x       y       z     vdW  Elec       q    Type
REMARK                         _______ _______ _______ _____ _____    ______ ____
ROOT
ATOM      1  O   UNL     1       2.155   9.207  17.323  0.00  0.00    +0.000 OA
ATOM      2  C   UNL     1       1.826   8.760  18.420  0.00  0.00    +0.000 C 
ATOM      3  N   UNL     1       0.950   9.436  19.259  0.00  0.00    +0.000 N 
ATOM      4  C   UNL     1       0.538   9.039  20.619  0.00  0.00    +0.000 C 
ATOM      5  C   UNL     1       0.952  10.110  21.645  0.00  0.00    +0.000 C 
ATOM      6  N   UNL     1       0.454  11.444  21.250  0.00  0.00    +0.000 N 
ATOM      7  C   UNL     1       0.784  11.855  19.871  0.00  0.00    +0.000 C 
ATOM      8  C   UNL     1       0.424  10.744  18.857  0.00  0.00    +0.000 C 
ENDROOT
BRANCH   6   9
ATOM      9  C   UNL     1      -0.476  12.136  22.006  0.00  0.00    +0.000 A 
ATOM     10  C   UNL     1      -1.639  11.488  22.462  0.00  0.00    +0.000 A 
ATOM     11  C   UNL     1      -2.624  12.157  23.200  0.00  0.00    +0.000 A 
ATOM     12  C   UNL     1      -2.473  13.505  23.508  0.00  0.00    +0.000 A 
ATOM     13  C   UNL     1      -1.334  14.177  23.077  0.00  0.00    +0.000 A 
ATOM     14  C   UNL     1      -0.359  13.500  22.340  0.00  0.00    +0.000 A 
ATOM     15  F   UNL     1       0.737  14.195  21.993  0.00  0.00    +0.000 F 
ENDBRANCH   6   9
BRANCH   2  16
ATOM     16  C   UNL     1       2.331   7.400  18.890  0.00  0.00    +0.000 C 
BRANCH  16  17
ATOM     17  C   UNL     1       3.437   6.863  17.986  0.00  0.00    +0.000 C 
BRANCH  17  18
ATOM     18  S   UNL     1       4.312   5.511  18.867  0.00  0.00    +0.000 S 
BRANCH  18  19
ATOM     19  C   UNL     1       2.933   4.453  19.263  0.00  0.00    +0.000 A 
ATOM     20  C   UNL     1       2.289   3.748  18.241  0.00  0.00    +0.000 A 
ATOM     21  C   UNL     1       1.179   2.950  18.527  0.00  0.00    +0.000 A 
ATOM     22  C   UNL     1       0.718   2.838  19.838  0.00  0.00    +0.000 A 
ATOM     23  C   UNL     1       1.382   3.503  20.866  0.00  0.00    +0.000 A 
ATOM     24  C   UNL     1       2.491   4.302  20.581  0.00  0.00    +0.000 A 
ENDBRANCH  18  19
ENDBRANCH  17  18
ENDBRANCH  16  17
ENDBRANCH   2  16
TORSDOF 5
ENDMDL
MODEL 3
REMARK VINA RESULT:      -7.0      1.515      1.987
REMARK  Name = 
REMARK  5 active torsions:
REMARK  status: ('A' for Active; 'I' for Inactive)
REMARK    1  A    between atoms: C_2  and  C_3
REMARK    2  A    between atoms: C_3  and  C_4
REMARK    3  A    between atoms: C_4  and  S_5
REMARK    4  A    between atoms: S_5  and  C_6
REMARK    5  A    between atoms: N_15  and  C_16
REMARK                            x       y       z     vdW  Elec       q    Type
REMARK                         _______ _______ _______ _____ _____    ______ ____
ROOT
ATOM      1  O   UNL     1       8.382   5.655  17.864  0.00  0.00    +0.000 OA
ATOM      2  C   UNL     1       7.370   6.353  17.891  0.00  0.00    +0.000 C 
ATOM      3  N   UNL     1       6.163   5.885  18.394  0.00  0.00    +0.000 N 
ATOM      4  C   UNL     1       4.872   6.599  18.413  0.00  0.00    +0.000 C 
ATOM      5  C   UNL     1       3.817   5.832  17.595  0.00  0.00    +0.000 C 
ATOM      6  N   UNL     1       3.714   4.428  18.044  0.00  0.00    +0.000 N 
ATOM      7  C   UNL     1       4.993   3.693  18.105  0.00  0.00    +0.000 C 
ATOM      8  C   UNL     1       6.064   4.503  18.873  0.00  0.00    +0.000 C 
ENDROOT
BRANCH   6   9
ATOM      9  C   UNL     1       2.563   3.922  18.621  0.00  0.00    +0.000 A 
ATOM     10  C   UNL     1       1.995   4.558  19.741  0.00  0.00    +0.000 A 
ATOM     11  C   UNL     1       0.850   4.061  20.379  0.00  0.00    +0.000 A 
ATOM     12  C   UNL     1       0.235   2.906  19.911  0.00  0.00    +0.000 A 
ATOM     13  C   UNL     1       0.765   2.252  18.804  0.00  0.00    +0.000 A 
ATOM     14  C   UNL     1       1.908   2.756  18.176  0.00  0.00    +0.000 A 
ATOM     15  F   UNL     1       2.344   2.104  17.086  0.00  0.00    +0.000 F 
ENDBRANCH   6   9
BRANCH   2  16
ATOM     16  C   UNL     1       7.412   7.801  17.416  0.00  0.00    +0.000 C 
BRANCH  16  17
ATOM     17  C   UNL     1       8.350   8.650  18.269  0.00  0.00    +0.000 C 
BRANCH  17  18
ATOM     18  S   UNL     1       8.225  10.397  17.718  0.00  0.00    +0.000 S 
BRANCH  18  19
ATOM     19  C   UNL     1       9.658  11.083  18.525  0.00  0.00    +0.000 A 
ATOM     20  C   UNL     1       9.690  11.166  19.921  0.00  0.00    +0.000 A 
ATOM     21  C   UNL     1      10.786  11.742  20.568  0.00  0.00    +0.000 A 
ATOM     22  C   UNL     1      11.863  12.221  19.825  0.00  0.00    +0.000 A 
ATOM     23  C   UNL     1      11.856  12.102  18.437  0.00  0.00    +0.000 A 
ATOM     24  C   UNL     1      10.761  11.527  17.790  0.00  0.00    +0.000 A 
ENDBRANCH  18  19
ENDBRANCH  17  18
ENDBRANCH  16  17
ENDBRANCH   2  16
TORSDOF 5
ENDMDL
MODEL 4
REMARK VINA RESULT:      -6.9      7.263     10.149
REMARK  Name = 
REMARK  5 active torsions:
REMARK  status: ('A' for Active; 'I' for Inactive)
REMARK    1  A    between atoms: C_2  and  C_3
REMARK    2  A    between atoms: C_3  and  C_4
REMARK    3  A    between atoms: C_4  and  S_5
REMARK    4  A    between atoms: S_5  and  C_6
REMARK    5  A    between atoms: N_15  and  C_16
REMARK                            x       y       z     vdW  Elec       q    Type
REMARK                         _______ _______ _______ _____ _____    ______ ____
ROOT
ATOM      1  O   UNL     1       2.747  10.768  17.600  0.00  0.00    +0.000 OA
ATOM      2  C   UNL     1       1.806  10.074  17.979  0.00  0.00    +0.000 C 
ATOM      3  N   UNL     1       0.716  10.611  18.652  0.00  0.00    +0.000 N 
ATOM      4  C   UNL     1      -0.430   9.874  19.216  0.00  0.00    +0.000 C 
ATOM      5  C   UNL     1      -0.510  10.079  20.740  0.00  0.00    +0.000 C 
ATOM      6  N   UNL     1      -0.513  11.516  21.084  0.00  0.00    +0.000 N 
ATOM      7  C   UNL     1       0.580  12.308  20.485  0.00  0.00    +0.000 C 
ATOM      8  C   UNL     1       0.692  12.043  18.965  0.00  0.00    +0.000 C 
ENDROOT
BRANCH   6   9
ATOM      9  C   UNL     1      -1.598  12.126  21.688  0.00  0.00    +0.000 A 
ATOM     10  C   UNL     1      -2.256  13.194  21.047  0.00  0.00    +0.000 A 
ATOM     11  C   UNL     1      -3.336  13.863  21.636  0.00  0.00    +0.000 A 
ATOM     12  C   UNL     1      -3.795  13.482  22.892  0.00  0.00    +0.000 A 
ATOM     13  C   UNL     1      -3.173  12.429  23.553  0.00  0.00    +0.000 A 
ATOM     14  C   UNL     1      -2.095  11.768  22.957  0.00  0.00    +0.000 A 
ATOM     15  F   UNL     1      -1.567  10.732  23.628  0.00  0.00    +0.000 F 
ENDBRANCH   6   9
BRANCH   2  16
ATOM     16  C   UNL     1       1.770   8.581  17.675  0.00  0.00    +0.000 C 
BRANCH  16  17
ATOM     17  C   UNL     1       2.405   7.759  18.794  0.00  0.00    +0.000 C 
BRANCH  17  18
ATOM     18  S   UNL     1       3.180   6.266  18.059  0.00  0.00    +0.000 S 
BRANCH  18  19
ATOM     19  C   UNL     1       2.315   4.991  18.955  0.00  0.00    +0.000 A 
ATOM     20  C   UNL     1       2.369   4.973  20.353  0.00  0.00    +0.000 A 
ATOM     21  C   UNL     1       1.735   3.956  21.070  0.00  0.00    +0.000 A 
ATOM     22  C   UNL     1       1.029   2.961  20.394  0.00  0.00    +0.000 A 
ATOM     23  C   UNL     1       0.936   2.998  19.004  0.00  0.00    +0.000 A 
ATOM     24  C   UNL     1       1.570   4.015  18.288  0.00  0.00    +0.000 A 
ENDBRANCH  18  19
ENDBRANCH  17  18
ENDBRANCH  16  17
ENDBRANCH   2  16
TORSDOF 5
ENDMDL
MODEL 5
REMARK VINA RESULT:      -6.9      7.224     10.246
REMARK  Name = 
REMARK  5 active torsions:
REMARK  status: ('A' for Active; 'I' for Inactive)
REMARK    1  A    between atoms: C_2  and  C_3
REMARK    2  A    between atoms: C_3  and  C_4
REMARK    3  A    between atoms: C_4  and  S_5
REMARK    4  A    between atoms: S_5  and  C_6
REMARK    5  A    between atoms: N_15  and  C_16
REMARK                            x       y       z     vdW  Elec       q    Type
REMARK                         _______ _______ _______ _____ _____    ______ ____
ROOT
ATOM      1  O   UNL     1       2.115   9.711  17.456  0.00  0.00    +0.000 OA
ATOM      2  C   UNL     1       1.669   9.260  18.510  0.00  0.00    +0.000 C 
ATOM      3  N   UNL     1       0.669   9.907  19.224  0.00  0.00    +0.000 N 
ATOM      4  C   UNL     1       0.107   9.506  20.528  0.00  0.00    +0.000 C 
ATOM      5  C   UNL     1       0.347  10.603  21.582  0.00  0.00    +0.000 C 
ATOM      6  N   UNL     1      -0.151  11.911  21.110  0.00  0.00    +0.000 N 
ATOM      7  C   UNL     1       0.332  12.324  19.777  0.00  0.00    +0.000 C 
ATOM      8  C   UNL     1       0.146  11.189  18.742  0.00  0.00    +0.000 C 
ENDROOT
BRANCH   6   9
ATOM      9  C   UNL     1      -1.195  12.571  21.734  0.00  0.00    +0.000 A 
ATOM     10  C   UNL     1      -0.968  13.283  22.927  0.00  0.00    +0.000 A 
ATOM     11  C   UNL     1      -2.002  13.937  23.611  0.00  0.00    +0.000 A 
ATOM     12  C   UNL     1      -3.301  13.898  23.119  0.00  0.00    +0.000 A 
ATOM     13  C   UNL     1      -3.562  13.208  21.941  0.00  0.00    +0.000 A 
ATOM     14  C   UNL     1      -2.524  12.559  21.266  0.00  0.00    +0.000 A 
ATOM     15  F   UNL     1      -2.834  11.947  20.111  0.00  0.00    +0.000 F 
ENDBRANCH   6   9
BRANCH   2  16
ATOM     16  C   UNL     1       2.165   7.927  19.058  0.00  0.00    +0.000 C 
BRANCH  16  17
ATOM     17  C   UNL     1       3.018   7.178  18.039  0.00  0.00    +0.000 C 
BRANCH  17  18
ATOM     18  S   UNL     1       3.978   5.881  18.915  0.00  0.00    +0.000 S 
BRANCH  18  19
ATOM     19  C   UNL     1       2.681   4.707  19.254  0.00  0.00    +0.000 A 
ATOM     20  C   UNL     1       2.254   4.511  20.572  0.00  0.00    +0.000 A 
ATOM     21  C   UNL     1       1.270   3.563  20.861  0.00  0.00    +0.000 A 
ATOM     22  C   UNL     1       0.696   2.817  19.832  0.00  0.00    +0.000 A 
ATOM     23  C   UNL     1       1.086   3.038  18.513  0.00  0.00    +0.000 A 
ATOM     24  C   UNL     1       2.069   3.986  18.224  0.00  0.00    +0.000 A 
ENDBRANCH  18  19
ENDBRANCH  17  18
ENDBRANCH  16  17
ENDBRANCH   2  16
TORSDOF 5
ENDMDL
MODEL 6
REMARK VINA RESULT:      -6.8      1.008      1.267
REMARK  Name = 
REMARK  5 active torsions:
REMARK  status: ('A' for Active; 'I' for Inactive)
REMARK    1  A    between atoms: C_2  and  C_3
REMARK    2  A    between atoms: C_3  and  C_4
REMARK    3  A    between atoms: C_4  and  S_5
REMARK    4  A    between atoms: S_5  and  C_6
REMARK    5  A    between atoms: N_15  and  C_16
REMARK                            x       y       z     vdW  Elec       q    Type
REMARK                         _______ _______ _______ _____ _____    ______ ____
ROOT
ATOM      1  O   UNL     1       7.340   7.702  16.325  0.00  0.00    +0.000 OA
ATOM      2  C   UNL     1       7.272   7.238  17.462  0.00  0.00    +0.000 C 
ATOM      3  N   UNL     1       6.415   6.193  17.782  0.00  0.00    +0.000 N 
ATOM      4  C   UNL     1       6.194   5.603  19.116  0.00  0.00    +0.000 C 
ATOM      5  C   UNL     1       4.725   5.770  19.546  0.00  0.00    +0.000 C 
ATOM      6  N   UNL     1       3.806   5.244  18.515  0.00  0.00    +0.000 N 
ATOM      7  C   UNL     1       4.035   5.756  17.149  0.00  0.00    +0.000 C 
ATOM      8  C   UNL     1       5.526   5.643  16.754  0.00  0.00    +0.000 C 
ENDROOT
BRANCH   6   9
ATOM      9  C   UNL     1       2.981   4.158  18.749  0.00  0.00    +0.000 A 
ATOM     10  C   UNL     1       1.785   4.322  19.473  0.00  0.00    +0.000 A 
ATOM     11  C   UNL     1       0.937   3.246  19.763  0.00  0.00    +0.000 A 
ATOM     12  C   UNL     1       1.261   1.964  19.333  0.00  0.00    +0.000 A 
ATOM     13  C   UNL     1       2.432   1.764  18.612  0.00  0.00    +0.000 A 
ATOM     14  C   UNL     1       3.271   2.845  18.328  0.00  0.00    +0.000 A 
ATOM     15  F   UNL     1       4.365   2.592  17.590  0.00  0.00    +0.000 F 
ENDBRANCH   6   9
BRANCH   2  16
ATOM     16  C   UNL     1       8.177   7.760  18.571  0.00  0.00    +0.000 C 
BRANCH  16  17
ATOM     17  C   UNL     1       8.717   9.152  18.254  0.00  0.00    +0.000 C 
BRANCH  17  18
ATOM     18  S   UNL     1       9.163   9.983  19.829  0.00  0.00    +0.000 S 
BRANCH  18  19
ATOM     19  C   UNL     1      10.332  11.187  19.227  0.00  0.00    +0.000 A 
ATOM     20  C   UNL     1      10.272  11.598  17.891  0.00  0.00    +0.000 A 
ATOM     21  C   UNL     1      11.208  12.506  17.391  0.00  0.00    +0.000 A 
ATOM     22  C   UNL     1      12.196  13.022  18.228  0.00  0.00    +0.000 A 
ATOM     23  C   UNL     1      12.234  12.651  19.570  0.00  0.00    +0.000 A 
ATOM     24  C   UNL     1      11.299  11.742  20.070  0.00  0.00    +0.000 A 
ENDBRANCH  18  19
ENDBRANCH  17  18
ENDBRANCH  16  17
ENDBRANCH   2  16
TORSDOF 5
ENDMDL
MODEL 7
REMARK VINA RESULT:      -6.8      7.361     10.275
REMARK  Name = 
REMARK  5 active torsions:
REMARK  status: ('A' for Active; 'I' for Inactive)
REMARK    1  A    between atoms: C_2  and  C_3
REMARK    2  A    between atoms: C_3  and  C_4
REMARK    3  A    between atoms: C_4  and  S_5
REMARK    4  A    between atoms: S_5  and  C_6
REMARK    5  A    between atoms: N_15  and  C_16
REMARK                            x       y       z     vdW  Elec       q    Type
REMARK                         _______ _______ _______ _____ _____    ______ ____
ROOT
ATOM      1  O   UNL     1       2.621  10.633  17.581  0.00  0.00    +0.000 OA
ATOM      2  C   UNL     1       1.686   9.958  18.007  0.00  0.00    +0.000 C 
ATOM      3  N   UNL     1       0.602  10.529  18.662  0.00  0.00    +0.000 N 
ATOM      4  C   UNL     1      -0.537   9.821  19.277  0.00  0.00    +0.000 C 
ATOM      5  C   UNL     1      -0.601  10.108  20.788  0.00  0.00    +0.000 C 
ATOM      6  N   UNL     1      -0.604  11.562  21.053  0.00  0.00    +0.000 N 
ATOM      7  C   UNL     1       0.480  12.322  20.401  0.00  0.00    +0.000 C 
ATOM      8  C   UNL     1       0.576  11.976  18.897  0.00  0.00    +0.000 C 
ENDROOT
BRANCH   6   9
ATOM      9  C   UNL     1      -1.685  12.202  21.635  0.00  0.00    +0.000 A 
ATOM     10  C   UNL     1      -1.708  12.429  23.024  0.00  0.00    +0.000 A 
ATOM     11  C   UNL     1      -2.795  13.042  23.660  0.00  0.00    +0.000 A 
ATOM     12  C   UNL     1      -3.900  13.450  22.921  0.00  0.00    +0.000 A 
ATOM     13  C   UNL     1      -3.911  13.245  21.546  0.00  0.00    +0.000 A 
ATOM     14  C   UNL     1      -2.821  12.632  20.921  0.00  0.00    +0.000 A 
ATOM     15  F   UNL     1      -2.875  12.503  19.585  0.00  0.00    +0.000 F 
ENDBRANCH   6   9
BRANCH   2  16
ATOM     16  C   UNL     1       1.650   8.451  17.785  0.00  0.00    +0.000 C 
BRANCH  16  17
ATOM     17  C   UNL     1       2.438   7.701  18.856  0.00  0.00    +0.000 C 
BRANCH  17  18
ATOM     18  S   UNL     1       3.225   6.232  18.087  0.00  0.00    +0.000 S 
BRANCH  18  19
ATOM     19  C   UNL     1       2.401   4.930  18.984  0.00  0.00    +0.000 A 
ATOM     20  C   UNL     1       1.694   3.949  18.282  0.00  0.00    +0.000 A 
ATOM     21  C   UNL     1       1.005   2.948  18.971  0.00  0.00    +0.000 A 
ATOM     22  C   UNL     1       1.035   2.912  20.364  0.00  0.00    +0.000 A 
ATOM     23  C   UNL     1       1.773   3.862  21.068  0.00  0.00    +0.000 A 
ATOM     24  C   UNL     1       2.461   4.862  20.379  0.00  0.00    +0.000 A 
ENDBRANCH  18  19
ENDBRANCH  17  18
ENDBRANCH  16  17
ENDBRANCH   2  16
TORSDOF 5
ENDMDL
MODEL 8
REMARK VINA RESULT:      -6.8      5.761      7.871
REMARK  Name = 
REMARK  5 active torsions:
REMARK  status: ('A' for Active; 'I' for Inactive)
REMARK    1  A    between atoms: C_2  and  C_3
REMARK    2  A    between atoms: C_3  and  C_4
REMARK    3  A    between atoms: C_4  and  S_5
REMARK    4  A    between atoms: S_5  and  C_6
REMARK    5  A    between atoms: N_15  and  C_16
REMARK                            x       y       z     vdW  Elec       q    Type
REMARK                         _______ _______ _______ _____ _____    ______ ____
ROOT
ATOM      1  O   UNL     1       2.309   5.772  20.310  0.00  0.00    +0.000 OA
ATOM      2  C   UNL     1       2.416   6.494  19.320  0.00  0.00    +0.000 C 
ATOM      3  N   UNL     1       2.138   7.854  19.365  0.00  0.00    +0.000 N 
ATOM      4  C   UNL     1       2.160   8.803  18.236  0.00  0.00    +0.000 C 
ATOM      5  C   UNL     1       0.767   9.424  18.023  0.00  0.00    +0.000 C 
ATOM      6  N   UNL     1       0.253  10.017  19.274  0.00  0.00    +0.000 N 
ATOM      7  C   UNL     1       0.275   9.123  20.449  0.00  0.00    +0.000 C 
ATOM      8  C   UNL     1       1.660   8.455  20.614  0.00  0.00    +0.000 C 
ENDROOT
BRANCH   6   9
ATOM      9  C   UNL     1       0.026  11.376  19.406  0.00  0.00    +0.000 A 
ATOM     10  C   UNL     1      -1.241  11.846  19.800  0.00  0.00    +0.000 A 
ATOM     11  C   UNL     1      -1.526  13.213  19.913  0.00  0.00    +0.000 A 
ATOM     12  C   UNL     1      -0.544  14.158  19.635  0.00  0.00    +0.000 A 
ATOM     13  C   UNL     1       0.720  13.730  19.246  0.00  0.00    +0.000 A 
ATOM     14  C   UNL     1       0.993  12.364  19.136  0.00  0.00    +0.000 A 
ATOM     15  F   UNL     1       2.246  12.016  18.799  0.00  0.00    +0.000 F 
ENDBRANCH   6   9
BRANCH   2  16
ATOM     16  C   UNL     1       2.917   5.929  17.996  0.00  0.00    +0.000 C 
BRANCH  16  17
ATOM     17  C   UNL     1       3.413   4.493  18.143  0.00  0.00    +0.000 C 
BRANCH  17  18
ATOM     18  S   UNL     1       4.706   4.185  16.877  0.00  0.00    +0.000 S 
BRANCH  18  19
ATOM     19  C   UNL     1       6.006   5.236  17.496  0.00  0.00    +0.000 A 
ATOM     20  C   UNL     1       6.612   4.934  18.720  0.00  0.00    +0.000 A 
ATOM     21  C   UNL     1       7.601   5.771  19.242  0.00  0.00    +0.000 A 
ATOM     22  C   UNL     1       8.001   6.904  18.535  0.00  0.00    +0.000 A 
ATOM     23  C   UNL     1       7.432   7.186  17.295  0.00  0.00    +0.000 A 
ATOM     24  C   UNL     1       6.444   6.350  16.774  0.00  0.00    +0.000 A 
ENDBRANCH  18  19
ENDBRANCH  17  18
ENDBRANCH  16  17
ENDBRANCH   2  16
TORSDOF 5
ENDMDL
MODEL 9
REMARK VINA RESULT:      -6.8      5.765      8.222
REMARK  Name = 
REMARK  5 active torsions:
REMARK  status: ('A' for Active; 'I' for Inactive)
REMARK    1  A    between atoms: C_2  and  C_3
REMARK    2  A    between atoms: C_3  and  C_4
REMARK    3  A    between atoms: C_4  and  S_5
REMARK    4  A    between atoms: S_5  and  C_6
REMARK    5  A    between atoms: N_15  and  C_16
REMARK                            x       y       z     vdW  Elec       q    Type
REMARK                         _______ _______ _______ _____ _____    ______ ____
ROOT
ATOM      1  O   UNL     1       1.917   5.888  20.561  0.00  0.00    +0.000 OA
ATOM      2  C   UNL     1       2.170   6.475  19.510  0.00  0.00    +0.000 C 
ATOM      3  N   UNL     1       2.090   7.858  19.401  0.00  0.00    +0.000 N 
ATOM      4  C   UNL     1       2.297   8.666  18.184  0.00  0.00    +0.000 C 
ATOM      5  C   UNL     1       1.019   9.448  17.829  0.00  0.00    +0.000 C 
ATOM      6  N   UNL     1       0.544  10.240  18.982  0.00  0.00    +0.000 N 
ATOM      7  C   UNL     1       0.387   9.486  20.242  0.00  0.00    +0.000 C 
ATOM      8  C   UNL     1       1.653   8.653  20.553  0.00  0.00    +0.000 C 
ENDROOT
BRANCH   6   9
ATOM      9  C   UNL     1       0.511  11.624  18.962  0.00  0.00    +0.000 A 
ATOM     10  C   UNL     1       1.695  12.356  18.749  0.00  0.00    +0.000 A 
ATOM     11  C   UNL     1       1.715  13.757  18.755  0.00  0.00    +0.000 A 
ATOM     12  C   UNL     1       0.543  14.472  18.974  0.00  0.00    +0.000 A 
ATOM     13  C   UNL     1      -0.646  13.783  19.184  0.00  0.00    +0.000 A 
ATOM     14  C   UNL     1      -0.654  12.386  19.177  0.00  0.00    +0.000 A 
ATOM     15  F   UNL     1      -1.843  11.781  19.342  0.00  0.00    +0.000 F 
ENDBRANCH   6   9
BRANCH   2  16
ATOM     16  C   UNL     1       2.639   5.706  18.281  0.00  0.00    +0.000 C 
BRANCH  16  17
ATOM     17  C   UNL     1       3.036   4.273  18.627  0.00  0.00    +0.000 C 
BRANCH  17  18
ATOM     18  S   UNL     1       4.244   3.681  17.379  0.00  0.00    +0.000 S 
BRANCH  18  19
ATOM     19  C   UNL     1       5.609   4.775  17.720  0.00  0.00    +0.000 A 
ATOM     20  C   UNL     1       6.161   4.809  19.005  0.00  0.00    +0.000 A 
ATOM     21  C   UNL     1       7.200   5.693  19.303  0.00  0.00    +0.000 A 
ATOM     22  C   UNL     1       7.706   6.535  18.313  0.00  0.00    +0.000 A 
ATOM     23  C   UNL     1       7.189   6.475  17.021  0.00  0.00    +0.000 A 
ATOM     24  C   UNL     1       6.150   5.592  16.723  0.00  0.00    +0.000 A 
ENDBRANCH  18  19
ENDBRANCH  17  18
ENDBRANCH  16  17
ENDBRANCH   2  16
TORSDOF 5
ENDMDL
