MODEL 1
REMARK VINA RESULT:      -6.2      0.000      0.000
REMARK  Name = 
REMARK  9 active torsions:
REMARK  status: ('A' for Active; 'I' for Inactive)
REMARK    1  A    between atoms: C_1  and  C_2
REMARK    2  A    between atoms: C_2  and  C_3
REMARK    3  A    between atoms: C_2  and  C_4
REMARK    4  A    between atoms: C_4  and  C_5
REMARK    5  A    between atoms: C_4  and  C_6
REMARK    6  A    between atoms: C_4  and  N_8
REMARK    7  A    between atoms: C_9  and  C_11
REMARK    8  A    between atoms: C_11  and  N_12
REMARK    9  A    between atoms: N_18  and  C_19
REMARK                            x       y       z     vdW  Elec       q    Type
REMARK                         _______ _______ _______ _____ _____    ______ ____
ROOT
ATOM      1  N   UNL     1       3.950   5.761  19.574  0.00  0.00    +0.000 N 
ATOM      2  C   UNL     1       2.579   5.618  19.459  0.00  0.00    +0.000 C 
ATOM      3  O   UNL     1       2.046   4.739  18.791  0.00  0.00    +0.000 OA
ATOM      4  H   UNL     1       4.252   6.555  20.119  0.00  0.00    +0.000 HD
ENDROOT
BRANCH   1   5
ATOM      5  C   UNL     1       4.934   4.900  18.867  0.00  0.00    +0.000 C 
ATOM      6  C   UNL     1       4.680   3.418  19.222  0.00  0.00    +0.000 C 
BRANCH   5   8
ATOM      7  C   UNL     1       4.956   6.609  16.922  0.00  0.00    +0.000 C 
ATOM      8  C   UNL     1       4.857   5.129  17.322  0.00  0.00    +0.000 C 
ATOM      9  C   UNL     1       5.924   4.344  16.540  0.00  0.00    +0.000 C 
ENDBRANCH   5   8
BRANCH   5  10
ATOM     10  C   UNL     1       6.321   5.251  19.381  0.00  0.00    +0.000 C 
ATOM     11  N   UNL     1       7.472   5.543  19.808  0.00  0.00    +0.000 NA
ENDBRANCH   5  10
ENDBRANCH   1   5
BRANCH   2  12
ATOM     12  C   UNL     1       1.738   6.628  20.251  0.00  0.00    +0.000 C 
BRANCH  12  13
ATOM     13  N   UNL     1       2.035   8.044  19.876  0.00  0.00    +0.000 NA
ATOM     14  C   UNL     1       1.749   8.260  18.429  0.00  0.00    +0.000 C 
ATOM     15  C   UNL     1       0.789   9.442  18.321  0.00  0.00    +0.000 C 
ATOM     16  C   UNL     1       0.989  10.139  19.643  0.00  0.00    +0.000 C 
ATOM     17  C   UNL     1      -0.109  11.086  20.104  0.00  0.00    +0.000 C 
ATOM     18  C   UNL     1       0.181  11.537  21.546  0.00  0.00    +0.000 C 
ATOM     19  N   UNL     1       0.415  10.429  22.494  0.00  0.00    +0.000 NA
ATOM     20  C   UNL     1      -0.833   9.731  22.817  0.00  0.00    +0.000 C 
ATOM     21  C   UNL     1       1.458   9.495  21.988  0.00  0.00    +0.000 C 
ATOM     22  C   UNL     1       1.101   8.949  20.594  0.00  0.00    +0.000 C 
ENDBRANCH  12  13
ENDBRANCH   2  12
TORSDOF 5
ENDMDL
MODEL 2
REMARK VINA RESULT:      -6.2      2.293      7.179
REMARK  Name = 
REMARK  9 active torsions:
REMARK  status: ('A' for Active; 'I' for Inactive)
REMARK    1  A    between atoms: C_1  and  C_2
REMARK    2  A    between atoms: C_2  and  C_3
REMARK    3  A    between atoms: C_2  and  C_4
REMARK    4  A    between atoms: C_4  and  C_5
REMARK    5  A    between atoms: C_4  and  C_6
REMARK    6  A    between atoms: C_4  and  N_8
REMARK    7  A    between atoms: C_9  and  C_11
REMARK    8  A    between atoms: C_11  and  N_12
REMARK    9  A    between atoms: N_18  and  C_19
REMARK                            x       y       z     vdW  Elec       q    Type
REMARK                         _______ _______ _______ _____ _____    ______ ____
ROOT
ATOM      1  N   UNL     1       1.214   9.261  19.549  0.00  0.00    +0.000 N 
ATOM      2  C   UNL     1       1.915   8.581  18.569  0.00  0.00    +0.000 C 
ATOM      3  O   UNL     1       2.048   8.996  17.425  0.00  0.00    +0.000 OA
ATOM      4  H   UNL     1       1.145   8.782  20.435  0.00  0.00    +0.000 HD
ENDROOT
BRANCH   1   5
ATOM      5  C   UNL     1       0.505  10.547  19.318  0.00  0.00    +0.000 C 
ATOM      6  C   UNL     1      -0.617  10.344  18.274  0.00  0.00    +0.000 C 
BRANCH   5   8
ATOM      7  C   UNL     1      -1.396  11.866  20.481  0.00  0.00    +0.000 C 
ATOM      8  C   UNL     1      -0.071  11.108  20.659  0.00  0.00    +0.000 C 
ATOM      9  C   UNL     1      -0.275  10.024  21.731  0.00  0.00    +0.000 C 
ENDBRANCH   5   8
BRANCH   5  10
ATOM     10  C   UNL     1       1.498  11.531  18.721  0.00  0.00    +0.000 C 
ATOM     11  N   UNL     1       2.322  12.348  18.226  0.00  0.00    +0.000 NA
ENDBRANCH   5  10
ENDBRANCH   1   5
BRANCH   2  12
ATOM     12  C   UNL     1       2.552   7.255  19.010  0.00  0.00    +0.000 C 
BRANCH  12  13
ATOM     13  N   UNL     1       2.980   6.410  17.854  0.00  0.00    +0.000 NA
ATOM     14  C   UNL     1       4.453   6.527  17.653  0.00  0.00    +0.000 C 
ATOM     15  C   UNL     1       5.033   5.115  17.663  0.00  0.00    +0.000 C 
ATOM     16  C   UNL     1       3.823   4.270  17.358  0.00  0.00    +0.000 C 
ATOM     17  C   UNL     1       3.890   2.796  17.732  0.00  0.00    +0.000 C 
ATOM     18  C   UNL     1       2.506   2.156  17.529  0.00  0.00    +0.000 C 
ATOM     19  N   UNL     1       1.402   2.867  18.204  0.00  0.00    +0.000 NA
ATOM     20  C   UNL     1       1.439   2.655  19.654  0.00  0.00    +0.000 C 
ATOM     21  C   UNL     1       1.397   4.314  17.856  0.00  0.00    +0.000 C 
ATOM     22  C   UNL     1       2.747   4.979  18.178  0.00  0.00    +0.000 C 
ENDBRANCH  12  13
ENDBRANCH   2  12
TORSDOF 5
ENDMDL
MODEL 3
REMARK VINA RESULT:      -6.0      3.043      5.325
REMARK  Name = 
REMARK  9 active torsions:
REMARK  status: ('A' for Active; 'I' for Inactive)
REMARK    1  A    between atoms: C_1  and  C_2
REMARK    2  A    between atoms: C_2  and  C_3
REMARK    3  A    between atoms: C_2  and  C_4
REMARK    4  A    between atoms: C_4  and  C_5
REMARK    5  A    between atoms: C_4  and  C_6
REMARK    6  A    between atoms: C_4  and  N_8
REMARK    7  A    between atoms: C_9  and  C_11
REMARK    8  A    between atoms: C_11  and  N_12
REMARK    9  A    between atoms: N_18  and  C_19
REMARK                            x       y       z     vdW  Elec       q    Type
REMARK                         _______ _______ _______ _____ _____    ______ ____
ROOT
ATOM      1  N   UNL     1       5.595   6.339  17.868  0.00  0.00    +0.000 N 
ATOM      2  C   UNL     1       4.516   6.693  17.078  0.00  0.00    +0.000 C 
ATOM      3  O   UNL     1       4.627   7.112  15.932  0.00  0.00    +0.000 OA
ATOM      4  H   UNL     1       5.361   6.053  18.807  0.00  0.00    +0.000 HD
ENDROOT
BRANCH   1   5
ATOM      5  C   UNL     1       7.012   6.467  17.438  0.00  0.00    +0.000 C 
ATOM      6  C   UNL     1       7.399   7.961  17.356  0.00  0.00    +0.000 C 
BRANCH   5   8
ATOM      7  C   UNL     1       7.456   5.696  19.870  0.00  0.00    +0.000 C 
ATOM      8  C   UNL     1       7.957   5.696  18.417  0.00  0.00    +0.000 C 
ATOM      9  C   UNL     1       8.210   4.240  17.992  0.00  0.00    +0.000 C 
ENDBRANCH   5   8
BRANCH   5  10
ATOM     10  C   UNL     1       7.132   5.897  16.034  0.00  0.00    +0.000 C 
ATOM     11  N   UNL     1       7.232   5.423  14.869  0.00  0.00    +0.000 NA
ENDBRANCH   5  10
ENDBRANCH   1   5
BRANCH   2  12
ATOM     12  C   UNL     1       3.134   6.507  17.721  0.00  0.00    +0.000 C 
BRANCH  12  13
ATOM     13  N   UNL     1       3.214   6.259  19.193  0.00  0.00    +0.000 NA
ATOM     14  C   UNL     1       2.195   7.081  19.906  0.00  0.00    +0.000 C 
ATOM     15  C   UNL     1       1.356   6.137  20.762  0.00  0.00    +0.000 C 
ATOM     16  C   UNL     1       2.256   4.933  20.885  0.00  0.00    +0.000 C 
ATOM     17  C   UNL     1       1.604   3.612  21.269  0.00  0.00    +0.000 C 
ATOM     18  C   UNL     1       2.638   2.480  21.147  0.00  0.00    +0.000 C 
ATOM     19  N   UNL     1       3.323   2.420  19.840  0.00  0.00    +0.000 NA
ATOM     20  C   UNL     1       2.433   1.905  18.795  0.00  0.00    +0.000 C 
ATOM     21  C   UNL     1       3.905   3.740  19.472  0.00  0.00    +0.000 C 
ATOM     22  C   UNL     1       2.838   4.850  19.475  0.00  0.00    +0.000 C 
ENDBRANCH  12  13
ENDBRANCH   2  12
TORSDOF 5
ENDMDL
MODEL 4
REMARK VINA RESULT:      -6.0      2.154      7.186
REMARK  Name = 
REMARK  9 active torsions:
REMARK  status: ('A' for Active; 'I' for Inactive)
REMARK    1  A    between atoms: C_1  and  C_2
REMARK    2  A    between atoms: C_2  and  C_3
REMARK    3  A    between atoms: C_2  and  C_4
REMARK    4  A    between atoms: C_4  and  C_5
REMARK    5  A    between atoms: C_4  and  C_6
REMARK    6  A    between atoms: C_4  and  N_8
REMARK    7  A    between atoms: C_9  and  C_11
REMARK    8  A    between atoms: C_11  and  N_12
REMARK    9  A    between atoms: N_18  and  C_19
REMARK                            x       y       z     vdW  Elec       q    Type
REMARK                         _______ _______ _______ _____ _____    ______ ____
ROOT
ATOM      1  N   UNL     1       1.102   9.257  19.680  0.00  0.00    +0.000 N 
ATOM      2  C   UNL     1       1.822   8.607  18.694  0.00  0.00    +0.000 C 
ATOM      3  O   UNL     1       1.986   9.060  17.568  0.00  0.00    +0.000 OA
ATOM      4  H   UNL     1       1.008   8.748  20.547  0.00  0.00    +0.000 HD
ENDROOT
BRANCH   1   5
ATOM      5  C   UNL     1       0.406  10.555  19.477  0.00  0.00    +0.000 C 
ATOM      6  C   UNL     1       1.196  11.418  18.468  0.00  0.00    +0.000 C 
BRANCH   5   8
ATOM      7  C   UNL     1      -1.997  11.503  19.293  0.00  0.00    +0.000 C 
ATOM      8  C   UNL     1      -1.061  10.322  18.987  0.00  0.00    +0.000 C 
ATOM      9  C   UNL     1      -1.156  10.006  17.486  0.00  0.00    +0.000 C 
ENDBRANCH   5   8
BRANCH   5  10
ATOM     10  C   UNL     1       0.405  11.301  20.800  0.00  0.00    +0.000 C 
ATOM     11  N   UNL     1       0.405  11.921  21.900  0.00  0.00    +0.000 NA
ENDBRANCH   5  10
ENDBRANCH   1   5
BRANCH   2  12
ATOM     12  C   UNL     1       2.442   7.263  19.103  0.00  0.00    +0.000 C 
BRANCH  12  13
ATOM     13  N   UNL     1       2.895   6.457  17.929  0.00  0.00    +0.000 NA
ATOM     14  C   UNL     1       4.365   6.617  17.736  0.00  0.00    +0.000 C 
ATOM     15  C   UNL     1       4.982   5.222  17.716  0.00  0.00    +0.000 C 
ATOM     16  C   UNL     1       3.796   4.352  17.387  0.00  0.00    +0.000 C 
ATOM     17  C   UNL     1       3.902   2.872  17.726  0.00  0.00    +0.000 C 
ATOM     18  C   UNL     1       2.536   2.200  17.503  0.00  0.00    +0.000 C 
ATOM     19  N   UNL     1       1.411   2.866  18.192  0.00  0.00    +0.000 NA
ATOM     20  C   UNL     1       1.450   2.620  19.637  0.00  0.00    +0.000 C 
ATOM     21  C   UNL     1       1.368   4.320  17.877  0.00  0.00    +0.000 C 
ATOM     22  C   UNL     1       2.700   5.013  18.219  0.00  0.00    +0.000 C 
ENDBRANCH  12  13
ENDBRANCH   2  12
TORSDOF 5
ENDMDL
MODEL 5
REMARK VINA RESULT:      -5.9      3.103      5.153
REMARK  Name = 
REMARK  9 active torsions:
REMARK  status: ('A' for Active; 'I' for Inactive)
REMARK    1  A    between atoms: C_1  and  C_2
REMARK    2  A    between atoms: C_2  and  C_3
REMARK    3  A    between atoms: C_2  and  C_4
REMARK    4  A    between atoms: C_4  and  C_5
REMARK    5  A    between atoms: C_4  and  C_6
REMARK    6  A    between atoms: C_4  and  N_8
REMARK    7  A    between atoms: C_9  and  C_11
REMARK    8  A    between atoms: C_11  and  N_12
REMARK    9  A    between atoms: N_18  and  C_19
REMARK                            x       y       z     vdW  Elec       q    Type
REMARK                         _______ _______ _______ _____ _____    ______ ____
ROOT
ATOM      1  N   UNL     1       5.255   5.540  17.356  0.00  0.00    +0.000 N 
ATOM      2  C   UNL     1       4.300   6.484  17.023  0.00  0.00    +0.000 C 
ATOM      3  O   UNL     1       4.476   7.350  16.175  0.00  0.00    +0.000 OA
ATOM      4  H   UNL     1       4.994   4.914  18.104  0.00  0.00    +0.000 HD
ENDROOT
BRANCH   1   5
ATOM      5  C   UNL     1       6.616   5.494  16.761  0.00  0.00    +0.000 C 
ATOM      6  C   UNL     1       7.473   4.441  17.499  0.00  0.00    +0.000 C 
BRANCH   5   8
ATOM      7  C   UNL     1       7.886   5.336  14.510  0.00  0.00    +0.000 C 
ATOM      8  C   UNL     1       6.538   5.181  15.231  0.00  0.00    +0.000 C 
ATOM      9  C   UNL     1       5.985   3.779  14.926  0.00  0.00    +0.000 C 
ENDBRANCH   5   8
BRANCH   5  10
ATOM     10  C   UNL     1       7.275   6.845  16.987  0.00  0.00    +0.000 C 
ATOM     11  N   UNL     1       7.822   7.966  17.175  0.00  0.00    +0.000 NA
ENDBRANCH   5  10
ENDBRANCH   1   5
BRANCH   2  12
ATOM     12  C   UNL     1       2.966   6.372  17.775  0.00  0.00    +0.000 C 
BRANCH  12  13
ATOM     13  N   UNL     1       3.149   6.144  19.241  0.00  0.00    +0.000 NA
ATOM     14  C   UNL     1       2.198   6.995  20.012  0.00  0.00    +0.000 C 
ATOM     15  C   UNL     1       1.410   6.077  20.943  0.00  0.00    +0.000 C 
ATOM     16  C   UNL     1       2.296   4.860  21.019  0.00  0.00    +0.000 C 
ATOM     17  C   UNL     1       1.654   3.557  21.471  0.00  0.00    +0.000 C 
ATOM     18  C   UNL     1       2.658   2.406  21.293  0.00  0.00    +0.000 C 
ATOM     19  N   UNL     1       3.244   2.314  19.940  0.00  0.00    +0.000 NA
ATOM     20  C   UNL     1       2.272   1.799  18.971  0.00  0.00    +0.000 C 
ATOM     21  C   UNL     1       3.818   3.618  19.510  0.00  0.00    +0.000 C 
ATOM     22  C   UNL     1       2.772   4.746  19.572  0.00  0.00    +0.000 C 
ENDBRANCH  12  13
ENDBRANCH   2  12
TORSDOF 5
ENDMDL
MODEL 6
REMARK VINA RESULT:      -5.9      2.369      7.037
REMARK  Name = 
REMARK  9 active torsions:
REMARK  status: ('A' for Active; 'I' for Inactive)
REMARK    1  A    between atoms: C_1  and  C_2
REMARK    2  A    between atoms: C_2  and  C_3
REMARK    3  A    between atoms: C_2  and  C_4
REMARK    4  A    between atoms: C_4  and  C_5
REMARK    5  A    between atoms: C_4  and  C_6
REMARK    6  A    between atoms: C_4  and  N_8
REMARK    7  A    between atoms: C_9  and  C_11
REMARK    8  A    between atoms: C_11  and  N_12
REMARK    9  A    between atoms: N_18  and  C_19
REMARK                            x       y       z     vdW  Elec       q    Type
REMARK                         _______ _______ _______ _____ _____    ______ ____
ROOT
ATOM      1  N   UNL     1       1.089   9.748  20.406  0.00  0.00    +0.000 N 
ATOM      2  C   UNL     1       0.791   8.515  20.960  0.00  0.00    +0.000 C 
ATOM      3  O   UNL     1      -0.270   8.266  21.519  0.00  0.00    +0.000 OA
ATOM      4  H   UNL     1       2.017   9.828  20.018  0.00  0.00    +0.000 HD
ENDROOT
BRANCH   1   5
ATOM      5  C   UNL     1       0.181  10.922  20.465  0.00  0.00    +0.000 C 
ATOM      6  C   UNL     1       0.950  12.198  20.054  0.00  0.00    +0.000 C 
BRANCH   5   8
ATOM      7  C   UNL     1      -1.976  11.935  19.450  0.00  0.00    +0.000 C 
ATOM      8  C   UNL     1      -1.067  10.700  19.548  0.00  0.00    +0.000 C 
ATOM      9  C   UNL     1      -0.700  10.255  18.123  0.00  0.00    +0.000 C 
ENDBRANCH   5   8
BRANCH   5  10
ATOM     10  C   UNL     1      -0.256  11.109  21.909  0.00  0.00    +0.000 C 
ATOM     11  N   UNL     1      -0.618  11.264  23.107  0.00  0.00    +0.000 NA
ENDBRANCH   5  10
ENDBRANCH   1   5
BRANCH   2  12
ATOM     12  C   UNL     1       1.879   7.442  20.813  0.00  0.00    +0.000 C 
BRANCH  12  13
ATOM     13  N   UNL     1       1.742   6.653  19.550  0.00  0.00    +0.000 NA
ATOM     14  C   UNL     1       2.757   7.103  18.555  0.00  0.00    +0.000 C 
ATOM     15  C   UNL     1       3.541   5.873  18.106  0.00  0.00    +0.000 C 
ATOM     16  C   UNL     1       2.608   4.747  18.475  0.00  0.00    +0.000 C 
ATOM     17  C   UNL     1       3.212   3.357  18.611  0.00  0.00    +0.000 C 
ATOM     18  C   UNL     1       2.154   2.396  19.181  0.00  0.00    +0.000 C 
ATOM     19  N   UNL     1       1.514   2.865  20.426  0.00  0.00    +0.000 NA
ATOM     20  C   UNL     1       2.426   2.757  21.568  0.00  0.00    +0.000 C 
ATOM     21  C   UNL     1       0.979   4.246  20.273  0.00  0.00    +0.000 C 
ATOM     22  C   UNL     1       2.073   5.231  19.821  0.00  0.00    +0.000 C 
ENDBRANCH  12  13
ENDBRANCH   2  12
TORSDOF 5
ENDMDL
MODEL 7
REMARK VINA RESULT:      -5.8      3.855      6.530
REMARK  Name = 
REMARK  9 active torsions:
REMARK  status: ('A' for Active; 'I' for Inactive)
REMARK    1  A    between atoms: C_1  and  C_2
REMARK    2  A    between atoms: C_2  and  C_3
REMARK    3  A    between atoms: C_2  and  C_4
REMARK    4  A    between atoms: C_4  and  C_5
REMARK    5  A    between atoms: C_4  and  C_6
REMARK    6  A    between atoms: C_4  and  N_8
REMARK    7  A    between atoms: C_9  and  C_11
REMARK    8  A    between atoms: C_11  and  N_12
REMARK    9  A    between atoms: N_18  and  C_19
REMARK                            x       y       z     vdW  Elec       q    Type
REMARK                         _______ _______ _______ _____ _____    ______ ____
ROOT
ATOM      1  N   UNL     1       2.297   4.154  19.278  0.00  0.00    +0.000 N 
ATOM      2  C   UNL     1       2.182   4.715  18.018  0.00  0.00    +0.000 C 
ATOM      3  O   UNL     1       1.778   4.098  17.040  0.00  0.00    +0.000 OA
ATOM      4  H   UNL     1       2.686   4.764  19.982  0.00  0.00    +0.000 HD
ENDROOT
BRANCH   1   5
ATOM      5  C   UNL     1       1.992   2.732  19.581  0.00  0.00    +0.000 C 
ATOM      6  C   UNL     1       0.752   2.281  18.776  0.00  0.00    +0.000 C 
BRANCH   5   8
ATOM      7  C   UNL     1       3.727   1.960  17.820  0.00  0.00    +0.000 C 
ATOM      8  C   UNL     1       3.226   1.824  19.267  0.00  0.00    +0.000 C 
ATOM      9  C   UNL     1       4.413   2.066  20.214  0.00  0.00    +0.000 C 
ENDBRANCH   5   8
BRANCH   5  10
ATOM     10  C   UNL     1       1.629   2.632  21.054  0.00  0.00    +0.000 C 
ATOM     11  N   UNL     1       1.328   2.548  22.276  0.00  0.00    +0.000 NA
ENDBRANCH   5  10
ENDBRANCH   1   5
BRANCH   2  12
ATOM     12  C   UNL     1       2.573   6.196  17.914  0.00  0.00    +0.000 C 
BRANCH  12  13
ATOM     13  N   UNL     1       4.032   6.423  18.144  0.00  0.00    +0.000 NA
ATOM     14  C   UNL     1       4.447   5.808  19.437  0.00  0.00    +0.000 C 
ATOM     15  C   UNL     1       5.618   4.873  19.149  0.00  0.00    +0.000 C 
ATOM     16  C   UNL     1       6.123   5.391  17.826  0.00  0.00    +0.000 C 
ATOM     17  C   UNL     1       6.979   4.451  16.990  0.00  0.00    +0.000 C 
ATOM     18  C   UNL     1       7.224   5.080  15.608  0.00  0.00    +0.000 C 
ATOM     19  N   UNL     1       5.997   5.510  14.908  0.00  0.00    +0.000 NA
ATOM     20  C   UNL     1       5.241   4.361  14.402  0.00  0.00    +0.000 C 
ATOM     21  C   UNL     1       5.160   6.387  15.772  0.00  0.00    +0.000 C 
ATOM     22  C   UNL     1       4.812   5.702  17.107  0.00  0.00    +0.000 C 
ENDBRANCH  12  13
ENDBRANCH   2  12
TORSDOF 5
ENDMDL
MODEL 8
REMARK VINA RESULT:      -5.8      2.020      3.366
REMARK  Name = 
REMARK  9 active torsions:
REMARK  status: ('A' for Active; 'I' for Inactive)
REMARK    1  A    between atoms: C_1  and  C_2
REMARK    2  A    between atoms: C_2  and  C_3
REMARK    3  A    between atoms: C_2  and  C_4
REMARK    4  A    between atoms: C_4  and  C_5
REMARK    5  A    between atoms: C_4  and  C_6
REMARK    6  A    between atoms: C_4  and  N_8
REMARK    7  A    between atoms: C_9  and  C_11
REMARK    8  A    between atoms: C_11  and  N_12
REMARK    9  A    between atoms: N_18  and  C_19
REMARK                            x       y       z     vdW  Elec       q    Type
REMARK                         _______ _______ _______ _____ _____    ______ ____
ROOT
ATOM      1  N   UNL     1       2.096   5.833  20.974  0.00  0.00    +0.000 N 
ATOM      2  C   UNL     1       2.030   7.080  20.378  0.00  0.00    +0.000 C 
ATOM      3  O   UNL     1       2.201   7.264  19.179  0.00  0.00    +0.000 OA
ATOM      4  H   UNL     1       1.979   5.833  21.977  0.00  0.00    +0.000 HD
ENDROOT
BRANCH   1   5
ATOM      5  C   UNL     1       2.427   4.583  20.242  0.00  0.00    +0.000 C 
ATOM      6  C   UNL     1       2.521   3.405  21.238  0.00  0.00    +0.000 C 
BRANCH   5   8
ATOM      7  C   UNL     1       1.948   4.312  17.712  0.00  0.00    +0.000 C 
ATOM      8  C   UNL     1       1.362   4.296  19.133  0.00  0.00    +0.000 C 
ATOM      9  C   UNL     1       0.621   2.964  19.335  0.00  0.00    +0.000 C 
ENDBRANCH   5   8
BRANCH   5  10
ATOM     10  C   UNL     1       3.802   4.752  19.618  0.00  0.00    +0.000 C 
ATOM     11  N   UNL     1       4.944   4.892  19.100  0.00  0.00    +0.000 NA
ENDBRANCH   5  10
ENDBRANCH   1   5
BRANCH   2  12
ATOM     12  C   UNL     1       1.699   8.248  21.318  0.00  0.00    +0.000 C 
BRANCH  12  13
ATOM     13  N   UNL     1       0.350   8.834  21.054  0.00  0.00    +0.000 NA
ATOM     14  C   UNL     1      -0.396   8.997  22.335  0.00  0.00    +0.000 C 
ATOM     15  C   UNL     1      -0.840  10.454  22.429  0.00  0.00    +0.000 C 
ATOM     16  C   UNL     1      -0.772  10.902  20.991  0.00  0.00    +0.000 C 
ATOM     17  C   UNL     1      -0.694  12.400  20.730  0.00  0.00    +0.000 C 
ATOM     18  C   UNL     1      -0.433  12.643  19.234  0.00  0.00    +0.000 C 
ATOM     19  N   UNL     1       0.728  11.907  18.692  0.00  0.00    +0.000 NA
ATOM     20  C   UNL     1       1.991  12.494  19.149  0.00  0.00    +0.000 C 
ATOM     21  C   UNL     1       0.645  10.455  19.008  0.00  0.00    +0.000 C 
ATOM     22  C   UNL     1       0.507  10.212  20.523  0.00  0.00    +0.000 C 
ENDBRANCH  12  13
ENDBRANCH   2  12
TORSDOF 5
ENDMDL
MODEL 9
REMARK VINA RESULT:      -5.8      2.329      7.232
REMARK  Name = 
REMARK  9 active torsions:
REMARK  status: ('A' for Active; 'I' for Inactive)
REMARK    1  A    between atoms: C_1  and  C_2
REMARK    2  A    between atoms: C_2  and  C_3
REMARK    3  A    between atoms: C_2  and  C_4
REMARK    4  A    between atoms: C_4  and  C_5
REMARK    5  A    between atoms: C_4  and  C_6
REMARK    6  A    between atoms: C_4  and  N_8
REMARK    7  A    between atoms: C_9  and  C_11
REMARK    8  A    between atoms: C_11  and  N_12
REMARK    9  A    between atoms: N_18  and  C_19
REMARK                            x       y       z     vdW  Elec       q    Type
REMARK                         _______ _______ _______ _____ _____    ______ ____
ROOT
ATOM      1  N   UNL     1       0.964   9.366  19.858  0.00  0.00    +0.000 N 
ATOM      2  C   UNL     1       1.605   8.754  18.795  0.00  0.00    +0.000 C 
ATOM      3  O   UNL     1       1.572   9.185  17.649  0.00  0.00    +0.000 OA
ATOM      4  H   UNL     1       1.038   8.878  20.738  0.00  0.00    +0.000 HD
ENDROOT
BRANCH   1   5
ATOM      5  C   UNL     1       0.125  10.585  19.727  0.00  0.00    +0.000 C 
ATOM      6  C   UNL     1      -0.612  10.857  21.057  0.00  0.00    +0.000 C 
BRANCH   5   8
ATOM      7  C   UNL     1       0.217  12.872  18.514  0.00  0.00    +0.000 C 
ATOM      8  C   UNL     1       0.999  11.813  19.308  0.00  0.00    +0.000 C 
ATOM      9  C   UNL     1       1.678  12.507  20.500  0.00  0.00    +0.000 C 
ENDBRANCH   5   8
BRANCH   5  10
ATOM     10  C   UNL     1      -0.938  10.315  18.675  0.00  0.00    +0.000 C 
ATOM     11  N   UNL     1      -1.821  10.091  17.801  0.00  0.00    +0.000 NA
ENDBRANCH   5  10
ENDBRANCH   1   5
BRANCH   2  12
ATOM     12  C   UNL     1       2.401   7.488  19.140  0.00  0.00    +0.000 C 
BRANCH  12  13
ATOM     13  N   UNL     1       2.766   6.689  17.931  0.00  0.00    +0.000 NA
ATOM     14  C   UNL     1       4.178   6.967  17.542  0.00  0.00    +0.000 C 
ATOM     15  C   UNL     1       4.907   5.629  17.464  0.00  0.00    +0.000 C 
ATOM     16  C   UNL     1       3.769   4.653  17.311  0.00  0.00    +0.000 C 
ATOM     17  C   UNL     1       4.046   3.198  17.659  0.00  0.00    +0.000 C 
ATOM     18  C   UNL     1       2.727   2.407  17.631  0.00  0.00    +0.000 C 
ATOM     19  N   UNL     1       1.648   2.995  18.450  0.00  0.00    +0.000 NA
ATOM     20  C   UNL     1       1.896   2.796  19.881  0.00  0.00    +0.000 C 
ATOM     21  C   UNL     1       1.438   4.431  18.119  0.00  0.00    +0.000 C 
ATOM     22  C   UNL     1       2.737   5.243  18.269  0.00  0.00    +0.000 C 
ENDBRANCH  12  13
ENDBRANCH   2  12
TORSDOF 5
ENDMDL
