MODEL 1
REMARK VINA RESULT:      -7.5      0.000      0.000
REMARK  Name = 
REMARK  14 active torsions:
REMARK  status: ('A' for Active; 'I' for Inactive)
REMARK    1  A    between atoms: C_1  and  C_2
REMARK    2  A    between atoms: C_2  and  C_3
REMARK    3  A    between atoms: C_3  and  C_4
REMARK    4  A    between atoms: C_4  and  C_5
REMARK    5  A    between atoms: C_5  and  C_6
REMARK    6  A    between atoms: C_6  and  C_7
REMARK    7  A    between atoms: C_7  and  O_8
REMARK    8  A    between atoms: C_7  and  C_27
REMARK    9  A    between atoms: O_8  and  C_9
REMARK   10  A    between atoms: C_15  and  C_16
REMARK   11  A    between atoms: C_19  and  O_20
REMARK   12  A    between atoms: C_27  and  O_29
REMARK   13  A    between atoms: O_29  and  C_30
REMARK   14  A    between atoms: C_30  and  C_31
REMARK                            x       y       z     vdW  Elec       q    Type
REMARK                         _______ _______ _______ _____ _____    ______ ____
ROOT
ATOM      1  C   UNL     1       2.991   6.411  18.850  0.00  0.00    +0.000 A 
ATOM      2  C   UNL     1       2.824   7.291  17.789  0.00  0.00    +0.000 A 
ATOM      3  C   UNL     1       2.201   8.532  17.943  0.00  0.00    +0.000 A 
ATOM      4  C   UNL     1       1.640   8.865  19.169  0.00  0.00    +0.000 A 
ATOM      5  C   UNL     1       1.019  10.186  19.345  0.00  0.00    +0.000 A 
ATOM      6  O   UNL     1       1.199  11.081  18.529  0.00  0.00    +0.000 OA
ATOM      7  C   UNL     1       0.175  10.352  20.548  0.00  0.00    +0.000 A 
ATOM      8  C   UNL     1       0.181   9.342  21.436  0.00  0.00    +0.000 A 
ATOM      9  O   UNL     1       0.948   8.190  21.375  0.00  0.00    +0.000 OA
ATOM     10  C   UNL     1       1.648   7.943  20.211  0.00  0.00    +0.000 A 
ATOM     11  C   UNL     1       2.359   6.730  20.074  0.00  0.00    +0.000 A 
ENDROOT
BRANCH   7  12
ATOM     12  C   UNL     1      -0.643  11.558  20.759  0.00  0.00    +0.000 A 
ATOM     13  C   UNL     1      -1.767  11.808  19.954  0.00  0.00    +0.000 A 
ATOM     14  C   UNL     1      -2.540  12.959  20.144  0.00  0.00    +0.000 A 
ATOM     15  C   UNL     1      -2.189  13.861  21.144  0.00  0.00    +0.000 A 
ATOM     16  C   UNL     1      -1.086  13.627  21.956  0.00  0.00    +0.000 A 
ATOM     17  C   UNL     1      -0.314  12.478  21.766  0.00  0.00    +0.000 A 
BRANCH  15  18
ATOM     18  O   UNL     1      -2.904  15.001  21.359  0.00  0.00    +0.000 OA
ATOM     19  H   UNL     1      -2.954  15.162  22.315  0.00  0.00    +0.000 HD
ENDBRANCH  15  18
ENDBRANCH   7  12
BRANCH   1  20
ATOM     20  O   UNL     1       3.678   5.222  18.704  0.00  0.00    +0.000 OA
BRANCH  20  21
ATOM     21  C   UNL     1       3.724   4.659  17.363  0.00  0.00    +0.000 C 
BRANCH  21  22
ATOM     22  C   UNL     1       5.158   4.245  17.041  0.00  0.00    +0.000 C 
ATOM     23  O   UNL     1       5.525   3.780  15.976  0.00  0.00    +0.000 OA
BRANCH  22  24
ATOM     24  O   UNL     1       5.968   4.386  18.129  0.00  0.00    +0.000 OA
BRANCH  24  25
ATOM     25  C   UNL     1       7.320   4.756  17.805  0.00  0.00    +0.000 C 
ATOM     26  C   UNL     1       7.690   5.944  18.674  0.00  0.00    +0.000 C 
ENDBRANCH  24  25
ENDBRANCH  22  24
ENDBRANCH  21  22
BRANCH  21  27
ATOM     27  C   UNL     1       2.833   3.410  17.191  0.00  0.00    +0.000 C 
BRANCH  27  28
ATOM     28  C   UNL     1       3.244   2.154  17.973  0.00  0.00    +0.000 C 
BRANCH  28  29
ATOM     29  C   UNL     1       2.158   1.785  19.007  0.00  0.00    +0.000 C 
BRANCH  29  30
ATOM     30  C   UNL     1       1.000   2.787  19.005  0.00  0.00    +0.000 C 
BRANCH  30  32
ATOM     31  C   UNL     1       1.811   2.951  21.378  0.00  0.00    +0.000 C 
ATOM     32  C   UNL     1       0.833   3.503  20.350  0.00  0.00    +0.000 C 
ENDBRANCH  30  32
ENDBRANCH  29  30
ENDBRANCH  28  29
ENDBRANCH  27  28
ENDBRANCH  21  27
ENDBRANCH  20  21
ENDBRANCH   1  20
TORSDOF 12
ENDMDL
MODEL 2
REMARK VINA RESULT:      -7.5      1.253      3.598
REMARK  Name = 
REMARK  14 active torsions:
REMARK  status: ('A' for Active; 'I' for Inactive)
REMARK    1  A    between atoms: C_1  and  C_2
REMARK    2  A    between atoms: C_2  and  C_3
REMARK    3  A    between atoms: C_3  and  C_4
REMARK    4  A    between atoms: C_4  and  C_5
REMARK    5  A    between atoms: C_5  and  C_6
REMARK    6  A    between atoms: C_6  and  C_7
REMARK    7  A    between atoms: C_7  and  O_8
REMARK    8  A    between atoms: C_7  and  C_27
REMARK    9  A    between atoms: O_8  and  C_9
REMARK   10  A    between atoms: C_15  and  C_16
REMARK   11  A    between atoms: C_19  and  O_20
REMARK   12  A    between atoms: C_27  and  O_29
REMARK   13  A    between atoms: O_29  and  C_30
REMARK   14  A    between atoms: C_30  and  C_31
REMARK                            x       y       z     vdW  Elec       q    Type
REMARK                         _______ _______ _______ _____ _____    ______ ____
ROOT
ATOM      1  C   UNL     1       3.551   5.672  18.995  0.00  0.00    +0.000 A 
ATOM      2  C   UNL     1       3.525   6.483  17.868  0.00  0.00    +0.000 A 
ATOM      3  C   UNL     1       2.879   7.722  17.857  0.00  0.00    +0.000 A 
ATOM      4  C   UNL     1       2.153   8.121  18.972  0.00  0.00    +0.000 A 
ATOM      5  C   UNL     1       1.505   9.441  18.978  0.00  0.00    +0.000 A 
ATOM      6  O   UNL     1       1.790  10.287  18.140  0.00  0.00    +0.000 OA
ATOM      7  C   UNL     1       0.504   9.668  20.043  0.00  0.00    +0.000 A 
ATOM      8  C   UNL     1       0.395   8.714  20.985  0.00  0.00    +0.000 A 
ATOM      9  O   UNL     1       1.171   7.573  21.102  0.00  0.00    +0.000 OA
ATOM     10  C   UNL     1       2.025   7.265  20.061  0.00  0.00    +0.000 A 
ATOM     11  C   UNL     1       2.756   6.056  20.099  0.00  0.00    +0.000 A 
ENDROOT
BRANCH   7  12
ATOM     12  C   UNL     1      -0.343  10.873  20.064  0.00  0.00    +0.000 A 
ATOM     13  C   UNL     1      -0.055  11.933  20.939  0.00  0.00    +0.000 A 
ATOM     14  C   UNL     1      -0.864  13.074  20.969  0.00  0.00    +0.000 A 
ATOM     15  C   UNL     1      -1.963  13.156  20.120  0.00  0.00    +0.000 A 
ATOM     16  C   UNL     1      -2.259  12.121  19.241  0.00  0.00    +0.000 A 
ATOM     17  C   UNL     1      -1.452  10.981  19.210  0.00  0.00    +0.000 A 
BRANCH  15  18
ATOM     18  O   UNL     1      -2.787  14.241  20.122  0.00  0.00    +0.000 OA
ATOM     19  H   UNL     1      -3.660  13.971  19.794  0.00  0.00    +0.000 HD
ENDBRANCH  15  18
ENDBRANCH   7  12
BRANCH   1  20
ATOM     20  O   UNL     1       4.259   4.487  19.019  0.00  0.00    +0.000 OA
BRANCH  20  21
ATOM     21  C   UNL     1       3.891   3.491  18.024  0.00  0.00    +0.000 C 
BRANCH  21  22
ATOM     22  C   UNL     1       2.404   3.171  18.159  0.00  0.00    +0.000 C 
ATOM     23  O   UNL     1       1.528   3.624  17.443  0.00  0.00    +0.000 OA
BRANCH  22  24
ATOM     24  O   UNL     1       2.167   2.372  19.238  0.00  0.00    +0.000 OA
BRANCH  24  25
ATOM     25  C   UNL     1       1.096   2.832  20.080  0.00  0.00    +0.000 C 
ATOM     26  C   UNL     1       1.588   2.782  21.515  0.00  0.00    +0.000 C 
ENDBRANCH  24  25
ENDBRANCH  22  24
ENDBRANCH  21  22
BRANCH  21  27
ATOM     27  C   UNL     1       4.134   3.955  16.572  0.00  0.00    +0.000 C 
BRANCH  27  28
ATOM     28  C   UNL     1       5.581   3.908  16.063  0.00  0.00    +0.000 C 
BRANCH  28  29
ATOM     29  C   UNL     1       6.040   5.314  15.617  0.00  0.00    +0.000 C 
BRANCH  29  30
ATOM     30  C   UNL     1       7.039   5.930  16.599  0.00  0.00    +0.000 C 
BRANCH  30  32
ATOM     31  C   UNL     1       7.586   5.665  19.038  0.00  0.00    +0.000 C 
ATOM     32  C   UNL     1       7.471   4.952  17.698  0.00  0.00    +0.000 C 
ENDBRANCH  30  32
ENDBRANCH  29  30
ENDBRANCH  28  29
ENDBRANCH  27  28
ENDBRANCH  21  27
ENDBRANCH  20  21
ENDBRANCH   1  20
TORSDOF 12
ENDMDL
MODEL 3
REMARK VINA RESULT:      -7.4      2.205      3.749
REMARK  Name = 
REMARK  14 active torsions:
REMARK  status: ('A' for Active; 'I' for Inactive)
REMARK    1  A    between atoms: C_1  and  C_2
REMARK    2  A    between atoms: C_2  and  C_3
REMARK    3  A    between atoms: C_3  and  C_4
REMARK    4  A    between atoms: C_4  and  C_5
REMARK    5  A    between atoms: C_5  and  C_6
REMARK    6  A    between atoms: C_6  and  C_7
REMARK    7  A    between atoms: C_7  and  O_8
REMARK    8  A    between atoms: C_7  and  C_27
REMARK    9  A    between atoms: O_8  and  C_9
REMARK   10  A    between atoms: C_15  and  C_16
REMARK   11  A    between atoms: C_19  and  O_20
REMARK   12  A    between atoms: C_27  and  O_29
REMARK   13  A    between atoms: O_29  and  C_30
REMARK   14  A    between atoms: C_30  and  C_31
REMARK                            x       y       z     vdW  Elec       q    Type
REMARK                         _______ _______ _______ _____ _____    ______ ____
ROOT
ATOM      1  C   UNL     1       3.842   6.104  18.309  0.00  0.00    +0.000 A 
ATOM      2  C   UNL     1       3.665   7.113  17.371  0.00  0.00    +0.000 A 
ATOM      3  C   UNL     1       2.901   8.252  17.638  0.00  0.00    +0.000 A 
ATOM      4  C   UNL     1       2.211   8.342  18.841  0.00  0.00    +0.000 A 
ATOM      5  C   UNL     1       1.439   9.557  19.141  0.00  0.00    +0.000 A 
ATOM      6  O   UNL     1       1.585  10.577  18.480  0.00  0.00    +0.000 OA
ATOM      7  C   UNL     1       0.488   9.460  20.271  0.00  0.00    +0.000 A 
ATOM      8  C   UNL     1       0.533   8.333  21.004  0.00  0.00    +0.000 A 
ATOM      9  O   UNL     1       1.423   7.282  20.855  0.00  0.00    +0.000 OA
ATOM     10  C   UNL     1       2.236   7.280  19.738  0.00  0.00    +0.000 A 
ATOM     11  C   UNL     1       3.083   6.175  19.500  0.00  0.00    +0.000 A 
ENDROOT
BRANCH   7  12
ATOM     12  C   UNL     1      -0.470  10.537  20.571  0.00  0.00    +0.000 A 
ATOM     13  C   UNL     1      -1.297  11.058  19.562  0.00  0.00    +0.000 A 
ATOM     14  C   UNL     1      -2.201  12.089  19.841  0.00  0.00    +0.000 A 
ATOM     15  C   UNL     1      -2.278  12.599  21.133  0.00  0.00    +0.000 A 
ATOM     16  C   UNL     1      -1.475  12.091  22.146  0.00  0.00    +0.000 A 
ATOM     17  C   UNL     1      -0.572  11.061  21.868  0.00  0.00    +0.000 A 
BRANCH  15  18
ATOM     18  O   UNL     1      -3.134  13.611  21.450  0.00  0.00    +0.000 OA
ATOM     19  H   UNL     1      -3.133  14.259  20.726  0.00  0.00    +0.000 HD
ENDBRANCH  15  18
ENDBRANCH   7  12
BRANCH   1  20
ATOM     20  O   UNL     1       4.662   5.022  18.063  0.00  0.00    +0.000 OA
BRANCH  20  21
ATOM     21  C   UNL     1       5.567   5.137  16.929  0.00  0.00    +0.000 C 
BRANCH  21  22
ATOM     22  C   UNL     1       7.006   5.194  17.438  0.00  0.00    +0.000 C 
ATOM     23  O   UNL     1       7.532   4.343  18.133  0.00  0.00    +0.000 OA
BRANCH  22  24
ATOM     24  O   UNL     1       7.609   6.364  17.083  0.00  0.00    +0.000 OA
BRANCH  24  25
ATOM     25  C   UNL     1       7.889   7.236  18.191  0.00  0.00    +0.000 C 
ATOM     26  C   UNL     1       7.913   8.659  17.661  0.00  0.00    +0.000 C 
ENDBRANCH  24  25
ENDBRANCH  22  24
ENDBRANCH  21  22
BRANCH  21  27
ATOM     27  C   UNL     1       5.472   3.952  15.946  0.00  0.00    +0.000 C 
BRANCH  27  28
ATOM     28  C   UNL     1       5.373   4.296  14.453  0.00  0.00    +0.000 C 
BRANCH  28  29
ATOM     29  C   UNL     1       6.781   4.379  13.825  0.00  0.00    +0.000 C 
BRANCH  29  30
ATOM     30  C   UNL     1       6.781   3.948  12.356  0.00  0.00    +0.000 C 
BRANCH  30  32
ATOM     31  C   UNL     1       5.801   1.827  11.429  0.00  0.00    +0.000 C 
ATOM     32  C   UNL     1       5.492   3.223  11.951  0.00  0.00    +0.000 C 
ENDBRANCH  30  32
ENDBRANCH  29  30
ENDBRANCH  28  29
ENDBRANCH  27  28
ENDBRANCH  21  27
ENDBRANCH  20  21
ENDBRANCH   1  20
TORSDOF 12
ENDMDL
MODEL 4
REMARK VINA RESULT:      -7.4      0.824      1.439
REMARK  Name = 
REMARK  14 active torsions:
REMARK  status: ('A' for Active; 'I' for Inactive)
REMARK    1  A    between atoms: C_1  and  C_2
REMARK    2  A    between atoms: C_2  and  C_3
REMARK    3  A    between atoms: C_3  and  C_4
REMARK    4  A    between atoms: C_4  and  C_5
REMARK    5  A    between atoms: C_5  and  C_6
REMARK    6  A    between atoms: C_6  and  C_7
REMARK    7  A    between atoms: C_7  and  O_8
REMARK    8  A    between atoms: C_7  and  C_27
REMARK    9  A    between atoms: O_8  and  C_9
REMARK   10  A    between atoms: C_15  and  C_16
REMARK   11  A    between atoms: C_19  and  O_20
REMARK   12  A    between atoms: C_27  and  O_29
REMARK   13  A    between atoms: O_29  and  C_30
REMARK   14  A    between atoms: C_30  and  C_31
REMARK                            x       y       z     vdW  Elec       q    Type
REMARK                         _______ _______ _______ _____ _____    ______ ____
ROOT
ATOM      1  C   UNL     1       2.788   6.613  19.087  0.00  0.00    +0.000 A 
ATOM      2  C   UNL     1       2.654   7.486  18.015  0.00  0.00    +0.000 A 
ATOM      3  C   UNL     1       2.042   8.736  18.146  0.00  0.00    +0.000 A 
ATOM      4  C   UNL     1       1.458   9.084  19.358  0.00  0.00    +0.000 A 
ATOM      5  C   UNL     1       0.849  10.414  19.510  0.00  0.00    +0.000 A 
ATOM      6  O   UNL     1       1.057  11.300  18.691  0.00  0.00    +0.000 OA
ATOM      7  C   UNL     1      -0.018  10.599  20.694  0.00  0.00    +0.000 A 
ATOM      8  C   UNL     1      -0.042   9.596  21.589  0.00  0.00    +0.000 A 
ATOM      9  O   UNL     1       0.713   8.435  21.554  0.00  0.00    +0.000 OA
ATOM     10  C   UNL     1       1.434   8.171  20.406  0.00  0.00    +0.000 A 
ATOM     11  C   UNL     1       2.134   6.949  20.294  0.00  0.00    +0.000 A 
ENDROOT
BRANCH   7  12
ATOM     12  C   UNL     1      -0.827  11.816  20.877  0.00  0.00    +0.000 A 
ATOM     13  C   UNL     1      -0.438  12.799  21.802  0.00  0.00    +0.000 A 
ATOM     14  C   UNL     1      -1.210  13.951  21.988  0.00  0.00    +0.000 A 
ATOM     15  C   UNL     1      -2.373  14.122  21.243  0.00  0.00    +0.000 A 
ATOM     16  C   UNL     1      -2.769  13.165  20.317  0.00  0.00    +0.000 A 
ATOM     17  C   UNL     1      -1.999  12.014  20.131  0.00  0.00    +0.000 A 
BRANCH  15  18
ATOM     18  O   UNL     1      -3.163  15.221  21.397  0.00  0.00    +0.000 OA
ATOM     19  H   UNL     1      -3.480  15.503  20.523  0.00  0.00    +0.000 HD
ENDBRANCH  15  18
ENDBRANCH   7  12
BRANCH   1  20
ATOM     20  O   UNL     1       3.464   5.416  18.965  0.00  0.00    +0.000 OA
BRANCH  20  21
ATOM     21  C   UNL     1       4.318   5.267  17.795  0.00  0.00    +0.000 C 
BRANCH  21  22
ATOM     22  C   UNL     1       5.759   5.043  18.249  0.00  0.00    +0.000 C 
ATOM     23  O   UNL     1       6.083   4.515  19.298  0.00  0.00    +0.000 OA
BRANCH  22  24
ATOM     24  O   UNL     1       6.644   5.584  17.365  0.00  0.00    +0.000 OA
BRANCH  24  25
ATOM     25  C   UNL     1       6.485   7.000  17.173  0.00  0.00    +0.000 C 
ATOM     26  C   UNL     1       7.710   7.682  17.755  0.00  0.00    +0.000 C 
ENDBRANCH  24  25
ENDBRANCH  22  24
ENDBRANCH  21  22
BRANCH  21  27
ATOM     27  C   UNL     1       3.926   4.074  16.898  0.00  0.00    +0.000 C 
BRANCH  27  28
ATOM     28  C   UNL     1       2.567   3.417  17.174  0.00  0.00    +0.000 C 
BRANCH  28  29
ATOM     29  C   UNL     1       2.762   2.019  17.800  0.00  0.00    +0.000 C 
BRANCH  29  30
ATOM     30  C   UNL     1       2.162   1.930  19.205  0.00  0.00    +0.000 C 
BRANCH  30  32
ATOM     31  C   UNL     1       1.094   3.554  20.799  0.00  0.00    +0.000 C 
ATOM     32  C   UNL     1       1.007   2.916  19.420  0.00  0.00    +0.000 C 
ENDBRANCH  30  32
ENDBRANCH  29  30
ENDBRANCH  28  29
ENDBRANCH  27  28
ENDBRANCH  21  27
ENDBRANCH  20  21
ENDBRANCH   1  20
TORSDOF 12
ENDMDL
MODEL 5
REMARK VINA RESULT:      -7.3      2.495      4.058
REMARK  Name = 
REMARK  14 active torsions:
REMARK  status: ('A' for Active; 'I' for Inactive)
REMARK    1  A    between atoms: C_1  and  C_2
REMARK    2  A    between atoms: C_2  and  C_3
REMARK    3  A    between atoms: C_3  and  C_4
REMARK    4  A    between atoms: C_4  and  C_5
REMARK    5  A    between atoms: C_5  and  C_6
REMARK    6  A    between atoms: C_6  and  C_7
REMARK    7  A    between atoms: C_7  and  O_8
REMARK    8  A    between atoms: C_7  and  C_27
REMARK    9  A    between atoms: O_8  and  C_9
REMARK   10  A    between atoms: C_15  and  C_16
REMARK   11  A    between atoms: C_19  and  O_20
REMARK   12  A    between atoms: C_27  and  O_29
REMARK   13  A    between atoms: O_29  and  C_30
REMARK   14  A    between atoms: C_30  and  C_31
REMARK                            x       y       z     vdW  Elec       q    Type
REMARK                         _______ _______ _______ _____ _____    ______ ____
ROOT
ATOM      1  C   UNL     1       4.142   5.804  17.896  0.00  0.00    +0.000 A 
ATOM      2  C   UNL     1       3.884   6.834  16.999  0.00  0.00    +0.000 A 
ATOM      3  C   UNL     1       3.132   7.957  17.352  0.00  0.00    +0.000 A 
ATOM      4  C   UNL     1       2.535   8.010  18.605  0.00  0.00    +0.000 A 
ATOM      5  C   UNL     1       1.776   9.208  18.994  0.00  0.00    +0.000 A 
ATOM      6  O   UNL     1       1.862  10.246  18.349  0.00  0.00    +0.000 OA
ATOM      7  C   UNL     1       0.916   9.073  20.190  0.00  0.00    +0.000 A 
ATOM      8  C   UNL     1       1.027   7.929  20.889  0.00  0.00    +0.000 A 
ATOM      9  O   UNL     1       1.913   6.892  20.646  0.00  0.00    +0.000 OA
ATOM     10  C   UNL     1       2.639   6.927  19.471  0.00  0.00    +0.000 A 
ATOM     11  C   UNL     1       3.476   5.837  19.142  0.00  0.00    +0.000 A 
ENDROOT
BRANCH   7  12
ATOM     12  C   UNL     1      -0.027  10.131  20.588  0.00  0.00    +0.000 A 
ATOM     13  C   UNL     1      -0.079  10.576  21.919  0.00  0.00    +0.000 A 
ATOM     14  C   UNL     1      -0.982  11.574  22.304  0.00  0.00    +0.000 A 
ATOM     15  C   UNL     1      -1.832  12.130  21.354  0.00  0.00    +0.000 A 
ATOM     16  C   UNL     1      -1.789  11.709  20.030  0.00  0.00    +0.000 A 
ATOM     17  C   UNL     1      -0.888  10.713  19.645  0.00  0.00    +0.000 A 
BRANCH  15  18
ATOM     18  O   UNL     1      -2.736  13.095  21.683  0.00  0.00    +0.000 OA
ATOM     19  H   UNL     1      -3.366  12.727  22.324  0.00  0.00    +0.000 HD
ENDBRANCH  15  18
ENDBRANCH   7  12
BRANCH   1  20
ATOM     20  O   UNL     1       4.952   4.738  17.561  0.00  0.00    +0.000 OA
BRANCH  20  21
ATOM     21  C   UNL     1       5.780   4.898  16.374  0.00  0.00    +0.000 C 
BRANCH  21  22
ATOM     22  C   UNL     1       7.216   5.196  16.800  0.00  0.00    +0.000 C 
ATOM     23  O   UNL     1       8.000   4.368  17.229  0.00  0.00    +0.000 OA
BRANCH  22  24
ATOM     24  O   UNL     1       7.489   6.529  16.715  0.00  0.00    +0.000 OA
BRANCH  24  25
ATOM     25  C   UNL     1       7.668   7.170  17.990  0.00  0.00    +0.000 C 
ATOM     26  C   UNL     1       8.012   8.625  17.727  0.00  0.00    +0.000 C 
ENDBRANCH  24  25
ENDBRANCH  22  24
ENDBRANCH  21  22
BRANCH  21  27
ATOM     27  C   UNL     1       5.815   3.642  15.478  0.00  0.00    +0.000 C 
BRANCH  27  28
ATOM     28  C   UNL     1       6.207   3.852  14.008  0.00  0.00    +0.000 C 
BRANCH  28  29
ATOM     29  C   UNL     1       4.968   3.712  13.097  0.00  0.00    +0.000 C 
BRANCH  29  30
ATOM     30  C   UNL     1       5.346   3.283  11.676  0.00  0.00    +0.000 C 
BRANCH  30  32
ATOM     31  C   UNL     1       6.371   1.050  11.148  0.00  0.00    +0.000 C 
ATOM     32  C   UNL     1       6.644   2.469  11.629  0.00  0.00    +0.000 C 
ENDBRANCH  30  32
ENDBRANCH  29  30
ENDBRANCH  28  29
ENDBRANCH  27  28
ENDBRANCH  21  27
ENDBRANCH  20  21
ENDBRANCH   1  20
TORSDOF 12
ENDMDL
MODEL 6
REMARK VINA RESULT:      -7.2      1.385      3.924
REMARK  Name = 
REMARK  14 active torsions:
REMARK  status: ('A' for Active; 'I' for Inactive)
REMARK    1  A    between atoms: C_1  and  C_2
REMARK    2  A    between atoms: C_2  and  C_3
REMARK    3  A    between atoms: C_3  and  C_4
REMARK    4  A    between atoms: C_4  and  C_5
REMARK    5  A    between atoms: C_5  and  C_6
REMARK    6  A    between atoms: C_6  and  C_7
REMARK    7  A    between atoms: C_7  and  O_8
REMARK    8  A    between atoms: C_7  and  C_27
REMARK    9  A    between atoms: O_8  and  C_9
REMARK   10  A    between atoms: C_15  and  C_16
REMARK   11  A    between atoms: C_19  and  O_20
REMARK   12  A    between atoms: C_27  and  O_29
REMARK   13  A    between atoms: O_29  and  C_30
REMARK   14  A    between atoms: C_30  and  C_31
REMARK                            x       y       z     vdW  Elec       q    Type
REMARK                         _______ _______ _______ _____ _____    ______ ____
ROOT
ATOM      1  C   UNL     1       2.989   6.934  18.502  0.00  0.00    +0.000 A 
ATOM      2  C   UNL     1       2.782   7.976  17.607  0.00  0.00    +0.000 A 
ATOM      3  C   UNL     1       2.090   9.136  17.962  0.00  0.00    +0.000 A 
ATOM      4  C   UNL     1       1.501   9.220  19.218  0.00  0.00    +0.000 A 
ATOM      5  C   UNL     1       0.806  10.455  19.609  0.00  0.00    +0.000 A 
ATOM      6  O   UNL     1       0.943  11.487  18.965  0.00  0.00    +0.000 OA
ATOM      7  C   UNL     1      -0.056  10.364  20.808  0.00  0.00    +0.000 A 
ATOM      8  C   UNL     1      -0.001   9.216  21.507  0.00  0.00    +0.000 A 
ATOM      9  O   UNL     1       0.829   8.135  21.260  0.00  0.00    +0.000 OA
ATOM     10  C   UNL     1       1.552   8.132  20.083  0.00  0.00    +0.000 A 
ATOM     11  C   UNL     1       2.330   7.001  19.751  0.00  0.00    +0.000 A 
ENDROOT
BRANCH   7  12
ATOM     12  C   UNL     1      -0.941  11.470  21.211  0.00  0.00    +0.000 A 
ATOM     13  C   UNL     1      -0.801  12.074  22.471  0.00  0.00    +0.000 A 
ATOM     14  C   UNL     1      -1.647  13.118  22.861  0.00  0.00    +0.000 A 
ATOM     15  C   UNL     1      -2.636  13.559  21.987  0.00  0.00    +0.000 A 
ATOM     16  C   UNL     1      -2.784  12.979  20.732  0.00  0.00    +0.000 A 
ATOM     17  C   UNL     1      -1.939  11.937  20.342  0.00  0.00    +0.000 A 
BRANCH  15  18
ATOM     18  O   UNL     1      -3.491  14.563  22.326  0.00  0.00    +0.000 OA
ATOM     19  H   UNL     1      -2.974  15.319  22.648  0.00  0.00    +0.000 HD
ENDBRANCH  15  18
ENDBRANCH   7  12
BRANCH   1  20
ATOM     20  O   UNL     1       3.741   5.828  18.164  0.00  0.00    +0.000 OA
BRANCH  20  21
ATOM     21  C   UNL     1       4.423   5.147  19.255  0.00  0.00    +0.000 C 
BRANCH  21  22
ATOM     22  C   UNL     1       3.975   3.688  19.295  0.00  0.00    +0.000 C 
ATOM     23  O   UNL     1       4.112   2.893  18.382  0.00  0.00    +0.000 OA
BRANCH  22  24
ATOM     24  O   UNL     1       3.325   3.403  20.459  0.00  0.00    +0.000 OA
BRANCH  24  25
ATOM     25  C   UNL     1       2.124   2.632  20.283  0.00  0.00    +0.000 C 
ATOM     26  C   UNL     1       0.974   3.609  20.108  0.00  0.00    +0.000 C 
ENDBRANCH  24  25
ENDBRANCH  22  24
ENDBRANCH  21  22
BRANCH  21  27
ATOM     27  C   UNL     1       5.960   5.154  19.118  0.00  0.00    +0.000 C 
BRANCH  27  28
ATOM     28  C   UNL     1       6.533   4.839  17.729  0.00  0.00    +0.000 C 
BRANCH  28  29
ATOM     29  C   UNL     1       7.108   6.117  17.081  0.00  0.00    +0.000 C 
BRANCH  29  30
ATOM     30  C   UNL     1       7.745   7.048  18.116  0.00  0.00    +0.000 C 
BRANCH  30  32
ATOM     31  C   UNL     1       8.688   9.335  18.562  0.00  0.00    +0.000 C 
ATOM     32  C   UNL     1       7.791   8.509  17.651  0.00  0.00    +0.000 C 
ENDBRANCH  30  32
ENDBRANCH  29  30
ENDBRANCH  28  29
ENDBRANCH  27  28
ENDBRANCH  21  27
ENDBRANCH  20  21
ENDBRANCH   1  20
TORSDOF 12
ENDMDL
MODEL 7
REMARK VINA RESULT:      -7.2      1.338      3.507
REMARK  Name = 
REMARK  14 active torsions:
REMARK  status: ('A' for Active; 'I' for Inactive)
REMARK    1  A    between atoms: C_1  and  C_2
REMARK    2  A    between atoms: C_2  and  C_3
REMARK    3  A    between atoms: C_3  and  C_4
REMARK    4  A    between atoms: C_4  and  C_5
REMARK    5  A    between atoms: C_5  and  C_6
REMARK    6  A    between atoms: C_6  and  C_7
REMARK    7  A    between atoms: C_7  and  O_8
REMARK    8  A    between atoms: C_7  and  C_27
REMARK    9  A    between atoms: O_8  and  C_9
REMARK   10  A    between atoms: C_15  and  C_16
REMARK   11  A    between atoms: C_19  and  O_20
REMARK   12  A    between atoms: C_27  and  O_29
REMARK   13  A    between atoms: O_29  and  C_30
REMARK   14  A    between atoms: C_30  and  C_31
REMARK                            x       y       z     vdW  Elec       q    Type
REMARK                         _______ _______ _______ _____ _____    ______ ____
ROOT
ATOM      1  C   UNL     1       2.987   6.673  18.478  0.00  0.00    +0.000 A 
ATOM      2  C   UNL     1       2.872   7.717  17.569  0.00  0.00    +0.000 A 
ATOM      3  C   UNL     1       2.244   8.922  17.895  0.00  0.00    +0.000 A 
ATOM      4  C   UNL     1       1.624   9.053  19.132  0.00  0.00    +0.000 A 
ATOM      5  C   UNL     1       0.997  10.334  19.492  0.00  0.00    +0.000 A 
ATOM      6  O   UNL     1       1.217  11.349  18.845  0.00  0.00    +0.000 OA
ATOM      7  C   UNL     1       0.096  10.307  20.666  0.00  0.00    +0.000 A 
ATOM      8  C   UNL     1       0.058   9.164  21.374  0.00  0.00    +0.000 A 
ATOM      9  O   UNL     1       0.827   8.031  21.161  0.00  0.00    +0.000 OA
ATOM     10  C   UNL     1       1.582   7.973  20.006  0.00  0.00    +0.000 A 
ATOM     11  C   UNL     1       2.297   6.792  19.706  0.00  0.00    +0.000 A 
ENDROOT
BRANCH   7  12
ATOM     12  C   UNL     1      -0.730  11.469  21.033  0.00  0.00    +0.000 A 
ATOM     13  C   UNL     1      -1.854  11.817  20.265  0.00  0.00    +0.000 A 
ATOM     14  C   UNL     1      -2.635  12.928  20.605  0.00  0.00    +0.000 A 
ATOM     15  C   UNL     1      -2.292  13.691  21.716  0.00  0.00    +0.000 A 
ATOM     16  C   UNL     1      -1.188  13.357  22.493  0.00  0.00    +0.000 A 
ATOM     17  C   UNL     1      -0.408  12.248  22.154  0.00  0.00    +0.000 A 
BRANCH  15  18
ATOM     18  O   UNL     1      -3.014  14.787  22.079  0.00  0.00    +0.000 OA
ATOM     19  H   UNL     1      -3.959  14.578  22.005  0.00  0.00    +0.000 HD
ENDBRANCH  15  18
ENDBRANCH   7  12
BRANCH   1  20
ATOM     20  O   UNL     1       3.679   5.519  18.171  0.00  0.00    +0.000 OA
BRANCH  20  21
ATOM     21  C   UNL     1       4.493   4.947  19.234  0.00  0.00    +0.000 C 
BRANCH  21  22
ATOM     22  C   UNL     1       4.429   3.424  19.152  0.00  0.00    +0.000 C 
ATOM     23  O   UNL     1       4.934   2.662  19.958  0.00  0.00    +0.000 OA
BRANCH  22  24
ATOM     24  O   UNL     1       3.801   3.017  18.012  0.00  0.00    +0.000 OA
BRANCH  24  25
ATOM     25  C   UNL     1       2.739   2.074  18.237  0.00  0.00    +0.000 C 
ATOM     26  C   UNL     1       1.445   2.859  18.354  0.00  0.00    +0.000 C 
ENDBRANCH  24  25
ENDBRANCH  22  24
ENDBRANCH  21  22
BRANCH  21  27
ATOM     27  C   UNL     1       5.981   5.352  19.152  0.00  0.00    +0.000 C 
BRANCH  27  28
ATOM     28  C   UNL     1       6.779   4.815  17.956  0.00  0.00    +0.000 C 
BRANCH  28  29
ATOM     29  C   UNL     1       6.780   5.844  16.804  0.00  0.00    +0.000 C 
BRANCH  29  30
ATOM     30  C   UNL     1       6.985   5.179  15.441  0.00  0.00    +0.000 C 
BRANCH  30  32
ATOM     31  C   UNL     1       5.992   3.793  13.594  0.00  0.00    +0.000 C 
ATOM     32  C   UNL     1       5.740   4.427  14.955  0.00  0.00    +0.000 C 
ENDBRANCH  30  32
ENDBRANCH  29  30
ENDBRANCH  28  29
ENDBRANCH  27  28
ENDBRANCH  21  27
ENDBRANCH  20  21
ENDBRANCH   1  20
TORSDOF 12
ENDMDL
MODEL 8
REMARK VINA RESULT:      -7.2      1.475      2.361
REMARK  Name = 
REMARK  14 active torsions:
REMARK  status: ('A' for Active; 'I' for Inactive)
REMARK    1  A    between atoms: C_1  and  C_2
REMARK    2  A    between atoms: C_2  and  C_3
REMARK    3  A    between atoms: C_3  and  C_4
REMARK    4  A    between atoms: C_4  and  C_5
REMARK    5  A    between atoms: C_5  and  C_6
REMARK    6  A    between atoms: C_6  and  C_7
REMARK    7  A    between atoms: C_7  and  O_8
REMARK    8  A    between atoms: C_7  and  C_27
REMARK    9  A    between atoms: O_8  and  C_9
REMARK   10  A    between atoms: C_15  and  C_16
REMARK   11  A    between atoms: C_19  and  O_20
REMARK   12  A    between atoms: C_27  and  O_29
REMARK   13  A    between atoms: O_29  and  C_30
REMARK   14  A    between atoms: C_30  and  C_31
REMARK                            x       y       z     vdW  Elec       q    Type
REMARK                         _______ _______ _______ _____ _____    ______ ____
ROOT
ATOM      1  C   UNL     1       3.742   6.337  18.461  0.00  0.00    +0.000 A 
ATOM      2  C   UNL     1       3.209   6.168  19.732  0.00  0.00    +0.000 A 
ATOM      3  C   UNL     1       2.211   7.006  20.238  0.00  0.00    +0.000 A 
ATOM      4  C   UNL     1       1.802   8.104  19.493  0.00  0.00    +0.000 A 
ATOM      5  C   UNL     1       0.724   8.964  20.005  0.00  0.00    +0.000 A 
ATOM      6  O   UNL     1       0.019   8.602  20.938  0.00  0.00    +0.000 OA
ATOM      7  C   UNL     1       0.560  10.270  19.330  0.00  0.00    +0.000 A 
ATOM      8  C   UNL     1       1.301  10.480  18.227  0.00  0.00    +0.000 A 
ATOM      9  O   UNL     1       2.152   9.573  17.616  0.00  0.00    +0.000 OA
ATOM     10  C   UNL     1       2.426   8.396  18.284  0.00  0.00    +0.000 A 
ATOM     11  C   UNL     1       3.368   7.494  17.740  0.00  0.00    +0.000 A 
ENDROOT
BRANCH   7  12
ATOM     12  C   UNL     1      -0.359  11.298  19.848  0.00  0.00    +0.000 A 
ATOM     13  C   UNL     1      -1.656  11.424  19.324  0.00  0.00    +0.000 A 
ATOM     14  C   UNL     1      -2.529  12.407  19.806  0.00  0.00    +0.000 A 
ATOM     15  C   UNL     1      -2.102  13.263  20.816  0.00  0.00    +0.000 A 
ATOM     16  C   UNL     1      -0.826  13.148  21.353  0.00  0.00    +0.000 A 
ATOM     17  C   UNL     1       0.045  12.167  20.873  0.00  0.00    +0.000 A 
BRANCH  15  18
ATOM     18  O   UNL     1      -2.911  14.243  21.309  0.00  0.00    +0.000 OA
ATOM     19  H   UNL     1      -2.369  15.023  21.511  0.00  0.00    +0.000 HD
ENDBRANCH  15  18
ENDBRANCH   7  12
BRANCH   1  20
ATOM     20  O   UNL     1       4.670   5.457  17.942  0.00  0.00    +0.000 OA
BRANCH  20  21
ATOM     21  C   UNL     1       4.354   4.866  16.650  0.00  0.00    +0.000 C 
BRANCH  21  22
ATOM     22  C   UNL     1       5.452   5.224  15.652  0.00  0.00    +0.000 C 
ATOM     23  O   UNL     1       6.354   6.016  15.864  0.00  0.00    +0.000 OA
BRANCH  22  24
ATOM     24  O   UNL     1       5.252   4.602  14.455  0.00  0.00    +0.000 OA
BRANCH  24  25
ATOM     25  C   UNL     1       6.465   4.176  13.809  0.00  0.00    +0.000 C 
ATOM     26  C   UNL     1       6.073   3.384  12.575  0.00  0.00    +0.000 C 
ENDBRANCH  24  25
ENDBRANCH  22  24
ENDBRANCH  21  22
BRANCH  21  27
ATOM     27  C   UNL     1       4.249   3.327  16.689  0.00  0.00    +0.000 C 
BRANCH  27  28
ATOM     28  C   UNL     1       3.470   2.715  17.861  0.00  0.00    +0.000 C 
BRANCH  28  29
ATOM     29  C   UNL     1       1.988   3.144  17.805  0.00  0.00    +0.000 C 
BRANCH  29  30
ATOM     30  C   UNL     1       1.152   2.466  18.894  0.00  0.00    +0.000 C 
BRANCH  30  32
ATOM     31  C   UNL     1       1.473   2.853  21.356  0.00  0.00    +0.000 C 
ATOM     32  C   UNL     1       0.853   3.396  20.076  0.00  0.00    +0.000 C 
ENDBRANCH  30  32
ENDBRANCH  29  30
ENDBRANCH  28  29
ENDBRANCH  27  28
ENDBRANCH  21  27
ENDBRANCH  20  21
ENDBRANCH   1  20
TORSDOF 12
ENDMDL
MODEL 9
REMARK VINA RESULT:      -7.2      2.011      4.282
REMARK  Name = 
REMARK  14 active torsions:
REMARK  status: ('A' for Active; 'I' for Inactive)
REMARK    1  A    between atoms: C_1  and  C_2
REMARK    2  A    between atoms: C_2  and  C_3
REMARK    3  A    between atoms: C_3  and  C_4
REMARK    4  A    between atoms: C_4  and  C_5
REMARK    5  A    between atoms: C_5  and  C_6
REMARK    6  A    between atoms: C_6  and  C_7
REMARK    7  A    between atoms: C_7  and  O_8
REMARK    8  A    between atoms: C_7  and  C_27
REMARK    9  A    between atoms: O_8  and  C_9
REMARK   10  A    between atoms: C_15  and  C_16
REMARK   11  A    between atoms: C_19  and  O_20
REMARK   12  A    between atoms: C_27  and  O_29
REMARK   13  A    between atoms: O_29  and  C_30
REMARK   14  A    between atoms: C_30  and  C_31
REMARK                            x       y       z     vdW  Elec       q    Type
REMARK                         _______ _______ _______ _____ _____    ______ ____
ROOT
ATOM      1  C   UNL     1       1.974   8.104  19.228  0.00  0.00    +0.000 A 
ATOM      2  C   UNL     1       1.449   9.131  18.456  0.00  0.00    +0.000 A 
ATOM      3  C   UNL     1       0.766  10.212  19.020  0.00  0.00    +0.000 A 
ATOM      4  C   UNL     1       0.513  10.218  20.386  0.00  0.00    +0.000 A 
ATOM      5  C   UNL     1      -0.171  11.373  20.988  0.00  0.00    +0.000 A 
ATOM      6  O   UNL     1      -0.300  12.422  20.371  0.00  0.00    +0.000 OA
ATOM      7  C   UNL     1      -0.684  11.180  22.362  0.00  0.00    +0.000 A 
ATOM      8  C   UNL     1      -0.345  10.033  22.979  0.00  0.00    +0.000 A 
ATOM      9  O   UNL     1       0.492   9.044  22.489  0.00  0.00    +0.000 OA
ATOM     10  C   UNL     1       0.885   9.130  21.168  0.00  0.00    +0.000 A 
ATOM     11  C   UNL     1       1.654   8.087  20.605  0.00  0.00    +0.000 A 
ENDROOT
BRANCH   7  12
ATOM     12  C   UNL     1      -1.536  12.185  23.018  0.00  0.00    +0.000 A 
ATOM     13  C   UNL     1      -1.044  13.474  23.284  0.00  0.00    +0.000 A 
ATOM     14  C   UNL     1      -1.847  14.429  23.917  0.00  0.00    +0.000 A 
ATOM     15  C   UNL     1      -3.147  14.094  24.284  0.00  0.00    +0.000 A 
ATOM     16  C   UNL     1      -3.654  12.828  24.022  0.00  0.00    +0.000 A 
ATOM     17  C   UNL     1      -2.853  11.874  23.389  0.00  0.00    +0.000 A 
BRANCH  15  18
ATOM     18  O   UNL     1      -3.962  14.986  24.913  0.00  0.00    +0.000 OA
ATOM     19  H   UNL     1      -3.463  15.802  25.080  0.00  0.00    +0.000 HD
ENDBRANCH  15  18
ENDBRANCH   7  12
BRANCH   1  20
ATOM     20  O   UNL     1       2.715   7.083  18.668  0.00  0.00    +0.000 OA
BRANCH  20  21
ATOM     21  C   UNL     1       2.862   5.873  19.465  0.00  0.00    +0.000 C 
BRANCH  21  22
ATOM     22  C   UNL     1       1.974   4.776  18.882  0.00  0.00    +0.000 C 
ATOM     23  O   UNL     1       2.078   4.323  17.756  0.00  0.00    +0.000 OA
BRANCH  22  24
ATOM     24  O   UNL     1       0.992   4.420  19.758  0.00  0.00    +0.000 OA
BRANCH  24  25
ATOM     25  C   UNL     1       1.482   3.973  21.033  0.00  0.00    +0.000 C 
ATOM     26  C   UNL     1       1.881   2.515  20.885  0.00  0.00    +0.000 C 
ENDBRANCH  24  25
ENDBRANCH  22  24
ENDBRANCH  21  22
BRANCH  21  27
ATOM     27  C   UNL     1       4.307   5.331  19.494  0.00  0.00    +0.000 C 
BRANCH  27  28
ATOM     28  C   UNL     1       5.229   5.752  18.342  0.00  0.00    +0.000 C 
BRANCH  28  29
ATOM     29  C   UNL     1       6.709   5.566  18.742  0.00  0.00    +0.000 C 
BRANCH  29  30
ATOM     30  C   UNL     1       7.659   6.274  17.772  0.00  0.00    +0.000 C 
BRANCH  30  32
ATOM     31  C   UNL     1       8.165   8.729  17.953  0.00  0.00    +0.000 C 
ATOM     32  C   UNL     1       7.193   7.689  17.412  0.00  0.00    +0.000 C 
ENDBRANCH  30  32
ENDBRANCH  29  30
ENDBRANCH  28  29
ENDBRANCH  27  28
ENDBRANCH  21  27
ENDBRANCH  20  21
ENDBRANCH   1  20
TORSDOF 12
ENDMDL
