MODEL 1
REMARK VINA RESULT:      -7.0      0.000      0.000
REMARK  Name = 
REMARK  8 active torsions:
REMARK  status: ('A' for Active; 'I' for Inactive)
REMARK    1  A    between atoms: C_1  and  O_2
REMARK    2  A    between atoms: O_2  and  C_3
REMARK    3  A    between atoms: C_3  and  C_5
REMARK    4  A    between atoms: N_9  and  S_10
REMARK    5  A    between atoms: S_10  and  C_13
REMARK    6  A    between atoms: C_16  and  N_17
REMARK    7  A    between atoms: N_20  and  C_21
REMARK    8  A    between atoms: C_24  and  O_25
REMARK                            x       y       z     vdW  Elec       q    Type
REMARK                         _______ _______ _______ _____ _____    ______ ____
ROOT
ATOM      1  C   UNL     1      -0.241  12.396  19.650  0.00  0.00    +0.000 A 
ATOM      2  C   UNL     1       1.141  12.451  19.511  0.00  0.00    +0.000 A 
ATOM      3  C   UNL     1       1.817  11.355  18.975  0.00  0.00    +0.000 A 
ATOM      4  C   UNL     1       1.137  10.191  18.590  0.00  0.00    +0.000 A 
ATOM      5  C   UNL     1      -0.235  10.113  18.840  0.00  0.00    +0.000 A 
ATOM      6  C   UNL     1      -0.914  11.199  19.407  0.00  0.00    +0.000 A 
ENDROOT
BRANCH   4   7
ATOM      7  N   UNL     1       1.771   9.104  17.933  0.00  0.00    +0.000 N 
ATOM      8  C   UNL     1       2.283   7.994  18.578  0.00  0.00    +0.000 C 
ATOM      9  O   UNL     1       2.138   7.786  19.777  0.00  0.00    +0.000 OA
ATOM     10  N   UNL     1       2.981   7.143  17.737  0.00  0.00    +0.000 N 
ATOM     11  H   UNL     1       1.694   9.062  16.928  0.00  0.00    +0.000 HD
ATOM     12  H   UNL     1       3.387   7.546  16.906  0.00  0.00    +0.000 HD
BRANCH  10  13
ATOM     13  C   UNL     1       3.466   5.870  18.145  0.00  0.00    +0.000 A 
ATOM     14  C   UNL     1       2.674   4.714  18.083  0.00  0.00    +0.000 A 
ATOM     15  C   UNL     1       3.143   3.482  18.537  0.00  0.00    +0.000 A 
ATOM     16  C   UNL     1       4.433   3.392  19.030  0.00  0.00    +0.000 A 
ATOM     17  C   UNL     1       5.255   4.513  19.069  0.00  0.00    +0.000 A 
ATOM     18  C   UNL     1       4.775   5.755  18.622  0.00  0.00    +0.000 A 
BRANCH  16  19
ATOM     19  O   UNL     1       4.929   2.206  19.481  0.00  0.00    +0.000 OA
ATOM     20  H   UNL     1       5.563   1.872  18.824  0.00  0.00    +0.000 HD
ENDBRANCH  16  19
ENDBRANCH  10  13
ENDBRANCH   4   7
BRANCH   1  21
ATOM     21  S   UNL     1      -1.140  13.857  20.121  0.00  0.00    +0.000 S 
ATOM     22  O   UNL     1      -2.511  13.460  20.364  0.00  0.00    +0.000 OA
ATOM     23  O   UNL     1      -0.821  14.897  19.166  0.00  0.00    +0.000 OA
BRANCH  21  28
ATOM     24  C   UNL     1      -0.634  13.466  22.831  0.00  0.00    +0.000 C 
ATOM     25  C   UNL     1      -1.485  14.362  23.734  0.00  0.00    +0.000 C 
ATOM     26  C   UNL     1      -0.921  15.745  23.477  0.00  0.00    +0.000 C 
ATOM     27  C   UNL     1      -0.503  15.725  22.009  0.00  0.00    +0.000 C 
ATOM     28  N   UNL     1      -0.463  14.293  21.611  0.00  0.00    +0.000 NA
BRANCH  24  29
ATOM     29  C   UNL     1      -1.180  12.055  22.833  0.00  0.00    +0.000 C 
ATOM     30  O   UNL     1      -2.369  11.773  22.927  0.00  0.00    +0.000 OA
BRANCH  29  32
ATOM     31  C   UNL     1      -0.541   9.784  23.083  0.00  0.00    +0.000 C 
ATOM     32  O   UNL     1      -0.170  11.142  22.823  0.00  0.00    +0.000 OA
ENDBRANCH  29  32
ENDBRANCH  24  29
ENDBRANCH  21  28
ENDBRANCH   1  21
TORSDOF 7
ENDMDL
MODEL 2
REMARK VINA RESULT:      -7.0      3.931      9.807
REMARK  Name = 
REMARK  8 active torsions:
REMARK  status: ('A' for Active; 'I' for Inactive)
REMARK    1  A    between atoms: C_1  and  O_2
REMARK    2  A    between atoms: O_2  and  C_3
REMARK    3  A    between atoms: C_3  and  C_5
REMARK    4  A    between atoms: N_9  and  S_10
REMARK    5  A    between atoms: S_10  and  C_13
REMARK    6  A    between atoms: C_16  and  N_17
REMARK    7  A    between atoms: N_20  and  C_21
REMARK    8  A    between atoms: C_24  and  O_25
REMARK                            x       y       z     vdW  Elec       q    Type
REMARK                         _______ _______ _______ _____ _____    ______ ____
ROOT
ATOM      1  C   UNL     1       2.601   7.001  19.009  0.00  0.00    +0.000 A 
ATOM      2  C   UNL     1       2.063   7.417  20.221  0.00  0.00    +0.000 A 
ATOM      3  C   UNL     1       1.286   8.575  20.260  0.00  0.00    +0.000 A 
ATOM      4  C   UNL     1       1.052   9.341  19.109  0.00  0.00    +0.000 A 
ATOM      5  C   UNL     1       1.693   8.967  17.924  0.00  0.00    +0.000 A 
ATOM      6  C   UNL     1       2.498   7.822  17.887  0.00  0.00    +0.000 A 
ENDROOT
BRANCH   4   7
ATOM      7  N   UNL     1       0.174  10.455  19.085  0.00  0.00    +0.000 N 
ATOM      8  C   UNL     1      -1.160  10.390  18.728  0.00  0.00    +0.000 C 
ATOM      9  O   UNL     1      -1.746   9.338  18.503  0.00  0.00    +0.000 OA
ATOM     10  N   UNL     1      -1.767  11.632  18.643  0.00  0.00    +0.000 N 
ATOM     11  H   UNL     1       0.498  11.310  19.514  0.00  0.00    +0.000 HD
ATOM     12  H   UNL     1      -1.172  12.425  18.450  0.00  0.00    +0.000 HD
BRANCH  10  13
ATOM     13  C   UNL     1      -3.163  11.804  18.439  0.00  0.00    +0.000 A 
ATOM     14  C   UNL     1      -3.774  11.549  17.201  0.00  0.00    +0.000 A 
ATOM     15  C   UNL     1      -5.136  11.775  16.999  0.00  0.00    +0.000 A 
ATOM     16  C   UNL     1      -5.908  12.228  18.054  0.00  0.00    +0.000 A 
ATOM     17  C   UNL     1      -5.338  12.453  19.303  0.00  0.00    +0.000 A 
ATOM     18  C   UNL     1      -3.965  12.237  19.499  0.00  0.00    +0.000 A 
BRANCH  16  19
ATOM     19  O   UNL     1      -7.242  12.458  17.896  0.00  0.00    +0.000 OA
ATOM     20  H   UNL     1      -7.576  12.874  18.709  0.00  0.00    +0.000 HD
ENDBRANCH  16  19
ENDBRANCH  10  13
ENDBRANCH   4   7
BRANCH   1  21
ATOM     21  S   UNL     1       3.403   5.416  18.896  0.00  0.00    +0.000 S 
ATOM     22  O   UNL     1       4.764   5.588  19.358  0.00  0.00    +0.000 OA
ATOM     23  O   UNL     1       3.121   4.873  17.585  0.00  0.00    +0.000 OA
BRANCH  21  28
ATOM     24  C   UNL     1       2.882   3.020  20.215  0.00  0.00    +0.000 C 
ATOM     25  C   UNL     1       1.584   2.353  19.754  0.00  0.00    +0.000 C 
ATOM     26  C   UNL     1       0.511   3.279  20.290  0.00  0.00    +0.000 C 
ATOM     27  C   UNL     1       1.130   4.673  20.215  0.00  0.00    +0.000 C 
ATOM     28  N   UNL     1       2.592   4.465  20.039  0.00  0.00    +0.000 NA
BRANCH  24  29
ATOM     29  C   UNL     1       4.075   2.312  19.613  0.00  0.00    +0.000 C 
ATOM     30  O   UNL     1       4.084   1.792  18.503  0.00  0.00    +0.000 OA
BRANCH  29  32
ATOM     31  C   UNL     1       5.348   0.948  21.079  0.00  0.00    +0.000 C 
ATOM     32  O   UNL     1       5.099   2.237  20.508  0.00  0.00    +0.000 OA
ENDBRANCH  29  32
ENDBRANCH  24  29
ENDBRANCH  21  28
ENDBRANCH   1  21
TORSDOF 7
ENDMDL
MODEL 3
REMARK VINA RESULT:      -6.9      3.357     10.150
REMARK  Name = 
REMARK  8 active torsions:
REMARK  status: ('A' for Active; 'I' for Inactive)
REMARK    1  A    between atoms: C_1  and  O_2
REMARK    2  A    between atoms: O_2  and  C_3
REMARK    3  A    between atoms: C_3  and  C_5
REMARK    4  A    between atoms: N_9  and  S_10
REMARK    5  A    between atoms: S_10  and  C_13
REMARK    6  A    between atoms: C_16  and  N_17
REMARK    7  A    between atoms: N_20  and  C_21
REMARK    8  A    between atoms: C_24  and  O_25
REMARK                            x       y       z     vdW  Elec       q    Type
REMARK                         _______ _______ _______ _____ _____    ______ ____
ROOT
ATOM      1  C   UNL     1       3.005   6.547  18.656  0.00  0.00    +0.000 A 
ATOM      2  C   UNL     1       2.805   7.501  17.665  0.00  0.00    +0.000 A 
ATOM      3  C   UNL     1       2.151   8.690  17.985  0.00  0.00    +0.000 A 
ATOM      4  C   UNL     1       1.671   8.938  19.280  0.00  0.00    +0.000 A 
ATOM      5  C   UNL     1       1.783   7.922  20.233  0.00  0.00    +0.000 A 
ATOM      6  C   UNL     1       2.413   6.714  19.907  0.00  0.00    +0.000 A 
ENDROOT
BRANCH   4   7
ATOM      7  N   UNL     1       1.107  10.179  19.673  0.00  0.00    +0.000 N 
ATOM      8  C   UNL     1      -0.111  10.316  20.312  0.00  0.00    +0.000 C 
ATOM      9  O   UNL     1      -0.776   9.364  20.703  0.00  0.00    +0.000 OA
ATOM     10  N   UNL     1      -0.509  11.634  20.460  0.00  0.00    +0.000 N 
ATOM     11  H   UNL     1       1.705  10.992  19.636  0.00  0.00    +0.000 HD
ATOM     12  H   UNL     1      -0.144  12.304  19.799  0.00  0.00    +0.000 HD
BRANCH  10  13
ATOM     13  C   UNL     1      -1.650  12.023  21.214  0.00  0.00    +0.000 A 
ATOM     14  C   UNL     1      -1.691  11.920  22.613  0.00  0.00    +0.000 A 
ATOM     15  C   UNL     1      -2.836  12.254  23.336  0.00  0.00    +0.000 A 
ATOM     16  C   UNL     1      -3.946  12.729  22.660  0.00  0.00    +0.000 A 
ATOM     17  C   UNL     1      -3.922  12.878  21.277  0.00  0.00    +0.000 A 
ATOM     18  C   UNL     1      -2.772  12.529  20.551  0.00  0.00    +0.000 A 
BRANCH  16  19
ATOM     19  O   UNL     1      -5.082  13.067  23.331  0.00  0.00    +0.000 OA
ATOM     20  H   UNL     1      -5.649  12.279  23.385  0.00  0.00    +0.000 HD
ENDBRANCH  16  19
ENDBRANCH  10  13
ENDBRANCH   4   7
BRANCH   1  21
ATOM     21  S   UNL     1       4.028   5.129  18.324  0.00  0.00    +0.000 S 
ATOM     22  O   UNL     1       3.717   4.677  16.984  0.00  0.00    +0.000 OA
ATOM     23  O   UNL     1       3.923   4.236  19.458  0.00  0.00    +0.000 OA
BRANCH  21  28
ATOM     24  C   UNL     1       6.424   5.781  17.065  0.00  0.00    +0.000 C 
ATOM     25  C   UNL     1       7.556   4.803  17.390  0.00  0.00    +0.000 C 
ATOM     26  C   UNL     1       7.848   5.088  18.850  0.00  0.00    +0.000 C 
ATOM     27  C   UNL     1       6.494   5.458  19.450  0.00  0.00    +0.000 C 
ATOM     28  N   UNL     1       5.601   5.756  18.299  0.00  0.00    +0.000 NA
BRANCH  24  29
ATOM     29  C   UNL     1       5.886   5.511  15.678  0.00  0.00    +0.000 C 
ATOM     30  O   UNL     1       5.228   6.312  15.022  0.00  0.00    +0.000 OA
BRANCH  29  32
ATOM     31  C   UNL     1       6.021   3.946  13.899  0.00  0.00    +0.000 C 
ATOM     32  O   UNL     1       6.138   4.228  15.298  0.00  0.00    +0.000 OA
ENDBRANCH  29  32
ENDBRANCH  24  29
ENDBRANCH  21  28
ENDBRANCH   1  21
TORSDOF 7
ENDMDL
MODEL 4
REMARK VINA RESULT:      -6.8      3.836      9.889
REMARK  Name = 
REMARK  8 active torsions:
REMARK  status: ('A' for Active; 'I' for Inactive)
REMARK    1  A    between atoms: C_1  and  O_2
REMARK    2  A    between atoms: O_2  and  C_3
REMARK    3  A    between atoms: C_3  and  C_5
REMARK    4  A    between atoms: N_9  and  S_10
REMARK    5  A    between atoms: S_10  and  C_13
REMARK    6  A    between atoms: C_16  and  N_17
REMARK    7  A    between atoms: N_20  and  C_21
REMARK    8  A    between atoms: C_24  and  O_25
REMARK                            x       y       z     vdW  Elec       q    Type
REMARK                         _______ _______ _______ _____ _____    ______ ____
ROOT
ATOM      1  C   UNL     1       2.618   7.284  19.122  0.00  0.00    +0.000 A 
ATOM      2  C   UNL     1       1.946   7.702  20.265  0.00  0.00    +0.000 A 
ATOM      3  C   UNL     1       1.139   8.838  20.204  0.00  0.00    +0.000 A 
ATOM      4  C   UNL     1       1.004   9.580  19.021  0.00  0.00    +0.000 A 
ATOM      5  C   UNL     1       1.773   9.207  17.916  0.00  0.00    +0.000 A 
ATOM      6  C   UNL     1       2.609   8.085  17.981  0.00  0.00    +0.000 A 
ENDROOT
BRANCH   4   7
ATOM      7  N   UNL     1       0.104  10.668  18.888  0.00  0.00    +0.000 N 
ATOM      8  C   UNL     1      -1.254  10.535  18.664  0.00  0.00    +0.000 C 
ATOM      9  O   UNL     1      -1.834   9.455  18.669  0.00  0.00    +0.000 OA
ATOM     10  N   UNL     1      -1.893  11.740  18.425  0.00  0.00    +0.000 N 
ATOM     11  H   UNL     1       0.444  11.584  19.138  0.00  0.00    +0.000 HD
ATOM     12  H   UNL     1      -1.334  12.493  18.052  0.00  0.00    +0.000 HD
BRANCH  10  13
ATOM     13  C   UNL     1      -3.304  11.865  18.316  0.00  0.00    +0.000 A 
ATOM     14  C   UNL     1      -3.989  11.592  17.122  0.00  0.00    +0.000 A 
ATOM     15  C   UNL     1      -5.368  11.772  17.013  0.00  0.00    +0.000 A 
ATOM     16  C   UNL     1      -6.082  12.197  18.119  0.00  0.00    +0.000 A 
ATOM     17  C   UNL     1      -5.436  12.439  19.328  0.00  0.00    +0.000 A 
ATOM     18  C   UNL     1      -4.046  12.269  19.430  0.00  0.00    +0.000 A 
BRANCH  16  19
ATOM     19  O   UNL     1      -7.430  12.382  18.054  0.00  0.00    +0.000 OA
ATOM     20  H   UNL     1      -7.736  12.693  18.922  0.00  0.00    +0.000 HD
ENDBRANCH  16  19
ENDBRANCH  10  13
ENDBRANCH   4   7
BRANCH   1  21
ATOM     21  S   UNL     1       3.470   5.721  19.120  0.00  0.00    +0.000 S 
ATOM     22  O   UNL     1       2.586   4.748  19.726  0.00  0.00    +0.000 OA
ATOM     23  O   UNL     1       4.802   5.946  19.639  0.00  0.00    +0.000 OA
BRANCH  21  28
ATOM     24  C   UNL     1       3.391   3.956  16.969  0.00  0.00    +0.000 C 
ATOM     25  C   UNL     1       4.782   3.549  16.477  0.00  0.00    +0.000 C 
ATOM     26  C   UNL     1       5.313   4.825  15.854  0.00  0.00    +0.000 C 
ATOM     27  C   UNL     1       4.720   5.946  16.703  0.00  0.00    +0.000 C 
ATOM     28  N   UNL     1       3.609   5.332  17.478  0.00  0.00    +0.000 NA
BRANCH  24  29
ATOM     29  C   UNL     1       2.777   2.836  17.780  0.00  0.00    +0.000 C 
ATOM     30  O   UNL     1       3.414   1.925  18.295  0.00  0.00    +0.000 OA
BRANCH  29  32
ATOM     31  C   UNL     1       0.733   2.184  18.792  0.00  0.00    +0.000 C 
ATOM     32  O   UNL     1       1.418   2.918  17.771  0.00  0.00    +0.000 OA
ENDBRANCH  29  32
ENDBRANCH  24  29
ENDBRANCH  21  28
ENDBRANCH   1  21
TORSDOF 7
ENDMDL
MODEL 5
REMARK VINA RESULT:      -6.8      2.960      9.935
REMARK  Name = 
REMARK  8 active torsions:
REMARK  status: ('A' for Active; 'I' for Inactive)
REMARK    1  A    between atoms: C_1  and  O_2
REMARK    2  A    between atoms: O_2  and  C_3
REMARK    3  A    between atoms: C_3  and  C_5
REMARK    4  A    between atoms: N_9  and  S_10
REMARK    5  A    between atoms: S_10  and  C_13
REMARK    6  A    between atoms: C_16  and  N_17
REMARK    7  A    between atoms: N_20  and  C_21
REMARK    8  A    between atoms: C_24  and  O_25
REMARK                            x       y       z     vdW  Elec       q    Type
REMARK                         _______ _______ _______ _____ _____    ______ ____
ROOT
ATOM      1  C   UNL     1       2.461   7.129  19.378  0.00  0.00    +0.000 A 
ATOM      2  C   UNL     1       1.961   7.321  20.661  0.00  0.00    +0.000 A 
ATOM      3  C   UNL     1       1.158   8.432  20.921  0.00  0.00    +0.000 A 
ATOM      4  C   UNL     1       0.861   9.371  19.923  0.00  0.00    +0.000 A 
ATOM      5  C   UNL     1       1.463   9.220  18.671  0.00  0.00    +0.000 A 
ATOM      6  C   UNL     1       2.294   8.123  18.414  0.00  0.00    +0.000 A 
ENDROOT
BRANCH   4   7
ATOM      7  N   UNL     1      -0.044  10.447  20.116  0.00  0.00    +0.000 N 
ATOM      8  C   UNL     1      -0.442  10.920  21.353  0.00  0.00    +0.000 C 
ATOM      9  O   UNL     1       0.038  10.526  22.409  0.00  0.00    +0.000 OA
ATOM     10  N   UNL     1      -1.440  11.877  21.281  0.00  0.00    +0.000 N 
ATOM     11  H   UNL     1      -0.280  11.005  19.309  0.00  0.00    +0.000 HD
ATOM     12  H   UNL     1      -2.038  11.860  20.468  0.00  0.00    +0.000 HD
BRANCH  10  13
ATOM     13  C   UNL     1      -1.900  12.609  22.409  0.00  0.00    +0.000 A 
ATOM     14  C   UNL     1      -3.114  12.314  23.047  0.00  0.00    +0.000 A 
ATOM     15  C   UNL     1      -3.579  13.076  24.118  0.00  0.00    +0.000 A 
ATOM     16  C   UNL     1      -2.809  14.127  24.584  0.00  0.00    +0.000 A 
ATOM     17  C   UNL     1      -1.583  14.420  23.996  0.00  0.00    +0.000 A 
ATOM     18  C   UNL     1      -1.123  13.659  22.909  0.00  0.00    +0.000 A 
BRANCH  16  19
ATOM     19  O   UNL     1      -3.229  14.893  25.630  0.00  0.00    +0.000 OA
ATOM     20  H   UNL     1      -3.640  14.308  26.289  0.00  0.00    +0.000 HD
ENDBRANCH  16  19
ENDBRANCH  10  13
ENDBRANCH   4   7
BRANCH   1  21
ATOM     21  S   UNL     1       3.296   5.611  18.974  0.00  0.00    +0.000 S 
ATOM     22  O   UNL     1       4.683   5.764  19.363  0.00  0.00    +0.000 OA
ATOM     23  O   UNL     1       2.935   5.258  17.618  0.00  0.00    +0.000 OA
BRANCH  21  28
ATOM     24  C   UNL     1       2.910   3.022  19.923  0.00  0.00    +0.000 C 
ATOM     25  C   UNL     1       1.578   2.413  19.476  0.00  0.00    +0.000 C 
ATOM     26  C   UNL     1       0.554   3.219  20.250  0.00  0.00    +0.000 C 
ATOM     27  C   UNL     1       1.157   4.617  20.350  0.00  0.00    +0.000 C 
ATOM     28  N   UNL     1       2.598   4.470  20.012  0.00  0.00    +0.000 NA
BRANCH  24  29
ATOM     29  C   UNL     1       4.046   2.445  19.109  0.00  0.00    +0.000 C 
ATOM     30  O   UNL     1       3.968   2.152  17.921  0.00  0.00    +0.000 OA
BRANCH  29  32
ATOM     31  C   UNL     1       4.877   1.511  21.126  0.00  0.00    +0.000 C 
ATOM     32  O   UNL     1       5.130   2.197  19.895  0.00  0.00    +0.000 OA
ENDBRANCH  29  32
ENDBRANCH  24  29
ENDBRANCH  21  28
ENDBRANCH   1  21
TORSDOF 7
ENDMDL
MODEL 6
REMARK VINA RESULT:      -6.8      1.939      2.950
REMARK  Name = 
REMARK  8 active torsions:
REMARK  status: ('A' for Active; 'I' for Inactive)
REMARK    1  A    between atoms: C_1  and  O_2
REMARK    2  A    between atoms: O_2  and  C_3
REMARK    3  A    between atoms: C_3  and  C_5
REMARK    4  A    between atoms: N_9  and  S_10
REMARK    5  A    between atoms: S_10  and  C_13
REMARK    6  A    between atoms: C_16  and  N_17
REMARK    7  A    between atoms: N_20  and  C_21
REMARK    8  A    between atoms: C_24  and  O_25
REMARK                            x       y       z     vdW  Elec       q    Type
REMARK                         _______ _______ _______ _____ _____    ______ ____
ROOT
ATOM      1  C   UNL     1      -0.879  11.029  21.795  0.00  0.00    +0.000 A 
ATOM      2  C   UNL     1      -0.476  10.671  20.513  0.00  0.00    +0.000 A 
ATOM      3  C   UNL     1       0.329   9.545  20.341  0.00  0.00    +0.000 A 
ATOM      4  C   UNL     1       0.758   8.776  21.433  0.00  0.00    +0.000 A 
ATOM      5  C   UNL     1       0.434   9.215  22.720  0.00  0.00    +0.000 A 
ATOM      6  C   UNL     1      -0.349  10.362  22.899  0.00  0.00    +0.000 A 
ENDROOT
BRANCH   4   7
ATOM      7  N   UNL     1       1.477   7.561  21.291  0.00  0.00    +0.000 N 
ATOM      8  C   UNL     1       2.126   7.169  20.135  0.00  0.00    +0.000 C 
ATOM      9  O   UNL     1       2.238   7.889  19.149  0.00  0.00    +0.000 OA
ATOM     10  N   UNL     1       2.631   5.881  20.197  0.00  0.00    +0.000 N 
ATOM     11  H   UNL     1       1.668   7.034  22.130  0.00  0.00    +0.000 HD
ATOM     12  H   UNL     1       2.182   5.240  20.834  0.00  0.00    +0.000 HD
BRANCH  10  13
ATOM     13  C   UNL     1       3.460   5.320  19.189  0.00  0.00    +0.000 A 
ATOM     14  C   UNL     1       2.932   4.654  18.072  0.00  0.00    +0.000 A 
ATOM     15  C   UNL     1       3.758   4.060  17.118  0.00  0.00    +0.000 A 
ATOM     16  C   UNL     1       5.131   4.159  17.259  0.00  0.00    +0.000 A 
ATOM     17  C   UNL     1       5.684   4.846  18.336  0.00  0.00    +0.000 A 
ATOM     18  C   UNL     1       4.850   5.432  19.301  0.00  0.00    +0.000 A 
BRANCH  16  19
ATOM     19  O   UNL     1       5.971   3.594  16.347  0.00  0.00    +0.000 OA
ATOM     20  H   UNL     1       6.452   4.308  15.895  0.00  0.00    +0.000 HD
ENDBRANCH  16  19
ENDBRANCH  10  13
ENDBRANCH   4   7
BRANCH   1  21
ATOM     21  S   UNL     1      -2.082  12.322  22.013  0.00  0.00    +0.000 S 
ATOM     22  O   UNL     1      -3.014  11.878  23.028  0.00  0.00    +0.000 OA
ATOM     23  O   UNL     1      -2.541  12.721  20.700  0.00  0.00    +0.000 OA
BRANCH  21  28
ATOM     24  C   UNL     1      -1.826  14.876  23.090  0.00  0.00    +0.000 C 
ATOM     25  C   UNL     1      -1.259  15.892  22.095  0.00  0.00    +0.000 C 
ATOM     26  C   UNL     1       0.179  15.445  21.929  0.00  0.00    +0.000 C 
ATOM     27  C   UNL     1       0.129  13.924  22.056  0.00  0.00    +0.000 C 
ATOM     28  N   UNL     1      -1.190  13.605  22.665  0.00  0.00    +0.000 NA
BRANCH  24  29
ATOM     29  C   UNL     1      -3.318  15.072  23.242  0.00  0.00    +0.000 C 
ATOM     30  O   UNL     1      -4.088  15.273  22.310  0.00  0.00    +0.000 OA
BRANCH  29  32
ATOM     31  C   UNL     1      -2.601  15.139  25.503  0.00  0.00    +0.000 C 
ATOM     32  O   UNL     1      -3.674  15.100  24.556  0.00  0.00    +0.000 OA
ENDBRANCH  29  32
ENDBRANCH  24  29
ENDBRANCH  21  28
ENDBRANCH   1  21
TORSDOF 7
ENDMDL
MODEL 7
REMARK VINA RESULT:      -6.8      3.955      9.583
REMARK  Name = 
REMARK  8 active torsions:
REMARK  status: ('A' for Active; 'I' for Inactive)
REMARK    1  A    between atoms: C_1  and  O_2
REMARK    2  A    between atoms: O_2  and  C_3
REMARK    3  A    between atoms: C_3  and  C_5
REMARK    4  A    between atoms: N_9  and  S_10
REMARK    5  A    between atoms: S_10  and  C_13
REMARK    6  A    between atoms: C_16  and  N_17
REMARK    7  A    between atoms: N_20  and  C_21
REMARK    8  A    between atoms: C_24  and  O_25
REMARK                            x       y       z     vdW  Elec       q    Type
REMARK                         _______ _______ _______ _____ _____    ______ ____
ROOT
ATOM      1  C   UNL     1       2.686   7.170  19.087  0.00  0.00    +0.000 A 
ATOM      2  C   UNL     1       2.032   7.633  20.223  0.00  0.00    +0.000 A 
ATOM      3  C   UNL     1       1.233   8.772  20.134  0.00  0.00    +0.000 A 
ATOM      4  C   UNL     1       1.089   9.475  18.928  0.00  0.00    +0.000 A 
ATOM      5  C   UNL     1       1.842   9.059  17.827  0.00  0.00    +0.000 A 
ATOM      6  C   UNL     1       2.669   7.933  17.920  0.00  0.00    +0.000 A 
ENDROOT
BRANCH   4   7
ATOM      7  N   UNL     1       0.196  10.566  18.769  0.00  0.00    +0.000 N 
ATOM      8  C   UNL     1      -1.166  10.436  18.570  0.00  0.00    +0.000 C 
ATOM      9  O   UNL     1      -1.755   9.363  18.622  0.00  0.00    +0.000 OA
ATOM     10  N   UNL     1      -1.798  11.638  18.297  0.00  0.00    +0.000 N 
ATOM     11  H   UNL     1       0.547  11.488  18.982  0.00  0.00    +0.000 HD
ATOM     12  H   UNL     1      -1.238  12.372  17.890  0.00  0.00    +0.000 HD
BRANCH  10  13
ATOM     13  C   UNL     1      -3.210  11.771  18.205  0.00  0.00    +0.000 A 
ATOM     14  C   UNL     1      -3.910  11.503  17.019  0.00  0.00    +0.000 A 
ATOM     15  C   UNL     1      -5.289  11.691  16.926  0.00  0.00    +0.000 A 
ATOM     16  C   UNL     1      -5.988  12.120  18.040  0.00  0.00    +0.000 A 
ATOM     17  C   UNL     1      -5.327  12.358  19.241  0.00  0.00    +0.000 A 
ATOM     18  C   UNL     1      -3.937  12.180  19.327  0.00  0.00    +0.000 A 
BRANCH  16  19
ATOM     19  O   UNL     1      -7.335  12.313  17.989  0.00  0.00    +0.000 OA
ATOM     20  H   UNL     1      -7.650  12.492  18.892  0.00  0.00    +0.000 HD
ENDBRANCH  16  19
ENDBRANCH  10  13
ENDBRANCH   4   7
BRANCH   1  21
ATOM     21  S   UNL     1       3.525   5.602  19.128  0.00  0.00    +0.000 S 
ATOM     22  O   UNL     1       3.348   5.052  20.455  0.00  0.00    +0.000 OA
ATOM     23  O   UNL     1       4.846   5.795  18.569  0.00  0.00    +0.000 OA
BRANCH  21  28
ATOM     24  C   UNL     1       1.585   3.702  18.514  0.00  0.00    +0.000 C 
ATOM     25  C   UNL     1       2.175   2.329  18.182  0.00  0.00    +0.000 C 
ATOM     26  C   UNL     1       2.860   2.562  16.850  0.00  0.00    +0.000 C 
ATOM     27  C   UNL     1       3.367   4.000  16.921  0.00  0.00    +0.000 C 
ATOM     28  N   UNL     1       2.641   4.636  18.053  0.00  0.00    +0.000 NA
BRANCH  24  29
ATOM     29  C   UNL     1       1.004   3.696  19.910  0.00  0.00    +0.000 C 
ATOM     30  O   UNL     1       0.465   4.660  20.440  0.00  0.00    +0.000 OA
BRANCH  29  32
ATOM     31  C   UNL     1       1.674   2.595  21.903  0.00  0.00    +0.000 C 
ATOM     32  O   UNL     1       1.254   2.512  20.536  0.00  0.00    +0.000 OA
ENDBRANCH  29  32
ENDBRANCH  24  29
ENDBRANCH  21  28
ENDBRANCH   1  21
TORSDOF 7
ENDMDL
MODEL 8
REMARK VINA RESULT:      -6.8      3.276     10.231
REMARK  Name = 
REMARK  8 active torsions:
REMARK  status: ('A' for Active; 'I' for Inactive)
REMARK    1  A    between atoms: C_1  and  O_2
REMARK    2  A    between atoms: O_2  and  C_3
REMARK    3  A    between atoms: C_3  and  C_5
REMARK    4  A    between atoms: N_9  and  S_10
REMARK    5  A    between atoms: S_10  and  C_13
REMARK    6  A    between atoms: C_16  and  N_17
REMARK    7  A    between atoms: N_20  and  C_21
REMARK    8  A    between atoms: C_24  and  O_25
REMARK                            x       y       z     vdW  Elec       q    Type
REMARK                         _______ _______ _______ _____ _____    ______ ____
ROOT
ATOM      1  C   UNL     1       3.146   6.651  18.730  0.00  0.00    +0.000 A 
ATOM      2  C   UNL     1       2.507   6.701  19.964  0.00  0.00    +0.000 A 
ATOM      3  C   UNL     1       1.633   7.753  20.238  0.00  0.00    +0.000 A 
ATOM      4  C   UNL     1       1.398   8.773  19.305  0.00  0.00    +0.000 A 
ATOM      5  C   UNL     1       2.133   8.765  18.116  0.00  0.00    +0.000 A 
ATOM      6  C   UNL     1       3.034   7.727  17.849  0.00  0.00    +0.000 A 
ENDROOT
BRANCH   4   7
ATOM      7  N   UNL     1       0.431   9.793  19.498  0.00  0.00    +0.000 N 
ATOM      8  C   UNL     1       0.315  10.551  20.648  0.00  0.00    +0.000 C 
ATOM      9  O   UNL     1       1.114  10.492  21.576  0.00  0.00    +0.000 OA
ATOM     10  N   UNL     1      -0.795  11.379  20.653  0.00  0.00    +0.000 N 
ATOM     11  H   UNL     1      -0.092  10.096  18.690  0.00  0.00    +0.000 HD
ATOM     12  H   UNL     1      -1.580  11.101  20.082  0.00  0.00    +0.000 HD
BRANCH  10  13
ATOM     13  C   UNL     1      -1.037  12.352  21.659  0.00  0.00    +0.000 A 
ATOM     14  C   UNL     1      -0.276  13.527  21.761  0.00  0.00    +0.000 A 
ATOM     15  C   UNL     1      -0.488  14.448  22.787  0.00  0.00    +0.000 A 
ATOM     16  C   UNL     1      -1.495  14.213  23.706  0.00  0.00    +0.000 A 
ATOM     17  C   UNL     1      -2.291  13.076  23.609  0.00  0.00    +0.000 A 
ATOM     18  C   UNL     1      -2.067  12.145  22.582  0.00  0.00    +0.000 A 
BRANCH  16  19
ATOM     19  O   UNL     1      -1.735  15.090  24.721  0.00  0.00    +0.000 OA
ATOM     20  H   UNL     1      -2.657  15.390  24.652  0.00  0.00    +0.000 HD
ENDBRANCH  16  19
ENDBRANCH  10  13
ENDBRANCH   4   7
BRANCH   1  21
ATOM     21  S   UNL     1       4.085   5.209  18.279  0.00  0.00    +0.000 S 
ATOM     22  O   UNL     1       3.705   4.851  16.929  0.00  0.00    +0.000 OA
ATOM     23  O   UNL     1       3.976   4.257  19.364  0.00  0.00    +0.000 OA
BRANCH  21  28
ATOM     24  C   UNL     1       6.494   5.735  16.986  0.00  0.00    +0.000 C 
ATOM     25  C   UNL     1       7.583   4.709  17.309  0.00  0.00    +0.000 C 
ATOM     26  C   UNL     1       7.905   4.993  18.762  0.00  0.00    +0.000 C 
ATOM     27  C   UNL     1       6.577   5.432  19.374  0.00  0.00    +0.000 C 
ATOM     28  N   UNL     1       5.685   5.761  18.230  0.00  0.00    +0.000 NA
BRANCH  24  29
ATOM     29  C   UNL     1       5.927   5.478  15.608  0.00  0.00    +0.000 C 
ATOM     30  O   UNL     1       5.298   6.302  14.953  0.00  0.00    +0.000 OA
BRANCH  29  32
ATOM     31  C   UNL     1       6.057   3.909  13.833  0.00  0.00    +0.000 C 
ATOM     32  O   UNL     1       6.117   4.181  15.237  0.00  0.00    +0.000 OA
ENDBRANCH  29  32
ENDBRANCH  24  29
ENDBRANCH  21  28
ENDBRANCH   1  21
TORSDOF 7
ENDMDL
MODEL 9
REMARK VINA RESULT:      -6.7      3.875      9.940
REMARK  Name = 
REMARK  8 active torsions:
REMARK  status: ('A' for Active; 'I' for Inactive)
REMARK    1  A    between atoms: C_1  and  O_2
REMARK    2  A    between atoms: O_2  and  C_3
REMARK    3  A    between atoms: C_3  and  C_5
REMARK    4  A    between atoms: N_9  and  S_10
REMARK    5  A    between atoms: S_10  and  C_13
REMARK    6  A    between atoms: C_16  and  N_17
REMARK    7  A    between atoms: N_20  and  C_21
REMARK    8  A    between atoms: C_24  and  O_25
REMARK                            x       y       z     vdW  Elec       q    Type
REMARK                         _______ _______ _______ _____ _____    ______ ____
ROOT
ATOM      1  C   UNL     1       2.561   7.092  19.296  0.00  0.00    +0.000 A 
ATOM      2  C   UNL     1       2.001   7.441  20.520  0.00  0.00    +0.000 A 
ATOM      3  C   UNL     1       1.190   8.573  20.600  0.00  0.00    +0.000 A 
ATOM      4  C   UNL     1       0.944   9.380  19.480  0.00  0.00    +0.000 A 
ATOM      5  C   UNL     1       1.606   9.076  18.287  0.00  0.00    +0.000 A 
ATOM      6  C   UNL     1       2.444   7.957  18.209  0.00  0.00    +0.000 A 
ENDROOT
BRANCH   4   7
ATOM      7  N   UNL     1       0.035  10.469  19.494  0.00  0.00    +0.000 N 
ATOM      8  C   UNL     1      -1.224  10.442  18.924  0.00  0.00    +0.000 C 
ATOM      9  O   UNL     1      -1.724   9.432  18.444  0.00  0.00    +0.000 OA
ATOM     10  N   UNL     1      -1.862  11.671  18.942  0.00  0.00    +0.000 N 
ATOM     11  H   UNL     1       0.253  11.247  20.099  0.00  0.00    +0.000 HD
ATOM     12  H   UNL     1      -1.279  12.494  18.975  0.00  0.00    +0.000 HD
BRANCH  10  13
ATOM     13  C   UNL     1      -3.216  11.852  18.548  0.00  0.00    +0.000 A 
ATOM     14  C   UNL     1      -4.191  12.345  19.428  0.00  0.00    +0.000 A 
ATOM     15  C   UNL     1      -5.527  12.465  19.045  0.00  0.00    +0.000 A 
ATOM     16  C   UNL     1      -5.892  12.121  17.756  0.00  0.00    +0.000 A 
ATOM     17  C   UNL     1      -4.941  11.665  16.849  0.00  0.00    +0.000 A 
ATOM     18  C   UNL     1      -3.600  11.533  17.241  0.00  0.00    +0.000 A 
BRANCH  16  19
ATOM     19  O   UNL     1      -7.187  12.227  17.343  0.00  0.00    +0.000 OA
ATOM     20  H   UNL     1      -7.747  12.346  18.129  0.00  0.00    +0.000 HD
ENDBRANCH  16  19
ENDBRANCH  10  13
ENDBRANCH   4   7
BRANCH   1  21
ATOM     21  S   UNL     1       3.409   5.537  19.125  0.00  0.00    +0.000 S 
ATOM     22  O   UNL     1       2.477   4.494  19.498  0.00  0.00    +0.000 OA
ATOM     23  O   UNL     1       4.693   5.662  19.781  0.00  0.00    +0.000 OA
BRANCH  21  28
ATOM     24  C   UNL     1       3.616   4.102  16.748  0.00  0.00    +0.000 C 
ATOM     25  C   UNL     1       5.065   3.874  16.311  0.00  0.00    +0.000 C 
ATOM     26  C   UNL     1       5.528   5.261  15.915  0.00  0.00    +0.000 C 
ATOM     27  C   UNL     1       4.791   6.201  16.865  0.00  0.00    +0.000 C 
ATOM     28  N   UNL     1       3.686   5.402  17.460  0.00  0.00    +0.000 NA
BRANCH  24  29
ATOM     29  C   UNL     1       3.046   2.835  17.345  0.00  0.00    +0.000 C 
ATOM     30  O   UNL     1       1.848   2.598  17.451  0.00  0.00    +0.000 OA
BRANCH  29  32
ATOM     31  C   UNL     1       3.765   1.403  19.094  0.00  0.00    +0.000 C 
ATOM     32  O   UNL     1       4.036   2.043  17.842  0.00  0.00    +0.000 OA
ENDBRANCH  29  32
ENDBRANCH  24  29
ENDBRANCH  21  28
ENDBRANCH   1  21
TORSDOF 7
ENDMDL
