MODEL 1
REMARK VINA RESULT:      -7.6      0.000      0.000
REMARK  Name = 
REMARK  5 active torsions:
REMARK  status: ('A' for Active; 'I' for Inactive)
REMARK    1  A    between atoms: C_1  and  C_2
REMARK    2  A    between atoms: C_2  and  C_3
REMARK    3  A    between atoms: C_2  and  S_11
REMARK    4  A    between atoms: S_11  and  C_14
REMARK    5  A    between atoms: C_14  and  C_15
REMARK                            x       y       z     vdW  Elec       q    Type
REMARK                         _______ _______ _______ _____ _____    ______ ____
ROOT
ATOM      1  S   UNL     1       5.907   6.406  16.681  0.00  0.00    +0.000 S 
ATOM      2  O   UNL     1       6.426   7.709  17.054  0.00  0.00    +0.000 OA
ATOM      3  O   UNL     1       4.847   6.291  15.695  0.00  0.00    +0.000 OA
ENDROOT
BRANCH   1   5
ATOM      4  C   UNL     1       7.706   4.334  17.157  0.00  0.00    +0.000 C 
ATOM      5  C   UNL     1       7.310   5.400  16.140  0.00  0.00    +0.000 C 
BRANCH   5   6
ATOM      6  C   UNL     1       6.989   4.816  14.777  0.00  0.00    +0.000 A 
ATOM      7  C   UNL     1       6.008   3.838  14.581  0.00  0.00    +0.000 A 
ATOM      8  F   UNL     1       5.320   3.352  15.620  0.00  0.00    +0.000 F 
ATOM      9  C   UNL     1       5.730   3.314  13.317  0.00  0.00    +0.000 A 
ATOM     10  C   UNL     1       6.448   3.754  12.209  0.00  0.00    +0.000 A 
ATOM     11  C   UNL     1       7.436   4.720  12.376  0.00  0.00    +0.000 A 
ATOM     12  C   UNL     1       7.691   5.240  13.645  0.00  0.00    +0.000 A 
ATOM     13  F   UNL     1       8.664   6.156  13.772  0.00  0.00    +0.000 F 
ENDBRANCH   5   6
ENDBRANCH   1   5
BRANCH   1  14
ATOM     14  C   UNL     1       5.344   5.590  18.159  0.00  0.00    +0.000 C 
BRANCH  14  15
ATOM     15  C   UNL     1       3.842   5.486  18.114  0.00  0.00    +0.000 C 
ATOM     16  O   UNL     1       3.177   6.517  18.261  0.00  0.00    +0.000 OA
ATOM     17  N   UNL     1       3.230   4.241  17.952  0.00  0.00    +0.000 N 
ATOM     18  C   UNL     1       1.786   4.221  17.709  0.00  0.00    +0.000 C 
ATOM     19  C   UNL     1       0.927   3.672  18.850  0.00  0.00    +0.000 C 
ATOM     20  C   UNL     1       1.335   4.133  20.249  0.00  0.00    +0.000 C 
ATOM     21  C   UNL     1       2.173   3.118  21.032  0.00  0.00    +0.000 C 
ATOM     22  C   UNL     1       3.586   2.834  20.511  0.00  0.00    +0.000 C 
ATOM     23  C   UNL     1       3.633   2.078  19.181  0.00  0.00    +0.000 C 
ATOM     24  C   UNL     1       3.918   2.948  17.951  0.00  0.00    +0.000 C 
ENDBRANCH  14  15
ENDBRANCH   1  14
TORSDOF 4
ENDMDL
MODEL 2
REMARK VINA RESULT:      -7.4      0.077      1.682
REMARK  Name = 
REMARK  5 active torsions:
REMARK  status: ('A' for Active; 'I' for Inactive)
REMARK    1  A    between atoms: C_1  and  C_2
REMARK    2  A    between atoms: C_2  and  C_3
REMARK    3  A    between atoms: C_2  and  S_11
REMARK    4  A    between atoms: S_11  and  C_14
REMARK    5  A    between atoms: C_14  and  C_15
REMARK                            x       y       z     vdW  Elec       q    Type
REMARK                         _______ _______ _______ _____ _____    ______ ____
ROOT
ATOM      1  S   UNL     1       5.934   6.426  16.634  0.00  0.00    +0.000 S 
ATOM      2  O   UNL     1       6.475   7.727  16.983  0.00  0.00    +0.000 OA
ATOM      3  O   UNL     1       4.880   6.308  15.643  0.00  0.00    +0.000 OA
ENDROOT
BRANCH   1   5
ATOM      4  C   UNL     1       7.660   4.301  17.148  0.00  0.00    +0.000 C 
ATOM      5  C   UNL     1       7.322   5.382  16.126  0.00  0.00    +0.000 C 
BRANCH   5   6
ATOM      6  C   UNL     1       7.022   4.814  14.752  0.00  0.00    +0.000 A 
ATOM      7  C   UNL     1       7.702   5.216  13.598  0.00  0.00    +0.000 A 
ATOM      8  F   UNL     1       8.647   6.161  13.664  0.00  0.00    +0.000 F 
ATOM      9  C   UNL     1       7.407   4.681  12.343  0.00  0.00    +0.000 A 
ATOM     10  C   UNL     1       6.402   3.727  12.212  0.00  0.00    +0.000 A 
ATOM     11  C   UNL     1       5.703   3.315  13.343  0.00  0.00    +0.000 A 
ATOM     12  C   UNL     1       6.019   3.853  14.590  0.00  0.00    +0.000 A 
ATOM     13  F   UNL     1       5.312   3.446  15.655  0.00  0.00    +0.000 F 
ENDBRANCH   5   6
ENDBRANCH   1   5
BRANCH   1  14
ATOM     14  C   UNL     1       5.346   5.653  18.126  0.00  0.00    +0.000 C 
BRANCH  14  15
ATOM     15  C   UNL     1       3.848   5.518  18.044  0.00  0.00    +0.000 C 
ATOM     16  O   UNL     1       3.160   6.539  18.148  0.00  0.00    +0.000 OA
ATOM     17  N   UNL     1       3.264   4.257  17.897  0.00  0.00    +0.000 N 
ATOM     18  C   UNL     1       1.828   4.203  17.617  0.00  0.00    +0.000 C 
ATOM     19  C   UNL     1       0.950   3.664  18.748  0.00  0.00    +0.000 C 
ATOM     20  C   UNL     1       1.311   4.168  20.146  0.00  0.00    +0.000 C 
ATOM     21  C   UNL     1       2.148   3.190  20.976  0.00  0.00    +0.000 C 
ATOM     22  C   UNL     1       3.580   2.921  20.499  0.00  0.00    +0.000 C 
ATOM     23  C   UNL     1       3.676   2.134  19.190  0.00  0.00    +0.000 C 
ATOM     24  C   UNL     1       3.977   2.979  17.946  0.00  0.00    +0.000 C 
ENDBRANCH  14  15
ENDBRANCH   1  14
TORSDOF 4
ENDMDL
MODEL 3
REMARK VINA RESULT:      -7.2      2.052      2.637
REMARK  Name = 
REMARK  5 active torsions:
REMARK  status: ('A' for Active; 'I' for Inactive)
REMARK    1  A    between atoms: C_1  and  C_2
REMARK    2  A    between atoms: C_2  and  C_3
REMARK    3  A    between atoms: C_2  and  S_11
REMARK    4  A    between atoms: S_11  and  C_14
REMARK    5  A    between atoms: C_14  and  C_15
REMARK                            x       y       z     vdW  Elec       q    Type
REMARK                         _______ _______ _______ _____ _____    ______ ____
ROOT
ATOM      1  S   UNL     1       6.337   5.261  19.024  0.00  0.00    +0.000 S 
ATOM      2  O   UNL     1       6.451   3.939  18.436  0.00  0.00    +0.000 OA
ATOM      3  O   UNL     1       7.204   5.657  20.120  0.00  0.00    +0.000 OA
ENDROOT
BRANCH   1   5
ATOM      4  C   UNL     1       7.823   7.250  17.760  0.00  0.00    +0.000 C 
ATOM      5  C   UNL     1       6.517   6.465  17.684  0.00  0.00    +0.000 C 
BRANCH   5   6
ATOM      6  C   UNL     1       6.343   5.745  16.361  0.00  0.00    +0.000 A 
ATOM      7  C   UNL     1       7.189   4.714  15.940  0.00  0.00    +0.000 A 
ATOM      8  F   UNL     1       8.224   4.336  16.699  0.00  0.00    +0.000 F 
ATOM      9  C   UNL     1       7.011   4.066  14.717  0.00  0.00    +0.000 A 
ATOM     10  C   UNL     1       5.975   4.451  13.870  0.00  0.00    +0.000 A 
ATOM     11  C   UNL     1       5.124   5.481  14.259  0.00  0.00    +0.000 A 
ATOM     12  C   UNL     1       5.311   6.109  15.490  0.00  0.00    +0.000 A 
ATOM     13  F   UNL     1       4.482   7.110  15.825  0.00  0.00    +0.000 F 
ENDBRANCH   5   6
ENDBRANCH   1   5
BRANCH   1  14
ATOM     14  C   UNL     1       4.658   5.482  19.571  0.00  0.00    +0.000 C 
BRANCH  14  15
ATOM     15  C   UNL     1       3.761   4.585  18.760  0.00  0.00    +0.000 C 
ATOM     16  O   UNL     1       3.164   5.070  17.794  0.00  0.00    +0.000 OA
ATOM     17  N   UNL     1       3.586   3.249  19.129  0.00  0.00    +0.000 N 
ATOM     18  C   UNL     1       2.873   2.375  18.196  0.00  0.00    +0.000 C 
ATOM     19  C   UNL     1       1.485   1.913  18.644  0.00  0.00    +0.000 C 
ATOM     20  C   UNL     1       0.622   2.994  19.295  0.00  0.00    +0.000 C 
ATOM     21  C   UNL     1       0.603   2.953  20.826  0.00  0.00    +0.000 C 
ATOM     22  C   UNL     1       1.911   3.300  21.547  0.00  0.00    +0.000 C 
ATOM     23  C   UNL     1       3.023   2.263  21.379  0.00  0.00    +0.000 C 
ATOM     24  C   UNL     1       4.102   2.630  20.352  0.00  0.00    +0.000 C 
ENDBRANCH  14  15
ENDBRANCH   1  14
TORSDOF 4
ENDMDL
MODEL 4
REMARK VINA RESULT:      -7.1      2.053      2.568
REMARK  Name = 
REMARK  5 active torsions:
REMARK  status: ('A' for Active; 'I' for Inactive)
REMARK    1  A    between atoms: C_1  and  C_2
REMARK    2  A    between atoms: C_2  and  C_3
REMARK    3  A    between atoms: C_2  and  S_11
REMARK    4  A    between atoms: S_11  and  C_14
REMARK    5  A    between atoms: C_14  and  C_15
REMARK                            x       y       z     vdW  Elec       q    Type
REMARK                         _______ _______ _______ _____ _____    ______ ____
ROOT
ATOM      1  S   UNL     1       6.329   5.245  19.043  0.00  0.00    +0.000 S 
ATOM      2  O   UNL     1       6.418   3.932  18.430  0.00  0.00    +0.000 OA
ATOM      3  O   UNL     1       7.192   5.599  20.155  0.00  0.00    +0.000 OA
ENDROOT
BRANCH   1   5
ATOM      4  C   UNL     1       7.882   7.207  17.819  0.00  0.00    +0.000 C 
ATOM      5  C   UNL     1       6.549   6.470  17.729  0.00  0.00    +0.000 C 
BRANCH   5   6
ATOM      6  C   UNL     1       6.350   5.784  16.391  0.00  0.00    +0.000 A 
ATOM      7  C   UNL     1       5.317   6.121  15.510  0.00  0.00    +0.000 A 
ATOM      8  F   UNL     1       4.429   7.067  15.839  0.00  0.00    +0.000 F 
ATOM      9  C   UNL     1       5.152   5.475  14.284  0.00  0.00    +0.000 A 
ATOM     10  C   UNL     1       6.022   4.454  13.913  0.00  0.00    +0.000 A 
ATOM     11  C   UNL     1       7.054   4.091  14.774  0.00  0.00    +0.000 A 
ATOM     12  C   UNL     1       7.210   4.756  15.990  0.00  0.00    +0.000 A 
ATOM     13  F   UNL     1       8.204   4.368  16.804  0.00  0.00    +0.000 F 
ENDBRANCH   5   6
ENDBRANCH   1   5
BRANCH   1  14
ATOM     14  C   UNL     1       4.649   5.493  19.577  0.00  0.00    +0.000 C 
BRANCH  14  15
ATOM     15  C   UNL     1       3.745   4.603  18.766  0.00  0.00    +0.000 C 
ATOM     16  O   UNL     1       3.137   5.097  17.811  0.00  0.00    +0.000 OA
ATOM     17  N   UNL     1       3.576   3.262  19.122  0.00  0.00    +0.000 N 
ATOM     18  C   UNL     1       2.855   2.398  18.186  0.00  0.00    +0.000 C 
ATOM     19  C   UNL     1       1.472   1.929  18.644  0.00  0.00    +0.000 C 
ATOM     20  C   UNL     1       0.614   3.000  19.316  0.00  0.00    +0.000 C 
ATOM     21  C   UNL     1       0.612   2.942  20.847  0.00  0.00    +0.000 C 
ATOM     22  C   UNL     1       1.926   3.284  21.558  0.00  0.00    +0.000 C 
ATOM     23  C   UNL     1       3.039   2.250  21.366  0.00  0.00    +0.000 C 
ATOM     24  C   UNL     1       4.106   2.631  20.332  0.00  0.00    +0.000 C 
ENDBRANCH  14  15
ENDBRANCH   1  14
TORSDOF 4
ENDMDL
MODEL 5
REMARK VINA RESULT:      -7.0      1.025      1.494
REMARK  Name = 
REMARK  5 active torsions:
REMARK  status: ('A' for Active; 'I' for Inactive)
REMARK    1  A    between atoms: C_1  and  C_2
REMARK    2  A    between atoms: C_2  and  C_3
REMARK    3  A    between atoms: C_2  and  S_11
REMARK    4  A    between atoms: S_11  and  C_14
REMARK    5  A    between atoms: C_14  and  C_15
REMARK                            x       y       z     vdW  Elec       q    Type
REMARK                         _______ _______ _______ _____ _____    ______ ____
ROOT
ATOM      1  S   UNL     1       5.683   6.186  16.438  0.00  0.00    +0.000 S 
ATOM      2  O   UNL     1       6.027   7.130  17.486  0.00  0.00    +0.000 OA
ATOM      3  O   UNL     1       4.964   6.626  15.257  0.00  0.00    +0.000 OA
ENDROOT
BRANCH   1   5
ATOM      4  C   UNL     1       7.712   4.336  16.909  0.00  0.00    +0.000 C 
ATOM      5  C   UNL     1       7.216   5.380  15.913  0.00  0.00    +0.000 C 
BRANCH   5   6
ATOM      6  C   UNL     1       7.009   4.809  14.523  0.00  0.00    +0.000 A 
ATOM      7  C   UNL     1       6.094   3.787  14.248  0.00  0.00    +0.000 A 
ATOM      8  F   UNL     1       5.370   3.246  15.235  0.00  0.00    +0.000 F 
ATOM      9  C   UNL     1       5.922   3.276  12.962  0.00  0.00    +0.000 A 
ATOM     10  C   UNL     1       6.683   3.774  11.908  0.00  0.00    +0.000 A 
ATOM     11  C   UNL     1       7.608   4.785  12.153  0.00  0.00    +0.000 A 
ATOM     12  C   UNL     1       7.758   5.291  13.444  0.00  0.00    +0.000 A 
ATOM     13  F   UNL     1       8.672   6.252  13.648  0.00  0.00    +0.000 F 
ENDBRANCH   5   6
ENDBRANCH   1   5
BRANCH   1  14
ATOM     14  C   UNL     1       4.739   4.867  17.170  0.00  0.00    +0.000 C 
BRANCH  14  15
ATOM     15  C   UNL     1       4.177   5.343  18.484  0.00  0.00    +0.000 C 
ATOM     16  O   UNL     1       4.966   5.646  19.385  0.00  0.00    +0.000 OA
ATOM     17  N   UNL     1       2.795   5.395  18.678  0.00  0.00    +0.000 N 
ATOM     18  C   UNL     1       2.304   6.055  19.890  0.00  0.00    +0.000 C 
ATOM     19  C   UNL     1       1.676   5.137  20.941  0.00  0.00    +0.000 C 
ATOM     20  C   UNL     1       2.422   3.825  21.184  0.00  0.00    +0.000 C 
ATOM     21  C   UNL     1       1.824   2.613  20.463  0.00  0.00    +0.000 C 
ATOM     22  C   UNL     1       1.917   2.598  18.933  0.00  0.00    +0.000 C 
ATOM     23  C   UNL     1       1.041   3.640  18.234  0.00  0.00    +0.000 C 
ATOM     24  C   UNL     1       1.785   4.890  17.746  0.00  0.00    +0.000 C 
ENDBRANCH  14  15
ENDBRANCH   1  14
TORSDOF 4
ENDMDL
MODEL 6
REMARK VINA RESULT:      -7.0      1.634      2.545
REMARK  Name = 
REMARK  5 active torsions:
REMARK  status: ('A' for Active; 'I' for Inactive)
REMARK    1  A    between atoms: C_1  and  C_2
REMARK    2  A    between atoms: C_2  and  C_3
REMARK    3  A    between atoms: C_2  and  S_11
REMARK    4  A    between atoms: S_11  and  C_14
REMARK    5  A    between atoms: C_14  and  C_15
REMARK                            x       y       z     vdW  Elec       q    Type
REMARK                         _______ _______ _______ _____ _____    ______ ____
ROOT
ATOM      1  S   UNL     1       6.668   4.866  17.007  0.00  0.00    +0.000 S 
ATOM      2  O   UNL     1       7.707   4.022  16.446  0.00  0.00    +0.000 OA
ATOM      3  O   UNL     1       7.011   6.093  17.704  0.00  0.00    +0.000 OA
ENDROOT
BRANCH   1   5
ATOM      4  C   UNL     1       5.117   6.738  15.647  0.00  0.00    +0.000 C 
ATOM      5  C   UNL     1       5.516   5.265  15.670  0.00  0.00    +0.000 C 
BRANCH   5   6
ATOM      6  C   UNL     1       6.120   4.803  14.357  0.00  0.00    +0.000 A 
ATOM      7  C   UNL     1       7.349   5.269  13.880  0.00  0.00    +0.000 A 
ATOM      8  F   UNL     1       8.039   6.185  14.569  0.00  0.00    +0.000 F 
ATOM      9  C   UNL     1       7.884   4.831  12.668  0.00  0.00    +0.000 A 
ATOM     10  C   UNL     1       7.185   3.911  11.891  0.00  0.00    +0.000 A 
ATOM     11  C   UNL     1       5.956   3.437  12.337  0.00  0.00    +0.000 A 
ATOM     12  C   UNL     1       5.441   3.878  13.556  0.00  0.00    +0.000 A 
ATOM     13  F   UNL     1       4.245   3.414  13.947  0.00  0.00    +0.000 F 
ENDBRANCH   5   6
ENDBRANCH   1   5
BRANCH   1  14
ATOM     14  C   UNL     1       5.696   3.878  18.124  0.00  0.00    +0.000 C 
BRANCH  14  15
ATOM     15  C   UNL     1       4.836   4.792  18.957  0.00  0.00    +0.000 C 
ATOM     16  O   UNL     1       5.352   5.368  19.920  0.00  0.00    +0.000 OA
ATOM     17  N   UNL     1       3.479   4.942  18.659  0.00  0.00    +0.000 N 
ATOM     18  C   UNL     1       2.741   5.991  19.366  0.00  0.00    +0.000 C 
ATOM     19  C   UNL     1       1.709   5.507  20.386  0.00  0.00    +0.000 C 
ATOM     20  C   UNL     1       2.163   4.342  21.265  0.00  0.00    +0.000 C 
ATOM     21  C   UNL     1       1.652   2.971  20.814  0.00  0.00    +0.000 C 
ATOM     22  C   UNL     1       2.197   2.427  19.488  0.00  0.00    +0.000 C 
ATOM     23  C   UNL     1       1.720   3.185  18.247  0.00  0.00    +0.000 C 
ATOM     24  C   UNL     1       2.737   4.171  17.660  0.00  0.00    +0.000 C 
ENDBRANCH  14  15
ENDBRANCH   1  14
TORSDOF 4
ENDMDL
MODEL 7
REMARK VINA RESULT:      -6.9      1.898      2.417
REMARK  Name = 
REMARK  5 active torsions:
REMARK  status: ('A' for Active; 'I' for Inactive)
REMARK    1  A    between atoms: C_1  and  C_2
REMARK    2  A    between atoms: C_2  and  C_3
REMARK    3  A    between atoms: C_2  and  S_11
REMARK    4  A    between atoms: S_11  and  C_14
REMARK    5  A    between atoms: C_14  and  C_15
REMARK                            x       y       z     vdW  Elec       q    Type
REMARK                         _______ _______ _______ _____ _____    ______ ____
ROOT
ATOM      1  S   UNL     1       5.620   5.346  19.027  0.00  0.00    +0.000 S 
ATOM      2  O   UNL     1       6.726   4.998  19.901  0.00  0.00    +0.000 OA
ATOM      3  O   UNL     1       4.404   5.922  19.573  0.00  0.00    +0.000 OA
ENDROOT
BRANCH   1   5
ATOM      4  C   UNL     1       7.631   7.042  18.111  0.00  0.00    +0.000 C 
ATOM      5  C   UNL     1       6.266   6.461  17.756  0.00  0.00    +0.000 C 
BRANCH   5   6
ATOM      6  C   UNL     1       6.270   5.728  16.428  0.00  0.00    +0.000 A 
ATOM      7  C   UNL     1       7.148   4.677  16.142  0.00  0.00    +0.000 A 
ATOM      8  F   UNL     1       8.057   4.291  17.045  0.00  0.00    +0.000 F 
ATOM      9  C   UNL     1       7.135   4.018  14.912  0.00  0.00    +0.000 A 
ATOM     10  C   UNL     1       6.238   4.411  13.922  0.00  0.00    +0.000 A 
ATOM     11  C   UNL     1       5.359   5.459  14.176  0.00  0.00    +0.000 A 
ATOM     12  C   UNL     1       5.379   6.099  15.415  0.00  0.00    +0.000 A 
ATOM     13  F   UNL     1       4.530   7.117  15.618  0.00  0.00    +0.000 F 
ENDBRANCH   5   6
ENDBRANCH   1   5
BRANCH   1  14
ATOM     14  C   UNL     1       5.153   3.889  18.118  0.00  0.00    +0.000 C 
BRANCH  14  15
ATOM     15  C   UNL     1       3.654   3.866  17.975  0.00  0.00    +0.000 C 
ATOM     16  O   UNL     1       3.096   4.845  17.469  0.00  0.00    +0.000 OA
ATOM     17  N   UNL     1       2.921   2.774  18.448  0.00  0.00    +0.000 N 
ATOM     18  C   UNL     1       1.500   2.710  18.102  0.00  0.00    +0.000 C 
ATOM     19  C   UNL     1       0.522   2.928  19.259  0.00  0.00    +0.000 C 
ATOM     20  C   UNL     1       0.897   4.056  20.219  0.00  0.00    +0.000 C 
ATOM     21  C   UNL     1       1.574   3.590  21.512  0.00  0.00    +0.000 C 
ATOM     22  C   UNL     1       2.976   2.984  21.382  0.00  0.00    +0.000 C 
ATOM     23  C   UNL     1       3.017   1.621  20.687  0.00  0.00    +0.000 C 
ATOM     24  C   UNL     1       3.465   1.656  19.220  0.00  0.00    +0.000 C 
ENDBRANCH  14  15
ENDBRANCH   1  14
TORSDOF 4
ENDMDL
MODEL 8
REMARK VINA RESULT:      -6.8      1.954      2.478
REMARK  Name = 
REMARK  5 active torsions:
REMARK  status: ('A' for Active; 'I' for Inactive)
REMARK    1  A    between atoms: C_1  and  C_2
REMARK    2  A    between atoms: C_2  and  C_3
REMARK    3  A    between atoms: C_2  and  S_11
REMARK    4  A    between atoms: S_11  and  C_14
REMARK    5  A    between atoms: C_14  and  C_15
REMARK                            x       y       z     vdW  Elec       q    Type
REMARK                         _______ _______ _______ _____ _____    ______ ____
ROOT
ATOM      1  S   UNL     1       5.494   5.349  18.982  0.00  0.00    +0.000 S 
ATOM      2  O   UNL     1       6.389   5.202  20.116  0.00  0.00    +0.000 OA
ATOM      3  O   UNL     1       4.136   5.824  19.173  0.00  0.00    +0.000 OA
ENDROOT
BRANCH   1   5
ATOM      4  C   UNL     1       7.730   6.817  18.204  0.00  0.00    +0.000 C 
ATOM      5  C   UNL     1       6.318   6.422  17.780  0.00  0.00    +0.000 C 
BRANCH   5   6
ATOM      6  C   UNL     1       6.282   5.745  16.424  0.00  0.00    +0.000 A 
ATOM      7  C   UNL     1       5.372   6.097  15.422  0.00  0.00    +0.000 A 
ATOM      8  F   UNL     1       4.459   7.050  15.642  0.00  0.00    +0.000 F 
ATOM      9  C   UNL     1       5.356   5.459  14.181  0.00  0.00    +0.000 A 
ATOM     10  C   UNL     1       6.256   4.430  13.917  0.00  0.00    +0.000 A 
ATOM     11  C   UNL     1       7.167   4.053  14.898  0.00  0.00    +0.000 A 
ATOM     12  C   UNL     1       7.175   4.710  16.128  0.00  0.00    +0.000 A 
ATOM     13  F   UNL     1       8.055   4.308  17.058  0.00  0.00    +0.000 F 
ENDBRANCH   5   6
ENDBRANCH   1   5
BRANCH   1  14
ATOM     14  C   UNL     1       5.393   3.779  18.150  0.00  0.00    +0.000 C 
BRANCH  14  15
ATOM     15  C   UNL     1       3.945   3.464  17.883  0.00  0.00    +0.000 C 
ATOM     16  O   UNL     1       3.371   4.067  16.970  0.00  0.00    +0.000 OA
ATOM     17  N   UNL     1       3.268   2.541  18.684  0.00  0.00    +0.000 N 
ATOM     18  C   UNL     1       1.932   2.122  18.255  0.00  0.00    +0.000 C 
ATOM     19  C   UNL     1       0.770   2.614  19.121  0.00  0.00    +0.000 C 
ATOM     20  C   UNL     1       0.870   4.072  19.572  0.00  0.00    +0.000 C 
ATOM     21  C   UNL     1       1.386   4.259  21.002  0.00  0.00    +0.000 C 
ATOM     22  C   UNL     1       2.848   3.882  21.269  0.00  0.00    +0.000 C 
ATOM     23  C   UNL     1       3.140   2.381  21.195  0.00  0.00    +0.000 C 
ATOM     24  C   UNL     1       3.802   1.913  19.894  0.00  0.00    +0.000 C 
ENDBRANCH  14  15
ENDBRANCH   1  14
TORSDOF 4
ENDMDL
MODEL 9
REMARK VINA RESULT:      -6.8      1.000      2.274
REMARK  Name = 
REMARK  5 active torsions:
REMARK  status: ('A' for Active; 'I' for Inactive)
REMARK    1  A    between atoms: C_1  and  C_2
REMARK    2  A    between atoms: C_2  and  C_3
REMARK    3  A    between atoms: C_2  and  S_11
REMARK    4  A    between atoms: S_11  and  C_14
REMARK    5  A    between atoms: C_14  and  C_15
REMARK                            x       y       z     vdW  Elec       q    Type
REMARK                         _______ _______ _______ _____ _____    ______ ____
ROOT
ATOM      1  S   UNL     1       5.642   6.244  16.334  0.00  0.00    +0.000 S 
ATOM      2  O   UNL     1       5.952   7.142  17.433  0.00  0.00    +0.000 OA
ATOM      3  O   UNL     1       5.034   6.752  15.118  0.00  0.00    +0.000 OA
ENDROOT
BRANCH   1   5
ATOM      4  C   UNL     1       7.572   4.325  16.926  0.00  0.00    +0.000 C 
ATOM      5  C   UNL     1       7.170   5.377  15.897  0.00  0.00    +0.000 C 
BRANCH   5   6
ATOM      6  C   UNL     1       7.016   4.802  14.502  0.00  0.00    +0.000 A 
ATOM      7  C   UNL     1       7.747   5.267  13.404  0.00  0.00    +0.000 A 
ATOM      8  F   UNL     1       8.610   6.280  13.545  0.00  0.00    +0.000 F 
ATOM      9  C   UNL     1       7.588   4.723  12.128  0.00  0.00    +0.000 A 
ATOM     10  C   UNL     1       6.671   3.697  11.918  0.00  0.00    +0.000 A 
ATOM     11  C   UNL     1       5.924   3.222  12.992  0.00  0.00    +0.000 A 
ATOM     12  C   UNL     1       6.105   3.769  14.262  0.00  0.00    +0.000 A 
ATOM     13  F   UNL     1       5.354   3.299  15.269  0.00  0.00    +0.000 F 
ENDBRANCH   5   6
ENDBRANCH   1   5
BRANCH   1  14
ATOM     14  C   UNL     1       4.585   4.954  16.955  0.00  0.00    +0.000 C 
BRANCH  14  15
ATOM     15  C   UNL     1       4.144   5.316  18.349  0.00  0.00    +0.000 C 
ATOM     16  O   UNL     1       5.011   5.543  19.199  0.00  0.00    +0.000 OA
ATOM     17  N   UNL     1       2.784   5.350  18.668  0.00  0.00    +0.000 N 
ATOM     18  C   UNL     1       2.406   5.905  19.970  0.00  0.00    +0.000 C 
ATOM     19  C   UNL     1       1.867   4.900  20.990  0.00  0.00    +0.000 C 
ATOM     20  C   UNL     1       2.623   3.573  21.054  0.00  0.00    +0.000 C 
ATOM     21  C   UNL     1       1.957   2.426  20.289  0.00  0.00    +0.000 C 
ATOM     22  C   UNL     1       1.915   2.541  18.761  0.00  0.00    +0.000 C 
ATOM     23  C   UNL     1       0.987   3.638  18.232  0.00  0.00    +0.000 C 
ATOM     24  C   UNL     1       1.693   4.925  17.788  0.00  0.00    +0.000 C 
ENDBRANCH  14  15
ENDBRANCH   1  14
TORSDOF 4
ENDMDL
