MODEL 1
REMARK VINA RESULT:      -7.6      0.000      0.000
REMARK  Name = 
REMARK  7 active torsions:
REMARK  status: ('A' for Active; 'I' for Inactive)
REMARK    1  A    between atoms: C_1  and  N_2
REMARK    2  A    between atoms: N_2  and  C_3
REMARK    3  A    between atoms: N_6  and  C_7
REMARK    4  A    between atoms: C_10  and  C_11
REMARK    5  A    between atoms: C_13  and  O_14
REMARK    6  A    between atoms: O_14  and  C_15
REMARK    7  A    between atoms: C_24  and  C_25
REMARK                            x       y       z     vdW  Elec       q    Type
REMARK                         _______ _______ _______ _____ _____    ______ ____
ROOT
ATOM      1  C   UNL     1       2.064   6.850  20.192  0.00  0.00    +0.000 A 
ATOM      2  C   UNL     1       1.447   5.669  20.597  0.00  0.00    +0.000 A 
ATOM      3  N   UNL     1       1.598   4.500  19.965  0.00  0.00    +0.000 NA
ATOM      4  C   UNL     1       2.433   4.517  18.885  0.00  0.00    +0.000 A 
ATOM      5  C   UNL     1       3.130   5.613  18.384  0.00  0.00    +0.000 A 
ATOM      6  C   UNL     1       2.926   6.813  19.066  0.00  0.00    +0.000 A 
ENDROOT
BRANCH   1  10
ATOM      7  C   UNL     1      -0.266  10.917  21.005  0.00  0.00    +0.000 A 
ATOM      8  N   UNL     1       0.451   9.845  21.384  0.00  0.00    +0.000 NA
ATOM      9  C   UNL     1       1.001   9.074  20.448  0.00  0.00    +0.000 A 
ATOM     10  N   UNL     1       1.762   8.014  20.897  0.00  0.00    +0.000 N 
ATOM     11  N   UNL     1       0.884   9.290  19.137  0.00  0.00    +0.000 NA
ATOM     12  C   UNL     1       0.178  10.365  18.774  0.00  0.00    +0.000 A 
ATOM     13  C   UNL     1      -0.423  11.224  19.669  0.00  0.00    +0.000 A 
ATOM     14  H   UNL     1       1.747   7.958  21.906  0.00  0.00    +0.000 HD
BRANCH  13  15
ATOM     15  C   UNL     1      -1.160  12.382  19.112  0.00  0.00    +0.000 C 
ATOM     16  F   UNL     1      -0.757  13.604  19.547  0.00  0.00    +0.000 F 
ATOM     17  F   UNL     1      -1.051  12.431  17.751  0.00  0.00    +0.000 F 
ATOM     18  F   UNL     1      -2.499  12.312  19.360  0.00  0.00    +0.000 F 
ENDBRANCH  13  15
BRANCH   7  20
ATOM     19  C   UNL     1      -1.285  10.888  23.187  0.00  0.00    +0.000 C 
ATOM     20  N   UNL     1      -0.891  11.659  22.012  0.00  0.00    +0.000 N 
ATOM     21  H   UNL     1      -0.347  12.481  22.263  0.00  0.00    +0.000 HD
ENDBRANCH   7  20
ENDBRANCH   1  10
BRANCH   4  22
ATOM     22  C   UNL     1       2.485   3.243  18.211  0.00  0.00    +0.000 C 
ATOM     23  N   UNL     1       2.538   2.216  17.666  0.00  0.00    +0.000 NA
ENDBRANCH   4  22
BRANCH   5  24
ATOM     24  O   UNL     1       3.890   5.376  17.271  0.00  0.00    +0.000 OA
BRANCH  24  25
ATOM     25  C   UNL     1       5.091   6.083  16.929  0.00  0.00    +0.000 C 
ATOM     26  C   UNL     1       5.234   6.102  15.387  0.00  0.00    +0.000 C 
ATOM     27  C   UNL     1       5.804   4.825  14.752  0.00  0.00    +0.000 C 
ATOM     28  C   UNL     1       6.919   4.144  15.539  0.00  0.00    +0.000 C 
ATOM     29  N   UNL     1       6.733   4.144  16.984  0.00  0.00    +0.000 NA
ATOM     30  C   UNL     1       6.352   5.444  17.545  0.00  0.00    +0.000 C 
ATOM     31  H   UNL     1       7.606   3.838  17.419  0.00  0.00    +0.000 HD
ENDBRANCH  24  25
ENDBRANCH   5  24
TORSDOF 6
ENDMDL
MODEL 2
REMARK VINA RESULT:      -7.6      2.563      4.160
REMARK  Name = 
REMARK  7 active torsions:
REMARK  status: ('A' for Active; 'I' for Inactive)
REMARK    1  A    between atoms: C_1  and  N_2
REMARK    2  A    between atoms: N_2  and  C_3
REMARK    3  A    between atoms: N_6  and  C_7
REMARK    4  A    between atoms: C_10  and  C_11
REMARK    5  A    between atoms: C_13  and  O_14
REMARK    6  A    between atoms: O_14  and  C_15
REMARK    7  A    between atoms: C_24  and  C_25
REMARK                            x       y       z     vdW  Elec       q    Type
REMARK                         _______ _______ _______ _____ _____    ______ ____
ROOT
ATOM      1  C   UNL     1       1.462   9.034  18.917  0.00  0.00    +0.000 A 
ATOM      2  C   UNL     1       2.314   8.967  17.818  0.00  0.00    +0.000 A 
ATOM      3  N   UNL     1       3.162   7.956  17.598  0.00  0.00    +0.000 NA
ATOM      4  C   UNL     1       3.132   6.950  18.520  0.00  0.00    +0.000 A 
ATOM      5  C   UNL     1       2.320   6.874  19.649  0.00  0.00    +0.000 A 
ATOM      6  C   UNL     1       1.465   7.960  19.844  0.00  0.00    +0.000 A 
ENDROOT
BRANCH   1  10
ATOM      7  C   UNL     1      -2.555  11.573  18.708  0.00  0.00    +0.000 A 
ATOM      8  N   UNL     1      -1.326  11.304  19.179  0.00  0.00    +0.000 NA
ATOM      9  C   UNL     1      -0.587  10.382  18.564  0.00  0.00    +0.000 A 
ATOM     10  N   UNL     1       0.682  10.180  19.065  0.00  0.00    +0.000 N 
ATOM     11  N   UNL     1      -0.992   9.688  17.499  0.00  0.00    +0.000 NA
ATOM     12  C   UNL     1      -2.212   9.972  17.035  0.00  0.00    +0.000 A 
ATOM     13  C   UNL     1      -3.046  10.914  17.600  0.00  0.00    +0.000 A 
ATOM     14  H   UNL     1       0.847  10.754  19.880  0.00  0.00    +0.000 HD
BRANCH  13  15
ATOM     15  C   UNL     1      -4.365  11.127  16.961  0.00  0.00    +0.000 C 
ATOM     16  F   UNL     1      -4.682  12.417  16.674  0.00  0.00    +0.000 F 
ATOM     17  F   UNL     1      -4.452  10.462  15.770  0.00  0.00    +0.000 F 
ATOM     18  F   UNL     1      -5.391  10.642  17.716  0.00  0.00    +0.000 F 
ENDBRANCH  13  15
BRANCH   7  20
ATOM     19  C   UNL     1      -2.989  12.609  20.839  0.00  0.00    +0.000 C 
ATOM     20  N   UNL     1      -3.329  12.492  19.424  0.00  0.00    +0.000 N 
ATOM     21  H   UNL     1      -3.354  13.398  18.964  0.00  0.00    +0.000 HD
ENDBRANCH   7  20
ENDBRANCH   1  10
BRANCH   4  22
ATOM     22  C   UNL     1       4.124   5.936  18.261  0.00  0.00    +0.000 C 
ATOM     23  N   UNL     1       4.917   5.111  18.054  0.00  0.00    +0.000 NA
ENDBRANCH   4  22
BRANCH   5  24
ATOM     24  O   UNL     1       2.494   5.766  20.433  0.00  0.00    +0.000 OA
BRANCH  24  25
ATOM     25  C   UNL     1       1.535   4.709  20.588  0.00  0.00    +0.000 C 
ATOM     26  C   UNL     1       2.122   3.643  21.546  0.00  0.00    +0.000 C 
ATOM     27  C   UNL     1       3.113   2.653  20.918  0.00  0.00    +0.000 C 
ATOM     28  C   UNL     1       2.775   2.196  19.503  0.00  0.00    +0.000 C 
ATOM     29  N   UNL     1       2.235   3.236  18.639  0.00  0.00    +0.000 NA
ATOM     30  C   UNL     1       1.169   4.038  19.249  0.00  0.00    +0.000 C 
ATOM     31  H   UNL     1       1.873   2.794  17.791  0.00  0.00    +0.000 HD
ENDBRANCH  24  25
ENDBRANCH   5  24
TORSDOF 6
ENDMDL
MODEL 3
REMARK VINA RESULT:      -7.5      1.078      1.237
REMARK  Name = 
REMARK  7 active torsions:
REMARK  status: ('A' for Active; 'I' for Inactive)
REMARK    1  A    between atoms: C_1  and  N_2
REMARK    2  A    between atoms: N_2  and  C_3
REMARK    3  A    between atoms: N_6  and  C_7
REMARK    4  A    between atoms: C_10  and  C_11
REMARK    5  A    between atoms: C_13  and  O_14
REMARK    6  A    between atoms: O_14  and  C_15
REMARK    7  A    between atoms: C_24  and  C_25
REMARK                            x       y       z     vdW  Elec       q    Type
REMARK                         _______ _______ _______ _____ _____    ______ ____
ROOT
ATOM      1  C   UNL     1       2.306   5.900  20.460  0.00  0.00    +0.000 A 
ATOM      2  C   UNL     1       1.567   4.721  20.504  0.00  0.00    +0.000 A 
ATOM      3  N   UNL     1       1.905   3.609  19.843  0.00  0.00    +0.000 NA
ATOM      4  C   UNL     1       3.060   3.682  19.118  0.00  0.00    +0.000 A 
ATOM      5  C   UNL     1       3.907   4.783  19.002  0.00  0.00    +0.000 A 
ATOM      6  C   UNL     1       3.502   5.923  19.697  0.00  0.00    +0.000 A 
ENDROOT
BRANCH   1  10
ATOM      7  C   UNL     1       0.064  10.080  20.826  0.00  0.00    +0.000 A 
ATOM      8  N   UNL     1       0.503   8.905  21.308  0.00  0.00    +0.000 NA
ATOM      9  C   UNL     1       1.350   8.184  20.575  0.00  0.00    +0.000 A 
ATOM     10  N   UNL     1       1.801   7.009  21.139  0.00  0.00    +0.000 N 
ATOM     11  N   UNL     1       1.796   8.549  19.372  0.00  0.00    +0.000 NA
ATOM     12  C   UNL     1       1.360   9.724  18.910  0.00  0.00    +0.000 A 
ATOM     13  C   UNL     1       0.489  10.542  19.597  0.00  0.00    +0.000 A 
ATOM     14  H   UNL     1       1.368   6.847  22.038  0.00  0.00    +0.000 HD
BRANCH  13  15
ATOM     15  C   UNL     1       0.108  11.823  18.958  0.00  0.00    +0.000 C 
ATOM     16  F   UNL     1       1.006  12.333  18.075  0.00  0.00    +0.000 F 
ATOM     17  F   UNL     1      -1.056  11.699  18.254  0.00  0.00    +0.000 F 
ATOM     18  F   UNL     1      -0.130  12.807  19.871  0.00  0.00    +0.000 F 
ENDBRANCH  13  15
BRANCH   7  20
ATOM     19  C   UNL     1      -0.741  10.614  23.033  0.00  0.00    +0.000 C 
ATOM     20  N   UNL     1      -0.882  10.772  21.589  0.00  0.00    +0.000 N 
ATOM     21  H   UNL     1      -0.937  11.751  21.318  0.00  0.00    +0.000 HD
ENDBRANCH   7  20
ENDBRANCH   1  10
BRANCH   4  22
ATOM     22  C   UNL     1       3.319   2.476  18.372  0.00  0.00    +0.000 C 
ATOM     23  N   UNL     1       3.537   1.505  17.770  0.00  0.00    +0.000 NA
ENDBRANCH   4  22
BRANCH   5  24
ATOM     24  O   UNL     1       4.998   4.609  18.196  0.00  0.00    +0.000 OA
BRANCH  24  25
ATOM     25  C   UNL     1       5.815   5.671  17.679  0.00  0.00    +0.000 C 
ATOM     26  C   UNL     1       5.255   6.101  16.300  0.00  0.00    +0.000 C 
ATOM     27  C   UNL     1       5.653   5.214  15.111  0.00  0.00    +0.000 C 
ATOM     28  C   UNL     1       7.081   4.683  15.139  0.00  0.00    +0.000 C 
ATOM     29  N   UNL     1       7.558   4.283  16.456  0.00  0.00    +0.000 NA
ATOM     30  C   UNL     1       7.291   5.259  17.518  0.00  0.00    +0.000 C 
ATOM     31  H   UNL     1       8.565   4.123  16.398  0.00  0.00    +0.000 HD
ENDBRANCH  24  25
ENDBRANCH   5  24
TORSDOF 6
ENDMDL
MODEL 4
REMARK VINA RESULT:      -7.5      2.161      4.158
REMARK  Name = 
REMARK  7 active torsions:
REMARK  status: ('A' for Active; 'I' for Inactive)
REMARK    1  A    between atoms: C_1  and  N_2
REMARK    2  A    between atoms: N_2  and  C_3
REMARK    3  A    between atoms: N_6  and  C_7
REMARK    4  A    between atoms: C_10  and  C_11
REMARK    5  A    between atoms: C_13  and  O_14
REMARK    6  A    between atoms: O_14  and  C_15
REMARK    7  A    between atoms: C_24  and  C_25
REMARK                            x       y       z     vdW  Elec       q    Type
REMARK                         _______ _______ _______ _____ _____    ______ ____
ROOT
ATOM      1  C   UNL     1       2.890   7.522  17.966  0.00  0.00    +0.000 A 
ATOM      2  C   UNL     1       4.036   7.694  17.194  0.00  0.00    +0.000 A 
ATOM      3  N   UNL     1       5.107   6.897  17.271  0.00  0.00    +0.000 NA
ATOM      4  C   UNL     1       5.009   5.861  18.155  0.00  0.00    +0.000 A 
ATOM      5  C   UNL     1       3.921   5.557  18.971  0.00  0.00    +0.000 A 
ATOM      6  C   UNL     1       2.836   6.427  18.866  0.00  0.00    +0.000 A 
ENDROOT
BRANCH   1  10
ATOM      7  C   UNL     1       0.145  11.125  19.422  0.00  0.00    +0.000 A 
ATOM      8  N   UNL     1       0.732  10.364  18.482  0.00  0.00    +0.000 NA
ATOM      9  C   UNL     1       1.327   9.231  18.851  0.00  0.00    +0.000 A 
ATOM     10  N   UNL     1       1.874   8.469  17.839  0.00  0.00    +0.000 N 
ATOM     11  N   UNL     1       1.388   8.793  20.109  0.00  0.00    +0.000 NA
ATOM     12  C   UNL     1       0.791   9.553  21.031  0.00  0.00    +0.000 A 
ATOM     13  C   UNL     1       0.146  10.738  20.746  0.00  0.00    +0.000 A 
ATOM     14  H   UNL     1       1.774   8.928  16.944  0.00  0.00    +0.000 HD
BRANCH  13  15
ATOM     15  C   UNL     1      -0.481  11.462  21.876  0.00  0.00    +0.000 C 
ATOM     16  F   UNL     1       0.028  12.693  22.145  0.00  0.00    +0.000 F 
ATOM     17  F   UNL     1      -1.814  11.665  21.655  0.00  0.00    +0.000 F 
ATOM     18  F   UNL     1      -0.417  10.759  23.042  0.00  0.00    +0.000 F 
ENDBRANCH  13  15
BRANCH   7  20
ATOM     19  C   UNL     1      -1.543  12.230  18.105  0.00  0.00    +0.000 C 
ATOM     20  N   UNL     1      -0.402  12.344  19.009  0.00  0.00    +0.000 N 
ATOM     21  H   UNL     1      -0.605  12.950  19.800  0.00  0.00    +0.000 HD
ENDBRANCH   7  20
ENDBRANCH   1  10
BRANCH   4  22
ATOM     22  C   UNL     1       6.227   5.094  18.241  0.00  0.00    +0.000 C 
ATOM     23  N   UNL     1       7.205   4.467  18.305  0.00  0.00    +0.000 NA
ENDBRANCH   4  22
BRANCH   5  24
ATOM     24  O   UNL     1       4.078   4.472  19.789  0.00  0.00    +0.000 OA
BRANCH  24  25
ATOM     25  C   UNL     1       3.533   3.168  19.538  0.00  0.00    +0.000 C 
ATOM     26  C   UNL     1       2.047   3.321  19.130  0.00  0.00    +0.000 C 
ATOM     27  C   UNL     1       1.052   3.516  20.284  0.00  0.00    +0.000 C 
ATOM     28  C   UNL     1       1.341   2.702  21.540  0.00  0.00    +0.000 C 
ATOM     29  N   UNL     1       2.752   2.595  21.888  0.00  0.00    +0.000 NA
ATOM     30  C   UNL     1       3.625   2.239  20.765  0.00  0.00    +0.000 C 
ATOM     31  H   UNL     1       2.849   1.890  22.621  0.00  0.00    +0.000 HD
ENDBRANCH  24  25
ENDBRANCH   5  24
TORSDOF 6
ENDMDL
MODEL 5
REMARK VINA RESULT:      -7.4      2.090      2.653
REMARK  Name = 
REMARK  7 active torsions:
REMARK  status: ('A' for Active; 'I' for Inactive)
REMARK    1  A    between atoms: C_1  and  N_2
REMARK    2  A    between atoms: N_2  and  C_3
REMARK    3  A    between atoms: N_6  and  C_7
REMARK    4  A    between atoms: C_10  and  C_11
REMARK    5  A    between atoms: C_13  and  O_14
REMARK    6  A    between atoms: O_14  and  C_15
REMARK    7  A    between atoms: C_24  and  C_25
REMARK                            x       y       z     vdW  Elec       q    Type
REMARK                         _______ _______ _______ _____ _____    ______ ____
ROOT
ATOM      1  C   UNL     1       1.564   8.868  19.230  0.00  0.00    +0.000 A 
ATOM      2  C   UNL     1       1.389   8.110  20.384  0.00  0.00    +0.000 A 
ATOM      3  N   UNL     1       1.905   6.888  20.553  0.00  0.00    +0.000 NA
ATOM      4  C   UNL     1       2.655   6.415  19.514  0.00  0.00    +0.000 A 
ATOM      5  C   UNL     1       2.931   7.070  18.316  0.00  0.00    +0.000 A 
ATOM      6  C   UNL     1       2.357   8.335  18.181  0.00  0.00    +0.000 A 
ENDROOT
BRANCH   1  10
ATOM      7  C   UNL     1      -2.202  11.724  18.688  0.00  0.00    +0.000 A 
ATOM      8  N   UNL     1      -0.967  11.434  19.131  0.00  0.00    +0.000 NA
ATOM      9  C   UNL     1      -0.374  10.320  18.702  0.00  0.00    +0.000 A 
ATOM     10  N   UNL     1       0.910  10.097  19.155  0.00  0.00    +0.000 N 
ATOM     11  N   UNL     1      -0.931   9.454  17.855  0.00  0.00    +0.000 NA
ATOM     12  C   UNL     1      -2.155   9.760  17.414  0.00  0.00    +0.000 A 
ATOM     13  C   UNL     1      -2.845  10.891  17.796  0.00  0.00    +0.000 A 
ATOM     14  H   UNL     1       1.197  10.818  19.803  0.00  0.00    +0.000 HD
BRANCH  13  15
ATOM     15  C   UNL     1      -4.190  11.099  17.209  0.00  0.00    +0.000 C 
ATOM     16  F   UNL     1      -4.541  12.391  16.981  0.00  0.00    +0.000 F 
ATOM     17  F   UNL     1      -4.303  10.477  15.997  0.00  0.00    +0.000 F 
ATOM     18  F   UNL     1      -5.180  10.564  17.978  0.00  0.00    +0.000 F 
ENDBRANCH  13  15
BRANCH   7  20
ATOM     19  C   UNL     1      -3.586  12.628  20.440  0.00  0.00    +0.000 C 
ATOM     20  N   UNL     1      -2.822  12.859  19.217  0.00  0.00    +0.000 N 
ATOM     21  H   UNL     1      -2.166  13.630  19.321  0.00  0.00    +0.000 HD
ENDBRANCH   7  20
ENDBRANCH   1  10
BRANCH   4  22
ATOM     22  C   UNL     1       3.112   5.066  19.735  0.00  0.00    +0.000 C 
ATOM     23  N   UNL     1       3.479   3.978  19.924  0.00  0.00    +0.000 NA
ENDBRANCH   4  22
BRANCH   5  24
ATOM     24  O   UNL     1       3.695   6.372  17.421  0.00  0.00    +0.000 OA
BRANCH  24  25
ATOM     25  C   UNL     1       5.050   6.691  17.073  0.00  0.00    +0.000 C 
ATOM     26  C   UNL     1       5.239   6.461  15.553  0.00  0.00    +0.000 C 
ATOM     27  C   UNL     1       5.469   5.006  15.120  0.00  0.00    +0.000 C 
ATOM     28  C   UNL     1       6.340   4.174  16.056  0.00  0.00    +0.000 C 
ATOM     29  N   UNL     1       6.118   4.420  17.474  0.00  0.00    +0.000 NA
ATOM     30  C   UNL     1       6.078   5.839  17.843  0.00  0.00    +0.000 C 
ATOM     31  H   UNL     1       6.865   3.962  18.000  0.00  0.00    +0.000 HD
ENDBRANCH  24  25
ENDBRANCH   5  24
TORSDOF 6
ENDMDL
MODEL 6
REMARK VINA RESULT:      -7.4      4.189      8.403
REMARK  Name = 
REMARK  7 active torsions:
REMARK  status: ('A' for Active; 'I' for Inactive)
REMARK    1  A    between atoms: C_1  and  N_2
REMARK    2  A    between atoms: N_2  and  C_3
REMARK    3  A    between atoms: N_6  and  C_7
REMARK    4  A    between atoms: C_10  and  C_11
REMARK    5  A    between atoms: C_13  and  O_14
REMARK    6  A    between atoms: O_14  and  C_15
REMARK    7  A    between atoms: C_24  and  C_25
REMARK                            x       y       z     vdW  Elec       q    Type
REMARK                         _______ _______ _______ _____ _____    ______ ____
ROOT
ATOM      1  C   UNL     1       1.504   7.919  20.712  0.00  0.00    +0.000 A 
ATOM      2  C   UNL     1       1.730   8.541  21.936  0.00  0.00    +0.000 A 
ATOM      3  N   UNL     1       1.375   9.803  22.204  0.00  0.00    +0.000 NA
ATOM      4  C   UNL     1       0.738  10.463  21.192  0.00  0.00    +0.000 A 
ATOM      5  C   UNL     1       0.427   9.960  19.931  0.00  0.00    +0.000 A 
ATOM      6  C   UNL     1       0.834   8.646  19.695  0.00  0.00    +0.000 A 
ENDROOT
BRANCH   1  10
ATOM      7  C   UNL     1       4.437   4.610  18.956  0.00  0.00    +0.000 A 
ATOM      8  N   UNL     1       3.574   5.090  19.867  0.00  0.00    +0.000 NA
ATOM      9  C   UNL     1       2.896   6.203  19.589  0.00  0.00    +0.000 A 
ATOM     10  N   UNL     1       1.992   6.624  20.542  0.00  0.00    +0.000 N 
ATOM     11  N   UNL     1       3.021   6.890  18.453  0.00  0.00    +0.000 NA
ATOM     12  C   UNL     1       3.875   6.397  17.552  0.00  0.00    +0.000 A 
ATOM     13  C   UNL     1       4.615   5.250  17.747  0.00  0.00    +0.000 A 
ATOM     14  H   UNL     1       2.016   6.025  21.355  0.00  0.00    +0.000 HD
BRANCH  13  15
ATOM     15  C   UNL     1       5.510   4.821  16.646  0.00  0.00    +0.000 C 
ATOM     16  F   UNL     1       6.833   4.763  16.949  0.00  0.00    +0.000 F 
ATOM     17  F   UNL     1       5.187   3.568  16.207  0.00  0.00    +0.000 F 
ATOM     18  F   UNL     1       5.404   5.622  15.549  0.00  0.00    +0.000 F 
ENDBRANCH  13  15
BRANCH   7  20
ATOM     19  C   UNL     1       4.414   2.397  19.907  0.00  0.00    +0.000 C 
ATOM     20  N   UNL     1       5.186   3.485  19.314  0.00  0.00    +0.000 N 
ATOM     21  H   UNL     1       5.767   3.162  18.544  0.00  0.00    +0.000 HD
ENDBRANCH   7  20
ENDBRANCH   1  10
BRANCH   4  22
ATOM     22  C   UNL     1       0.456  11.837  21.524  0.00  0.00    +0.000 C 
ATOM     23  N   UNL     1       0.236  12.946  21.800  0.00  0.00    +0.000 NA
ENDBRANCH   4  22
BRANCH   5  24
ATOM     24  O   UNL     1      -0.199  10.832  19.083  0.00  0.00    +0.000 OA
BRANCH  24  25
ATOM     25  C   UNL     1      -1.617  11.051  19.029  0.00  0.00    +0.000 C 
ATOM     26  C   UNL     1      -2.289   9.801  18.409  0.00  0.00    +0.000 C 
ATOM     27  C   UNL     1      -2.245   9.709  16.876  0.00  0.00    +0.000 C 
ATOM     28  C   UNL     1      -2.428  11.029  16.136  0.00  0.00    +0.000 C 
ATOM     29  N   UNL     1      -1.769  12.172  16.754  0.00  0.00    +0.000 NA
ATOM     30  C   UNL     1      -1.995  12.292  18.198  0.00  0.00    +0.000 C 
ATOM     31  H   UNL     1      -2.102  13.022  16.294  0.00  0.00    +0.000 HD
ENDBRANCH  24  25
ENDBRANCH   5  24
TORSDOF 6
ENDMDL
MODEL 7
REMARK VINA RESULT:      -7.3      2.045      2.654
REMARK  Name = 
REMARK  7 active torsions:
REMARK  status: ('A' for Active; 'I' for Inactive)
REMARK    1  A    between atoms: C_1  and  N_2
REMARK    2  A    between atoms: N_2  and  C_3
REMARK    3  A    between atoms: N_6  and  C_7
REMARK    4  A    between atoms: C_10  and  C_11
REMARK    5  A    between atoms: C_13  and  O_14
REMARK    6  A    between atoms: O_14  and  C_15
REMARK    7  A    between atoms: C_24  and  C_25
REMARK                            x       y       z     vdW  Elec       q    Type
REMARK                         _______ _______ _______ _____ _____    ______ ____
ROOT
ATOM      1  C   UNL     1       1.987   8.858  18.742  0.00  0.00    +0.000 A 
ATOM      2  C   UNL     1       1.761   8.152  19.920  0.00  0.00    +0.000 A 
ATOM      3  N   UNL     1       2.191   6.902  20.129  0.00  0.00    +0.000 NA
ATOM      4  C   UNL     1       2.905   6.345  19.107  0.00  0.00    +0.000 A 
ATOM      5  C   UNL     1       3.224   6.940  17.889  0.00  0.00    +0.000 A 
ATOM      6  C   UNL     1       2.738   8.237  17.712  0.00  0.00    +0.000 A 
ENDROOT
BRANCH   1  10
ATOM      7  C   UNL     1      -1.590  11.994  18.684  0.00  0.00    +0.000 A 
ATOM      8  N   UNL     1      -0.304  11.640  18.847  0.00  0.00    +0.000 NA
ATOM      9  C   UNL     1       0.080  10.419  18.478  0.00  0.00    +0.000 A 
ATOM     10  N   UNL     1       1.419  10.127  18.627  0.00  0.00    +0.000 N 
ATOM     11  N   UNL     1      -0.738   9.504  17.955  0.00  0.00    +0.000 NA
ATOM     12  C   UNL     1      -2.011   9.873  17.788  0.00  0.00    +0.000 A 
ATOM     13  C   UNL     1      -2.500  11.115  18.134  0.00  0.00    +0.000 A 
ATOM     14  H   UNL     1       1.914  10.898  19.052  0.00  0.00    +0.000 HD
BRANCH  13  15
ATOM     15  C   UNL     1      -3.934  11.379  17.875  0.00  0.00    +0.000 C 
ATOM     16  F   UNL     1      -4.750  10.293  17.901  0.00  0.00    +0.000 F 
ATOM     17  F   UNL     1      -4.454  12.241  18.799  0.00  0.00    +0.000 F 
ATOM     18  F   UNL     1      -4.141  11.982  16.670  0.00  0.00    +0.000 F 
ENDBRANCH  13  15
BRANCH   7  20
ATOM     19  C   UNL     1      -1.075  13.838  20.147  0.00  0.00    +0.000 C 
ATOM     20  N   UNL     1      -1.972  13.255  19.153  0.00  0.00    +0.000 N 
ATOM     21  H   UNL     1      -2.158  13.898  18.387  0.00  0.00    +0.000 HD
ENDBRANCH   7  20
ENDBRANCH   1  10
BRANCH   4  22
ATOM     22  C   UNL     1       3.266   4.975  19.372  0.00  0.00    +0.000 C 
ATOM     23  N   UNL     1       3.561   3.872  19.595  0.00  0.00    +0.000 NA
ENDBRANCH   4  22
BRANCH   5  24
ATOM     24  O   UNL     1       3.935   6.163  17.017  0.00  0.00    +0.000 OA
BRANCH  24  25
ATOM     25  C   UNL     1       5.152   6.559  16.366  0.00  0.00    +0.000 C 
ATOM     26  C   UNL     1       5.579   5.437  15.388  0.00  0.00    +0.000 C 
ATOM     27  C   UNL     1       6.306   4.241  16.018  0.00  0.00    +0.000 C 
ATOM     28  C   UNL     1       7.279   4.584  17.141  0.00  0.00    +0.000 C 
ATOM     29  N   UNL     1       6.828   5.637  18.039  0.00  0.00    +0.000 NA
ATOM     30  C   UNL     1       6.299   6.825  17.361  0.00  0.00    +0.000 C 
ATOM     31  H   UNL     1       7.614   5.915  18.629  0.00  0.00    +0.000 HD
ENDBRANCH  24  25
ENDBRANCH   5  24
TORSDOF 6
ENDMDL
MODEL 8
REMARK VINA RESULT:      -7.2      0.782      1.460
REMARK  Name = 
REMARK  7 active torsions:
REMARK  status: ('A' for Active; 'I' for Inactive)
REMARK    1  A    between atoms: C_1  and  N_2
REMARK    2  A    between atoms: N_2  and  C_3
REMARK    3  A    between atoms: N_6  and  C_7
REMARK    4  A    between atoms: C_10  and  C_11
REMARK    5  A    between atoms: C_13  and  O_14
REMARK    6  A    between atoms: O_14  and  C_15
REMARK    7  A    between atoms: C_24  and  C_25
REMARK                            x       y       z     vdW  Elec       q    Type
REMARK                         _______ _______ _______ _____ _____    ______ ____
ROOT
ATOM      1  C   UNL     1       2.162   6.647  20.083  0.00  0.00    +0.000 A 
ATOM      2  C   UNL     1       1.429   5.527  20.467  0.00  0.00    +0.000 A 
ATOM      3  N   UNL     1       1.472   4.357  19.821  0.00  0.00    +0.000 NA
ATOM      4  C   UNL     1       2.315   4.306  18.748  0.00  0.00    +0.000 A 
ATOM      5  C   UNL     1       3.121   5.335  18.268  0.00  0.00    +0.000 A 
ATOM      6  C   UNL     1       3.028   6.541  18.965  0.00  0.00    +0.000 A 
ENDROOT
BRANCH   1  10
ATOM      7  C   UNL     1       0.087  10.819  21.045  0.00  0.00    +0.000 A 
ATOM      8  N   UNL     1       0.782   9.717  21.375  0.00  0.00    +0.000 NA
ATOM      9  C   UNL     1       1.223   8.918  20.404  0.00  0.00    +0.000 A 
ATOM     10  N   UNL     1       1.968   7.827  20.801  0.00  0.00    +0.000 N 
ATOM     11  N   UNL     1       1.015   9.135  19.105  0.00  0.00    +0.000 NA
ATOM     12  C   UNL     1       0.332  10.238  18.790  0.00  0.00    +0.000 A 
ATOM     13  C   UNL     1      -0.159  11.128  19.723  0.00  0.00    +0.000 A 
ATOM     14  H   UNL     1       2.029   7.775  21.808  0.00  0.00    +0.000 HD
BRANCH  13  15
ATOM     15  C   UNL     1      -0.885  12.315  19.216  0.00  0.00    +0.000 C 
ATOM     16  F   UNL     1      -2.129  12.509  19.727  0.00  0.00    +0.000 F 
ATOM     17  F   UNL     1      -0.202  13.467  19.489  0.00  0.00    +0.000 F 
ATOM     18  F   UNL     1      -1.028  12.298  17.861  0.00  0.00    +0.000 F 
ENDBRANCH  13  15
BRANCH   7  20
ATOM     19  C   UNL     1      -1.179  10.845  23.094  0.00  0.00    +0.000 C 
ATOM     20  N   UNL     1      -0.425  11.591  22.092  0.00  0.00    +0.000 N 
ATOM     21  H   UNL     1       0.296  12.172  22.515  0.00  0.00    +0.000 HD
ENDBRANCH   7  20
ENDBRANCH   1  10
BRANCH   4  22
ATOM     22  C   UNL     1       2.250   3.042  18.058  0.00  0.00    +0.000 C 
ATOM     23  N   UNL     1       2.188   2.024  17.498  0.00  0.00    +0.000 NA
ENDBRANCH   4  22
BRANCH   5  24
ATOM     24  O   UNL     1       3.865   5.038  17.159  0.00  0.00    +0.000 OA
BRANCH  24  25
ATOM     25  C   UNL     1       5.103   4.311  17.170  0.00  0.00    +0.000 C 
ATOM     26  C   UNL     1       5.889   4.689  18.450  0.00  0.00    +0.000 C 
ATOM     27  C   UNL     1       6.667   6.012  18.391  0.00  0.00    +0.000 C 
ATOM     28  C   UNL     1       7.335   6.320  17.056  0.00  0.00    +0.000 C 
ATOM     29  N   UNL     1       6.552   5.955  15.883  0.00  0.00    +0.000 NA
ATOM     30  C   UNL     1       5.977   4.607  15.935  0.00  0.00    +0.000 C 
ATOM     31  H   UNL     1       7.153   6.027  15.060  0.00  0.00    +0.000 HD
ENDBRANCH  24  25
ENDBRANCH   5  24
TORSDOF 6
ENDMDL
MODEL 9
REMARK VINA RESULT:      -7.2      4.674      8.885
REMARK  Name = 
REMARK  7 active torsions:
REMARK  status: ('A' for Active; 'I' for Inactive)
REMARK    1  A    between atoms: C_1  and  N_2
REMARK    2  A    between atoms: N_2  and  C_3
REMARK    3  A    between atoms: N_6  and  C_7
REMARK    4  A    between atoms: C_10  and  C_11
REMARK    5  A    between atoms: C_13  and  O_14
REMARK    6  A    between atoms: O_14  and  C_15
REMARK    7  A    between atoms: C_24  and  C_25
REMARK                            x       y       z     vdW  Elec       q    Type
REMARK                         _______ _______ _______ _____ _____    ______ ____
ROOT
ATOM      1  C   UNL     1       1.701   8.718  18.763  0.00  0.00    +0.000 A 
ATOM      2  C   UNL     1       1.739   9.176  20.077  0.00  0.00    +0.000 A 
ATOM      3  N   UNL     1       0.844  10.026  20.592  0.00  0.00    +0.000 NA
ATOM      4  C   UNL     1      -0.154  10.416  19.745  0.00  0.00    +0.000 A 
ATOM      5  C   UNL     1      -0.329  10.022  18.420  0.00  0.00    +0.000 A 
ATOM      6  C   UNL     1       0.640   9.148  17.925  0.00  0.00    +0.000 A 
ENDROOT
BRANCH   1  10
ATOM      7  C   UNL     1       3.695   4.568  17.563  0.00  0.00    +0.000 A 
ATOM      8  N   UNL     1       3.595   5.908  17.531  0.00  0.00    +0.000 NA
ATOM      9  C   UNL     1       2.766   6.513  18.382  0.00  0.00    +0.000 A 
ATOM     10  N   UNL     1       2.739   7.891  18.334  0.00  0.00    +0.000 N 
ATOM     11  N   UNL     1       2.010   5.871  19.273  0.00  0.00    +0.000 NA
ATOM     12  C   UNL     1       2.127   4.540  19.300  0.00  0.00    +0.000 A 
ATOM     13  C   UNL     1       2.961   3.827  18.466  0.00  0.00    +0.000 A 
ATOM     14  H   UNL     1       3.341   8.242  17.602  0.00  0.00    +0.000 HD
BRANCH  13  15
ATOM     15  C   UNL     1       2.991   2.355  18.627  0.00  0.00    +0.000 C 
ATOM     16  F   UNL     1       2.108   1.840  19.523  0.00  0.00    +0.000 F 
ATOM     17  F   UNL     1       2.716   1.722  17.448  0.00  0.00    +0.000 F 
ATOM     18  F   UNL     1       4.220   1.899  18.998  0.00  0.00    +0.000 F 
ENDBRANCH  13  15
BRANCH   7  20
ATOM     19  C   UNL     1       5.927   4.331  16.688  0.00  0.00    +0.000 C 
ATOM     20  N   UNL     1       4.516   3.965  16.605  0.00  0.00    +0.000 N 
ATOM     21  H   UNL     1       4.387   2.956  16.584  0.00  0.00    +0.000 HD
ENDBRANCH   7  20
ENDBRANCH   1  10
BRANCH   4  22
ATOM     22  C   UNL     1      -1.033  11.390  20.343  0.00  0.00    +0.000 C 
ATOM     23  N   UNL     1      -1.748  12.168  20.830  0.00  0.00    +0.000 NA
ENDBRANCH   4  22
BRANCH   5  24
ATOM     24  O   UNL     1      -1.401  10.571  17.774  0.00  0.00    +0.000 OA
BRANCH  24  25
ATOM     25  C   UNL     1      -2.650   9.903  17.538  0.00  0.00    +0.000 C 
ATOM     26  C   UNL     1      -2.748   9.555  16.032  0.00  0.00    +0.000 C 
ATOM     27  C   UNL     1      -3.186  10.700  15.107  0.00  0.00    +0.000 C 
ATOM     28  C   UNL     1      -4.259  11.624  15.673  0.00  0.00    +0.000 C 
ATOM     29  N   UNL     1      -4.117  11.929  17.090  0.00  0.00    +0.000 NA
ATOM     30  C   UNL     1      -3.868  10.758  17.938  0.00  0.00    +0.000 C 
ATOM     31  H   UNL     1      -4.972  12.391  17.406  0.00  0.00    +0.000 HD
ENDBRANCH  24  25
ENDBRANCH   5  24
TORSDOF 6
ENDMDL
