MODEL 1
REMARK VINA RESULT:      -8.3      0.000      0.000
REMARK  Name = 
REMARK  3 active torsions:
REMARK  status: ('A' for Active; 'I' for Inactive)
REMARK    1  A    between atoms: C_5  and  C_6
REMARK    2  A    between atoms: C_6  and  C_7
REMARK    3  A    between atoms: C_7  and  N_8
REMARK                            x       y       z     vdW  Elec       q    Type
REMARK                         _______ _______ _______ _____ _____    ______ ____
ROOT
ATOM      1  N   UNL     1       3.820   3.654  18.595  0.00  0.00    +0.000 NA
ATOM      2  C   UNL     1       2.768   4.697  18.499  0.00  0.00    +0.000 C 
ATOM      3  C   UNL     1       1.443   4.142  17.942  0.00  0.00    +0.000 C 
ATOM      4  C   UNL     1       0.946   2.996  18.838  0.00  0.00    +0.000 C 
ATOM      5  C   UNL     1       0.707   3.537  20.259  0.00  0.00    +0.000 C 
ATOM      6  C   UNL     1       2.011   4.123  20.832  0.00  0.00    +0.000 C 
ATOM      7  C   UNL     1       2.510   5.249  19.916  0.00  0.00    +0.000 C 
ATOM      8  C   UNL     1       3.092   3.031  20.858  0.00  0.00    +0.000 C 
ATOM      9  C   UNL     1       3.346   2.515  19.424  0.00  0.00    +0.000 C 
ATOM     10  C   UNL     1       2.032   1.911  18.886  0.00  0.00    +0.000 C 
ENDROOT
BRANCH   1  11
ATOM     11  C   UNL     1       4.372   3.212  17.297  0.00  0.00    +0.000 C 
BRANCH  11  12
ATOM     12  C   UNL     1       4.832   4.382  16.402  0.00  0.00    +0.000 C 
BRANCH  12  17
ATOM     13  F   UNL     1       8.711   7.649  18.891  0.00  0.00    +0.000 F 
ATOM     14  C   UNL     1       7.820   6.871  18.264  0.00  0.00    +0.000 A 
ATOM     15  C   UNL     1       6.879   7.447  17.420  0.00  0.00    +0.000 A 
ATOM     16  C   UNL     1       5.932   6.641  16.785  0.00  0.00    +0.000 A 
ATOM     17  C   UNL     1       5.928   5.250  16.989  0.00  0.00    +0.000 A 
ATOM     18  C   UNL     1       6.893   4.689  17.841  0.00  0.00    +0.000 A 
ATOM     19  C   UNL     1       7.838   5.499  18.476  0.00  0.00    +0.000 A 
ENDBRANCH  12  17
ENDBRANCH  11  12
ENDBRANCH   1  11
TORSDOF 3
ENDMDL
MODEL 2
REMARK VINA RESULT:      -8.2      0.160      1.118
REMARK  Name = 
REMARK  3 active torsions:
REMARK  status: ('A' for Active; 'I' for Inactive)
REMARK    1  A    between atoms: C_5  and  C_6
REMARK    2  A    between atoms: C_6  and  C_7
REMARK    3  A    between atoms: C_7  and  N_8
REMARK                            x       y       z     vdW  Elec       q    Type
REMARK                         _______ _______ _______ _____ _____    ______ ____
ROOT
ATOM      1  N   UNL     1       3.777   3.614  18.637  0.00  0.00    +0.000 NA
ATOM      2  C   UNL     1       2.699   4.631  18.561  0.00  0.00    +0.000 C 
ATOM      3  C   UNL     1       1.398   4.059  17.964  0.00  0.00    +0.000 C 
ATOM      4  C   UNL     1       0.919   2.870  18.812  0.00  0.00    +0.000 C 
ATOM      5  C   UNL     1       0.645   3.354  20.248  0.00  0.00    +0.000 C 
ATOM      6  C   UNL     1       1.924   3.955  20.861  0.00  0.00    +0.000 C 
ATOM      7  C   UNL     1       2.405   5.126  19.992  0.00  0.00    +0.000 C 
ATOM      8  C   UNL     1       3.034   2.892  20.865  0.00  0.00    +0.000 C 
ATOM      9  C   UNL     1       3.323   2.434  19.419  0.00  0.00    +0.000 C 
ATOM     10  C   UNL     1       2.034   1.814  18.840  0.00  0.00    +0.000 C 
ENDROOT
BRANCH   1  11
ATOM     11  C   UNL     1       4.360   3.233  17.333  0.00  0.00    +0.000 C 
BRANCH  11  12
ATOM     12  C   UNL     1       4.834   4.443  16.502  0.00  0.00    +0.000 C 
BRANCH  12  17
ATOM     13  F   UNL     1       8.791   7.757  18.799  0.00  0.00    +0.000 F 
ATOM     14  C   UNL     1       7.826   6.981  18.292  0.00  0.00    +0.000 A 
ATOM     15  C   UNL     1       7.760   5.641  18.654  0.00  0.00    +0.000 A 
ATOM     16  C   UNL     1       6.770   4.823  18.105  0.00  0.00    +0.000 A 
ATOM     17  C   UNL     1       5.836   5.347  17.194  0.00  0.00    +0.000 A 
ATOM     18  C   UNL     1       5.918   6.706  16.848  0.00  0.00    +0.000 A 
ATOM     19  C   UNL     1       6.911   7.520  17.397  0.00  0.00    +0.000 A 
ENDBRANCH  12  17
ENDBRANCH  11  12
ENDBRANCH   1  11
TORSDOF 3
ENDMDL
MODEL 3
REMARK VINA RESULT:      -8.0      0.847      2.020
REMARK  Name = 
REMARK  3 active torsions:
REMARK  status: ('A' for Active; 'I' for Inactive)
REMARK    1  A    between atoms: C_5  and  C_6
REMARK    2  A    between atoms: C_6  and  C_7
REMARK    3  A    between atoms: C_7  and  N_8
REMARK                            x       y       z     vdW  Elec       q    Type
REMARK                         _______ _______ _______ _____ _____    ______ ____
ROOT
ATOM      1  N   UNL     1       3.592   3.282  17.856  0.00  0.00    +0.000 NA
ATOM      2  C   UNL     1       4.029   3.645  19.228  0.00  0.00    +0.000 C 
ATOM      3  C   UNL     1       3.486   5.017  19.669  0.00  0.00    +0.000 C 
ATOM      4  C   UNL     1       1.950   5.010  19.607  0.00  0.00    +0.000 C 
ATOM      5  C   UNL     1       1.413   3.926  20.559  0.00  0.00    +0.000 C 
ATOM      6  C   UNL     1       1.960   2.544  20.156  0.00  0.00    +0.000 C 
ATOM      7  C   UNL     1       3.495   2.571  20.199  0.00  0.00    +0.000 C 
ATOM      8  C   UNL     1       1.541   2.233  18.711  0.00  0.00    +0.000 C 
ATOM      9  C   UNL     1       2.110   3.309  17.759  0.00  0.00    +0.000 C 
ATOM     10  C   UNL     1       1.525   4.676  18.169  0.00  0.00    +0.000 C 
ENDROOT
BRANCH   1  11
ATOM     11  C   UNL     1       4.240   4.058  16.777  0.00  0.00    +0.000 C 
BRANCH  11  12
ATOM     12  C   UNL     1       5.779   3.952  16.791  0.00  0.00    +0.000 C 
BRANCH  12  17
ATOM     13  F   UNL     1       8.740   8.323  18.803  0.00  0.00    +0.000 F 
ATOM     14  C   UNL     1       8.003   7.298  18.356  0.00  0.00    +0.000 A 
ATOM     15  C   UNL     1       8.093   6.063  18.986  0.00  0.00    +0.000 A 
ATOM     16  C   UNL     1       7.346   4.985  18.505  0.00  0.00    +0.000 A 
ATOM     17  C   UNL     1       6.501   5.143  17.393  0.00  0.00    +0.000 A 
ATOM     18  C   UNL     1       6.421   6.402  16.777  0.00  0.00    +0.000 A 
ATOM     19  C   UNL     1       7.171   7.478  17.259  0.00  0.00    +0.000 A 
ENDBRANCH  12  17
ENDBRANCH  11  12
ENDBRANCH   1  11
TORSDOF 3
ENDMDL
MODEL 4
REMARK VINA RESULT:      -8.0      2.140      2.687
REMARK  Name = 
REMARK  3 active torsions:
REMARK  status: ('A' for Active; 'I' for Inactive)
REMARK    1  A    between atoms: C_5  and  C_6
REMARK    2  A    between atoms: C_6  and  C_7
REMARK    3  A    between atoms: C_7  and  N_8
REMARK                            x       y       z     vdW  Elec       q    Type
REMARK                         _______ _______ _______ _____ _____    ______ ____
ROOT
ATOM      1  N   UNL     1       3.857   4.082  19.787  0.00  0.00    +0.000 NA
ATOM      2  C   UNL     1       2.731   4.843  19.192  0.00  0.00    +0.000 C 
ATOM      3  C   UNL     1       2.130   4.134  17.963  0.00  0.00    +0.000 C 
ATOM      4  C   UNL     1       1.645   2.731  18.362  0.00  0.00    +0.000 C 
ATOM      5  C   UNL     1       0.560   2.864  19.447  0.00  0.00    +0.000 C 
ATOM      6  C   UNL     1       1.126   3.593  20.680  0.00  0.00    +0.000 C 
ATOM      7  C   UNL     1       1.629   4.983  20.263  0.00  0.00    +0.000 C 
ATOM      8  C   UNL     1       2.328   2.808  21.228  0.00  0.00    +0.000 C 
ATOM      9  C   UNL     1       3.423   2.706  20.143  0.00  0.00    +0.000 C 
ATOM     10  C   UNL     1       2.837   1.949  18.933  0.00  0.00    +0.000 C 
ENDROOT
BRANCH   1  11
ATOM     11  C   UNL     1       5.099   4.088  18.984  0.00  0.00    +0.000 C 
BRANCH  11  12
ATOM     12  C   UNL     1       5.190   5.284  18.013  0.00  0.00    +0.000 C 
BRANCH  12  17
ATOM     13  F   UNL     1       7.091   4.391  12.768  0.00  0.00    +0.000 F 
ATOM     14  C   UNL     1       6.654   4.559  14.023  0.00  0.00    +0.000 A 
ATOM     15  C   UNL     1       5.363   4.172  14.358  0.00  0.00    +0.000 A 
ATOM     16  C   UNL     1       4.896   4.371  15.659  0.00  0.00    +0.000 A 
ATOM     17  C   UNL     1       5.725   4.954  16.633  0.00  0.00    +0.000 A 
ATOM     18  C   UNL     1       7.029   5.330  16.273  0.00  0.00    +0.000 A 
ATOM     19  C   UNL     1       7.492   5.132  14.970  0.00  0.00    +0.000 A 
ENDBRANCH  12  17
ENDBRANCH  11  12
ENDBRANCH   1  11
TORSDOF 3
ENDMDL
MODEL 5
REMARK VINA RESULT:      -8.0      2.114      2.706
REMARK  Name = 
REMARK  3 active torsions:
REMARK  status: ('A' for Active; 'I' for Inactive)
REMARK    1  A    between atoms: C_5  and  C_6
REMARK    2  A    between atoms: C_6  and  C_7
REMARK    3  A    between atoms: C_7  and  N_8
REMARK                            x       y       z     vdW  Elec       q    Type
REMARK                         _______ _______ _______ _____ _____    ______ ____
ROOT
ATOM      1  N   UNL     1       3.891   4.145  19.864  0.00  0.00    +0.000 NA
ATOM      2  C   UNL     1       2.736   4.883  19.295  0.00  0.00    +0.000 C 
ATOM      3  C   UNL     1       2.143   4.177  18.061  0.00  0.00    +0.000 C 
ATOM      4  C   UNL     1       1.703   2.755  18.441  0.00  0.00    +0.000 C 
ATOM      5  C   UNL     1       0.627   2.837  19.540  0.00  0.00    +0.000 C 
ATOM      6  C   UNL     1       1.186   3.562  20.779  0.00  0.00    +0.000 C 
ATOM      7  C   UNL     1       1.643   4.973  20.381  0.00  0.00    +0.000 C 
ATOM      8  C   UNL     1       2.417   2.804  21.300  0.00  0.00    +0.000 C 
ATOM      9  C   UNL     1       3.502   2.752  20.202  0.00  0.00    +0.000 C 
ATOM     10  C   UNL     1       2.924   1.998  18.986  0.00  0.00    +0.000 C 
ENDROOT
BRANCH   1  11
ATOM     11  C   UNL     1       5.123   4.202  19.048  0.00  0.00    +0.000 C 
BRANCH  11  12
ATOM     12  C   UNL     1       5.198   5.451  18.146  0.00  0.00    +0.000 C 
BRANCH  12  17
ATOM     13  F   UNL     1       7.020   4.148  12.959  0.00  0.00    +0.000 F 
ATOM     14  C   UNL     1       6.579   4.500  14.173  0.00  0.00    +0.000 A 
ATOM     15  C   UNL     1       7.459   5.070  15.085  0.00  0.00    +0.000 A 
ATOM     16  C   UNL     1       7.008   5.413  16.361  0.00  0.00    +0.000 A 
ATOM     17  C   UNL     1       5.669   5.193  16.727  0.00  0.00    +0.000 A 
ATOM     18  C   UNL     1       4.796   4.623  15.786  0.00  0.00    +0.000 A 
ATOM     19  C   UNL     1       5.251   4.278  14.512  0.00  0.00    +0.000 A 
ENDBRANCH  12  17
ENDBRANCH  11  12
ENDBRANCH   1  11
TORSDOF 3
ENDMDL
MODEL 6
REMARK VINA RESULT:      -7.9      0.814      1.834
REMARK  Name = 
REMARK  3 active torsions:
REMARK  status: ('A' for Active; 'I' for Inactive)
REMARK    1  A    between atoms: C_5  and  C_6
REMARK    2  A    between atoms: C_6  and  C_7
REMARK    3  A    between atoms: C_7  and  N_8
REMARK                            x       y       z     vdW  Elec       q    Type
REMARK                         _______ _______ _______ _____ _____    ______ ____
ROOT
ATOM      1  N   UNL     1       3.356   3.515  17.774  0.00  0.00    +0.000 NA
ATOM      2  C   UNL     1       3.873   3.651  19.159  0.00  0.00    +0.000 C 
ATOM      3  C   UNL     1       3.646   5.063  19.732  0.00  0.00    +0.000 C 
ATOM      4  C   UNL     1       2.145   5.393  19.713  0.00  0.00    +0.000 C 
ATOM      5  C   UNL     1       1.394   4.369  20.584  0.00  0.00    +0.000 C 
ATOM      6  C   UNL     1       1.624   2.943  20.047  0.00  0.00    +0.000 C 
ATOM      7  C   UNL     1       3.128   2.635  20.049  0.00  0.00    +0.000 C 
ATOM      8  C   UNL     1       1.134   2.861  18.593  0.00  0.00    +0.000 C 
ATOM      9  C   UNL     1       1.914   3.870  17.722  0.00  0.00    +0.000 C 
ATOM     10  C   UNL     1       1.644   5.289  18.265  0.00  0.00    +0.000 C 
ENDROOT
BRANCH   1  11
ATOM     11  C   UNL     1       4.146   4.227  16.747  0.00  0.00    +0.000 C 
BRANCH  11  12
ATOM     12  C   UNL     1       5.654   3.908  16.810  0.00  0.00    +0.000 C 
BRANCH  12  17
ATOM     13  F   UNL     1       8.668   8.227  18.856  0.00  0.00    +0.000 F 
ATOM     14  C   UNL     1       7.990   7.194  18.342  0.00  0.00    +0.000 A 
ATOM     15  C   UNL     1       7.200   7.383  17.215  0.00  0.00    +0.000 A 
ATOM     16  C   UNL     1       6.470   6.313  16.693  0.00  0.00    +0.000 A 
ATOM     17  C   UNL     1       6.534   5.045  17.296  0.00  0.00    +0.000 A 
ATOM     18  C   UNL     1       7.344   4.875  18.430  0.00  0.00    +0.000 A 
ATOM     19  C   UNL     1       8.071   5.948  18.951  0.00  0.00    +0.000 A 
ENDBRANCH  12  17
ENDBRANCH  11  12
ENDBRANCH   1  11
TORSDOF 3
ENDMDL
MODEL 7
REMARK VINA RESULT:      -7.9      2.018      3.284
REMARK  Name = 
REMARK  3 active torsions:
REMARK  status: ('A' for Active; 'I' for Inactive)
REMARK    1  A    between atoms: C_5  and  C_6
REMARK    2  A    between atoms: C_6  and  C_7
REMARK    3  A    between atoms: C_7  and  N_8
REMARK                            x       y       z     vdW  Elec       q    Type
REMARK                         _______ _______ _______ _____ _____    ______ ____
ROOT
ATOM      1  N   UNL     1       3.938   4.204  18.852  0.00  0.00    +0.000 NA
ATOM      2  C   UNL     1       3.659   2.817  19.301  0.00  0.00    +0.000 C 
ATOM      3  C   UNL     1       3.017   2.774  20.701  0.00  0.00    +0.000 C 
ATOM      4  C   UNL     1       1.710   3.582  20.696  0.00  0.00    +0.000 C 
ATOM      5  C   UNL     1       0.738   2.959  19.677  0.00  0.00    +0.000 C 
ATOM      6  C   UNL     1       1.364   2.966  18.270  0.00  0.00    +0.000 C 
ATOM      7  C   UNL     1       2.681   2.176  18.294  0.00  0.00    +0.000 C 
ATOM      8  C   UNL     1       1.696   4.411  17.867  0.00  0.00    +0.000 C 
ATOM      9  C   UNL     1       2.695   5.018  18.878  0.00  0.00    +0.000 C 
ATOM     10  C   UNL     1       2.031   5.022  20.271  0.00  0.00    +0.000 C 
ENDROOT
BRANCH   1  11
ATOM     11  C   UNL     1       5.057   4.867  19.555  0.00  0.00    +0.000 C 
BRANCH  11  12
ATOM     12  C   UNL     1       5.757   5.946  18.702  0.00  0.00    +0.000 C 
BRANCH  12  17
ATOM     13  F   UNL     1       6.406   4.273  13.345  0.00  0.00    +0.000 F 
ATOM     14  C   UNL     1       6.285   4.703  14.607  0.00  0.00    +0.000 A 
ATOM     15  C   UNL     1       7.113   4.179  15.593  0.00  0.00    +0.000 A 
ATOM     16  C   UNL     1       6.970   4.606  16.915  0.00  0.00    +0.000 A 
ATOM     17  C   UNL     1       6.000   5.565  17.254  0.00  0.00    +0.000 A 
ATOM     18  C   UNL     1       5.180   6.085  16.240  0.00  0.00    +0.000 A 
ATOM     19  C   UNL     1       5.323   5.654  14.919  0.00  0.00    +0.000 A 
ENDBRANCH  12  17
ENDBRANCH  11  12
ENDBRANCH   1  11
TORSDOF 3
ENDMDL
MODEL 8
REMARK VINA RESULT:      -7.8      2.597      5.940
REMARK  Name = 
REMARK  3 active torsions:
REMARK  status: ('A' for Active; 'I' for Inactive)
REMARK    1  A    between atoms: C_5  and  C_6
REMARK    2  A    between atoms: C_6  and  C_7
REMARK    3  A    between atoms: C_7  and  N_8
REMARK                            x       y       z     vdW  Elec       q    Type
REMARK                         _______ _______ _______ _____ _____    ______ ____
ROOT
ATOM      1  N   UNL     1       5.232   4.114  17.554  0.00  0.00    +0.000 NA
ATOM      2  C   UNL     1       6.333   4.365  16.590  0.00  0.00    +0.000 C 
ATOM      3  C   UNL     1       6.104   5.645  15.763  0.00  0.00    +0.000 C 
ATOM      4  C   UNL     1       5.965   6.851  16.706  0.00  0.00    +0.000 C 
ATOM      5  C   UNL     1       7.262   7.004  17.522  0.00  0.00    +0.000 C 
ATOM      6  C   UNL     1       7.529   5.726  18.341  0.00  0.00    +0.000 C 
ATOM      7  C   UNL     1       7.642   4.526  17.390  0.00  0.00    +0.000 C 
ATOM      8  C   UNL     1       6.340   5.466  19.280  0.00  0.00    +0.000 C 
ATOM      9  C   UNL     1       5.050   5.284  18.450  0.00  0.00    +0.000 C 
ATOM     10  C   UNL     1       4.793   6.586  17.663  0.00  0.00    +0.000 C 
ENDROOT
BRANCH   1  11
ATOM     11  C   UNL     1       3.961   3.675  16.939  0.00  0.00    +0.000 C 
BRANCH  11  12
ATOM     12  C   UNL     1       3.467   2.313  17.469  0.00  0.00    +0.000 C 
BRANCH  12  17
ATOM     13  F   UNL     1       0.863   2.856  22.453  0.00  0.00    +0.000 F 
ATOM     14  C   UNL     1       1.475   2.680  21.276  0.00  0.00    +0.000 A 
ATOM     15  C   UNL     1       2.851   2.485  21.239  0.00  0.00    +0.000 A 
ATOM     16  C   UNL     1       3.496   2.329  20.010  0.00  0.00    +0.000 A 
ATOM     17  C   UNL     1       2.763   2.361  18.811  0.00  0.00    +0.000 A 
ATOM     18  C   UNL     1       1.373   2.553  18.873  0.00  0.00    +0.000 A 
ATOM     19  C   UNL     1       0.731   2.712  20.103  0.00  0.00    +0.000 A 
ENDBRANCH  12  17
ENDBRANCH  11  12
ENDBRANCH   1  11
TORSDOF 3
ENDMDL
MODEL 9
REMARK VINA RESULT:      -7.8      2.013      3.114
REMARK  Name = 
REMARK  3 active torsions:
REMARK  status: ('A' for Active; 'I' for Inactive)
REMARK    1  A    between atoms: C_5  and  C_6
REMARK    2  A    between atoms: C_6  and  C_7
REMARK    3  A    between atoms: C_7  and  N_8
REMARK                            x       y       z     vdW  Elec       q    Type
REMARK                         _______ _______ _______ _____ _____    ______ ____
ROOT
ATOM      1  N   UNL     1       3.878   4.268  18.882  0.00  0.00    +0.000 NA
ATOM      2  C   UNL     1       3.659   2.890  19.386  0.00  0.00    +0.000 C 
ATOM      3  C   UNL     1       2.970   2.874  20.765  0.00  0.00    +0.000 C 
ATOM      4  C   UNL     1       1.622   3.606  20.677  0.00  0.00    +0.000 C 
ATOM      5  C   UNL     1       0.723   2.883  19.656  0.00  0.00    +0.000 C 
ATOM      6  C   UNL     1       1.399   2.862  18.272  0.00  0.00    +0.000 C 
ATOM      7  C   UNL     1       2.755   2.149  18.379  0.00  0.00    +0.000 C 
ATOM      8  C   UNL     1       1.666   4.303  17.813  0.00  0.00    +0.000 C 
ATOM      9  C   UNL     1       2.592   5.011  18.827  0.00  0.00    +0.000 C 
ATOM     10  C   UNL     1       1.879   5.042  20.195  0.00  0.00    +0.000 C 
ENDROOT
BRANCH   1  11
ATOM     11  C   UNL     1       4.933   5.025  19.590  0.00  0.00    +0.000 C 
BRANCH  11  12
ATOM     12  C   UNL     1       5.748   5.948  18.660  0.00  0.00    +0.000 C 
BRANCH  12  17
ATOM     13  F   UNL     1       6.563   4.366  13.298  0.00  0.00    +0.000 F 
ATOM     14  C   UNL     1       6.338   4.706  14.572  0.00  0.00    +0.000 A 
ATOM     15  C   UNL     1       5.318   5.600  14.875  0.00  0.00    +0.000 A 
ATOM     16  C   UNL     1       5.099   5.977  16.202  0.00  0.00    +0.000 A 
ATOM     17  C   UNL     1       5.898   5.454  17.233  0.00  0.00    +0.000 A 
ATOM     18  C   UNL     1       6.919   4.547  16.904  0.00  0.00    +0.000 A 
ATOM     19  C   UNL     1       7.137   4.174  15.576  0.00  0.00    +0.000 A 
ENDBRANCH  12  17
ENDBRANCH  11  12
ENDBRANCH   1  11
TORSDOF 3
ENDMDL
