MODEL 1
REMARK VINA RESULT:      -6.3      0.000      0.000
REMARK  Name = 
REMARK  3 active torsions:
REMARK  status: ('A' for Active; 'I' for Inactive)
REMARK    1  A    between atoms: C_2  and  C_12
REMARK    2  A    between atoms: N_3  and  C_4
REMARK    3  A    between atoms: C_4  and  N_6
REMARK                            x       y       z     vdW  Elec       q    Type
REMARK                         _______ _______ _______ _____ _____    ______ ____
ROOT
ATOM      1  O   UNL     1       7.942   4.329  16.633  0.00  0.00    +0.000 OA
ATOM      2  C   UNL     1       6.945   4.601  15.967  0.00  0.00    +0.000 C 
ATOM      3  N   UNL     1       5.725   5.006  16.514  0.00  0.00    +0.000 N 
ATOM      4  H   UNL     1       5.049   5.332  15.831  0.00  0.00    +0.000 HD
ENDROOT
BRANCH   2   5
ATOM      5  C   UNL     1       7.005   4.598  14.519  0.00  0.00    +0.000 A 
ATOM      6  C   UNL     1       6.296   3.828  13.613  0.00  0.00    +0.000 A 
ATOM      7  C   UNL     1       6.746   4.191  12.325  0.00  0.00    +0.000 A 
ATOM      8  C   UNL     1       7.698   5.165  12.517  0.00  0.00    +0.000 A 
ATOM      9  O   UNL     1       7.861   5.424  13.843  0.00  0.00    +0.000 OA
ENDBRANCH   2   5
BRANCH   3  10
ATOM     10  C   UNL     1       5.305   4.973  17.845  0.00  0.00    +0.000 C 
ATOM     11  S   UNL     1       6.292   5.397  19.148  0.00  0.00    +0.000 S 
BRANCH  10  12
ATOM     12  N   UNL     1       3.947   4.563  18.022  0.00  0.00    +0.000 N 
ATOM     13  C   UNL     1       3.575   3.144  17.911  0.00  0.00    +0.000 C 
ATOM     14  C   UNL     1       2.064   3.128  17.852  0.00  0.00    +0.000 C 
ATOM     15  N   UNL     1       1.704   4.365  18.474  0.00  0.00    +0.000 N 
ATOM     16  C   UNL     1       2.766   5.263  18.448  0.00  0.00    +0.000 C 
ATOM     17  S   UNL     1       2.547   6.856  18.841  0.00  0.00    +0.000 S 
ATOM     18  H   UNL     1       0.753   4.687  18.613  0.00  0.00    +0.000 HD
ENDBRANCH  10  12
ENDBRANCH   3  10
TORSDOF 3
ENDMDL
MODEL 2
REMARK VINA RESULT:      -6.3      1.305      1.337
REMARK  Name = 
REMARK  3 active torsions:
REMARK  status: ('A' for Active; 'I' for Inactive)
REMARK    1  A    between atoms: C_2  and  C_12
REMARK    2  A    between atoms: N_3  and  C_4
REMARK    3  A    between atoms: C_4  and  N_6
REMARK                            x       y       z     vdW  Elec       q    Type
REMARK                         _______ _______ _______ _____ _____    ______ ____
ROOT
ATOM      1  O   UNL     1       5.605   6.603  15.717  0.00  0.00    +0.000 OA
ATOM      2  C   UNL     1       6.009   5.444  15.642  0.00  0.00    +0.000 C 
ATOM      3  N   UNL     1       6.098   4.576  16.732  0.00  0.00    +0.000 N 
ATOM      4  H   UNL     1       6.310   3.614  16.484  0.00  0.00    +0.000 HD
ENDROOT
BRANCH   2   5
ATOM      5  C   UNL     1       6.348   4.866  14.358  0.00  0.00    +0.000 A 
ATOM      6  C   UNL     1       5.749   3.816  13.683  0.00  0.00    +0.000 A 
ATOM      7  C   UNL     1       6.476   3.628  12.487  0.00  0.00    +0.000 A 
ATOM      8  C   UNL     1       7.471   4.577  12.496  0.00  0.00    +0.000 A 
ATOM      9  O   UNL     1       7.401   5.338  13.623  0.00  0.00    +0.000 OA
ENDBRANCH   2   5
BRANCH   3  10
ATOM     10  C   UNL     1       5.988   4.860  18.095  0.00  0.00    +0.000 C 
ATOM     11  S   UNL     1       7.208   5.602  18.997  0.00  0.00    +0.000 S 
BRANCH  10  12
ATOM     12  N   UNL     1       4.736   4.485  18.673  0.00  0.00    +0.000 N 
ATOM     13  C   UNL     1       4.608   3.225  19.423  0.00  0.00    +0.000 C 
ATOM     14  C   UNL     1       3.122   3.022  19.615  0.00  0.00    +0.000 C 
ATOM     15  N   UNL     1       2.596   4.347  19.496  0.00  0.00    +0.000 N 
ATOM     16  C   UNL     1       3.484   5.176  18.816  0.00  0.00    +0.000 C 
ATOM     17  S   UNL     1       3.020   6.676  18.293  0.00  0.00    +0.000 S 
ATOM     18  H   UNL     1       1.616   4.590  19.578  0.00  0.00    +0.000 HD
ENDBRANCH  10  12
ENDBRANCH   3  10
TORSDOF 3
ENDMDL
MODEL 3
REMARK VINA RESULT:      -6.2      2.875      6.273
REMARK  Name = 
REMARK  3 active torsions:
REMARK  status: ('A' for Active; 'I' for Inactive)
REMARK    1  A    between atoms: C_2  and  C_12
REMARK    2  A    between atoms: N_3  and  C_4
REMARK    3  A    between atoms: C_4  and  N_6
REMARK                            x       y       z     vdW  Elec       q    Type
REMARK                         _______ _______ _______ _____ _____    ______ ____
ROOT
ATOM      1  O   UNL     1       2.239   3.995  17.465  0.00  0.00    +0.000 OA
ATOM      2  C   UNL     1       2.753   4.302  18.539  0.00  0.00    +0.000 C 
ATOM      3  N   UNL     1       3.643   5.365  18.704  0.00  0.00    +0.000 N 
ATOM      4  H   UNL     1       3.864   5.580  19.671  0.00  0.00    +0.000 HD
ENDROOT
BRANCH   2   5
ATOM      5  C   UNL     1       2.386   3.605  19.755  0.00  0.00    +0.000 A 
ATOM      6  C   UNL     1       1.145   3.486  20.357  0.00  0.00    +0.000 A 
ATOM      7  C   UNL     1       1.331   2.730  21.534  0.00  0.00    +0.000 A 
ATOM      8  C   UNL     1       2.670   2.425  21.581  0.00  0.00    +0.000 A 
ATOM      9  O   UNL     1       3.321   2.945  20.505  0.00  0.00    +0.000 OA
ENDBRANCH   2   5
BRANCH   3  10
ATOM     10  C   UNL     1       4.296   6.125  17.731  0.00  0.00    +0.000 C 
ATOM     11  S   UNL     1       3.821   7.684  17.287  0.00  0.00    +0.000 S 
BRANCH  10  12
ATOM     12  N   UNL     1       5.425   5.478  17.141  0.00  0.00    +0.000 N 
ATOM     13  C   UNL     1       5.356   4.963  15.764  0.00  0.00    +0.000 C 
ATOM     14  C   UNL     1       6.587   4.100  15.596  0.00  0.00    +0.000 C 
ATOM     15  N   UNL     1       7.481   4.616  16.586  0.00  0.00    +0.000 N 
ATOM     16  C   UNL     1       6.785   5.307  17.574  0.00  0.00    +0.000 C 
ATOM     17  S   UNL     1       7.529   5.766  18.980  0.00  0.00    +0.000 S 
ATOM     18  H   UNL     1       8.419   4.272  16.755  0.00  0.00    +0.000 HD
ENDBRANCH  10  12
ENDBRANCH   3  10
TORSDOF 3
ENDMDL
MODEL 4
REMARK VINA RESULT:      -6.2      3.802      6.305
REMARK  Name = 
REMARK  3 active torsions:
REMARK  status: ('A' for Active; 'I' for Inactive)
REMARK    1  A    between atoms: C_2  and  C_12
REMARK    2  A    between atoms: N_3  and  C_4
REMARK    3  A    between atoms: C_4  and  N_6
REMARK                            x       y       z     vdW  Elec       q    Type
REMARK                         _______ _______ _______ _____ _____    ______ ____
ROOT
ATOM      1  O   UNL     1       2.341   5.799  20.047  0.00  0.00    +0.000 OA
ATOM      2  C   UNL     1       2.613   6.421  19.022  0.00  0.00    +0.000 C 
ATOM      3  N   UNL     1       3.295   5.874  17.933  0.00  0.00    +0.000 N 
ATOM      4  H   UNL     1       3.312   6.468  17.110  0.00  0.00    +0.000 HD
ENDROOT
BRANCH   2   5
ATOM      5  C   UNL     1       2.149   7.782  18.844  0.00  0.00    +0.000 A 
ATOM      6  C   UNL     1       2.239   8.602  17.732  0.00  0.00    +0.000 A 
ATOM      7  C   UNL     1       1.660   9.839  18.086  0.00  0.00    +0.000 A 
ATOM      8  C   UNL     1       1.242   9.703  19.389  0.00  0.00    +0.000 A 
ATOM      9  O   UNL     1       1.528   8.458  19.860  0.00  0.00    +0.000 OA
ENDBRANCH   2   5
BRANCH   3  10
ATOM     10  C   UNL     1       3.986   4.664  17.846  0.00  0.00    +0.000 C 
ATOM     11  S   UNL     1       3.226   3.158  17.752  0.00  0.00    +0.000 S 
BRANCH  10  12
ATOM     12  N   UNL     1       5.409   4.800  17.825  0.00  0.00    +0.000 N 
ATOM     13  C   UNL     1       6.144   5.139  19.053  0.00  0.00    +0.000 C 
ATOM     14  C   UNL     1       7.543   5.491  18.599  0.00  0.00    +0.000 C 
ATOM     15  N   UNL     1       7.654   4.816  17.343  0.00  0.00    +0.000 N 
ATOM     16  C   UNL     1       6.397   4.535  16.816  0.00  0.00    +0.000 C 
ATOM     17  S   UNL     1       6.223   4.014  15.255  0.00  0.00    +0.000 S 
ATOM     18  H   UNL     1       8.476   4.828  16.750  0.00  0.00    +0.000 HD
ENDBRANCH  10  12
ENDBRANCH   3  10
TORSDOF 3
ENDMDL
MODEL 5
REMARK VINA RESULT:      -6.2      1.560      1.907
REMARK  Name = 
REMARK  3 active torsions:
REMARK  status: ('A' for Active; 'I' for Inactive)
REMARK    1  A    between atoms: C_2  and  C_12
REMARK    2  A    between atoms: N_3  and  C_4
REMARK    3  A    between atoms: C_4  and  N_6
REMARK                            x       y       z     vdW  Elec       q    Type
REMARK                         _______ _______ _______ _____ _____    ______ ____
ROOT
ATOM      1  O   UNL     1       5.461   6.502  15.692  0.00  0.00    +0.000 OA
ATOM      2  C   UNL     1       5.715   5.306  15.558  0.00  0.00    +0.000 C 
ATOM      3  N   UNL     1       5.488   4.344  16.544  0.00  0.00    +0.000 N 
ATOM      4  H   UNL     1       5.613   3.387  16.230  0.00  0.00    +0.000 HD
ENDROOT
BRANCH   2   5
ATOM      5  C   UNL     1       6.205   4.796  14.293  0.00  0.00    +0.000 A 
ATOM      6  C   UNL     1       5.726   3.748  13.526  0.00  0.00    +0.000 A 
ATOM      7  C   UNL     1       6.573   3.643  12.402  0.00  0.00    +0.000 A 
ATOM      8  C   UNL     1       7.515   4.634  12.542  0.00  0.00    +0.000 A 
ATOM      9  O   UNL     1       7.300   5.345  13.683  0.00  0.00    +0.000 OA
ENDBRANCH   2   5
BRANCH   3  10
ATOM     10  C   UNL     1       5.168   4.524  17.891  0.00  0.00    +0.000 C 
ATOM     11  S   UNL     1       6.184   5.295  18.999  0.00  0.00    +0.000 S 
BRANCH  10  12
ATOM     12  N   UNL     1       3.886   4.012  18.264  0.00  0.00    +0.000 N 
ATOM     13  C   UNL     1       2.676   4.426  17.536  0.00  0.00    +0.000 C 
ATOM     14  C   UNL     1       1.516   3.942  18.377  0.00  0.00    +0.000 C 
ATOM     15  N   UNL     1       2.091   2.875  19.135  0.00  0.00    +0.000 N 
ATOM     16  C   UNL     1       3.477   2.993  19.191  0.00  0.00    +0.000 C 
ATOM     17  S   UNL     1       4.372   2.063  20.227  0.00  0.00    +0.000 S 
ATOM     18  H   UNL     1       1.590   2.309  19.811  0.00  0.00    +0.000 HD
ENDBRANCH  10  12
ENDBRANCH   3  10
TORSDOF 3
ENDMDL
MODEL 6
REMARK VINA RESULT:      -6.1      1.650      1.972
REMARK  Name = 
REMARK  3 active torsions:
REMARK  status: ('A' for Active; 'I' for Inactive)
REMARK    1  A    between atoms: C_2  and  C_12
REMARK    2  A    between atoms: N_3  and  C_4
REMARK    3  A    between atoms: C_4  and  N_6
REMARK                            x       y       z     vdW  Elec       q    Type
REMARK                         _______ _______ _______ _____ _____    ______ ____
ROOT
ATOM      1  O   UNL     1       5.765   3.332  16.085  0.00  0.00    +0.000 OA
ATOM      2  C   UNL     1       6.347   4.348  15.710  0.00  0.00    +0.000 C 
ATOM      3  N   UNL     1       6.727   5.389  16.559  0.00  0.00    +0.000 N 
ATOM      4  H   UNL     1       7.324   6.086  16.125  0.00  0.00    +0.000 HD
ENDROOT
BRANCH   2   5
ATOM      5  C   UNL     1       6.761   4.490  14.329  0.00  0.00    +0.000 A 
ATOM      6  C   UNL     1       6.329   3.802  13.208  0.00  0.00    +0.000 A 
ATOM      7  C   UNL     1       7.065   4.300  12.111  0.00  0.00    +0.000 A 
ATOM      8  C   UNL     1       7.898   5.268  12.622  0.00  0.00    +0.000 A 
ATOM      9  O   UNL     1       7.720   5.396  13.965  0.00  0.00    +0.000 OA
ENDBRANCH   2   5
BRANCH   3  10
ATOM     10  C   UNL     1       6.360   5.620  17.887  0.00  0.00    +0.000 C 
ATOM     11  S   UNL     1       7.467   5.722  19.159  0.00  0.00    +0.000 S 
BRANCH  10  12
ATOM     12  N   UNL     1       4.954   5.783  18.087  0.00  0.00    +0.000 N 
ATOM     13  C   UNL     1       4.243   6.926  17.493  0.00  0.00    +0.000 C 
ATOM     14  C   UNL     1       2.882   6.938  18.152  0.00  0.00    +0.000 C 
ATOM     15  N   UNL     1       2.721   5.584  18.585  0.00  0.00    +0.000 N 
ATOM     16  C   UNL     1       3.953   4.944  18.686  0.00  0.00    +0.000 C 
ATOM     17  S   UNL     1       4.091   3.471  19.428  0.00  0.00    +0.000 S 
ATOM     18  H   UNL     1       1.907   5.224  19.070  0.00  0.00    +0.000 HD
ENDBRANCH  10  12
ENDBRANCH   3  10
TORSDOF 3
ENDMDL
MODEL 7
REMARK VINA RESULT:      -6.1      1.683      2.527
REMARK  Name = 
REMARK  3 active torsions:
REMARK  status: ('A' for Active; 'I' for Inactive)
REMARK    1  A    between atoms: C_2  and  C_12
REMARK    2  A    between atoms: N_3  and  C_4
REMARK    3  A    between atoms: C_4  and  N_6
REMARK                            x       y       z     vdW  Elec       q    Type
REMARK                         _______ _______ _______ _____ _____    ______ ____
ROOT
ATOM      1  O   UNL     1       6.028   5.424  18.192  0.00  0.00    +0.000 OA
ATOM      2  C   UNL     1       5.335   5.150  17.214  0.00  0.00    +0.000 C 
ATOM      3  N   UNL     1       3.940   5.110  17.231  0.00  0.00    +0.000 N 
ATOM      4  H   UNL     1       3.513   5.013  16.315  0.00  0.00    +0.000 HD
ENDROOT
BRANCH   2   5
ATOM      5  C   UNL     1       5.948   4.928  15.920  0.00  0.00    +0.000 A 
ATOM      6  C   UNL     1       5.505   4.154  14.861  0.00  0.00    +0.000 A 
ATOM      7  C   UNL     1       6.479   4.254  13.844  0.00  0.00    +0.000 A 
ATOM      8  C   UNL     1       7.456   5.087  14.336  0.00  0.00    +0.000 A 
ATOM      9  O   UNL     1       7.144   5.507  15.592  0.00  0.00    +0.000 OA
ENDBRANCH   2   5
BRANCH   3  10
ATOM     10  C   UNL     1       3.072   5.134  18.325  0.00  0.00    +0.000 C 
ATOM     11  S   UNL     1       2.750   6.522  19.233  0.00  0.00    +0.000 S 
BRANCH  10  12
ATOM     12  N   UNL     1       2.455   3.877  18.612  0.00  0.00    +0.000 N 
ATOM     13  C   UNL     1       1.110   3.572  18.100  0.00  0.00    +0.000 C 
ATOM     14  C   UNL     1       0.673   2.325  18.836  0.00  0.00    +0.000 C 
ATOM     15  N   UNL     1       1.914   1.733  19.232  0.00  0.00    +0.000 N 
ATOM     16  C   UNL     1       2.936   2.677  19.239  0.00  0.00    +0.000 C 
ATOM     17  S   UNL     1       4.406   2.338  19.921  0.00  0.00    +0.000 S 
ATOM     18  H   UNL     1       2.002   0.866  19.750  0.00  0.00    +0.000 HD
ENDBRANCH  10  12
ENDBRANCH   3  10
TORSDOF 3
ENDMDL
MODEL 8
REMARK VINA RESULT:      -6.1      1.794      2.222
REMARK  Name = 
REMARK  3 active torsions:
REMARK  status: ('A' for Active; 'I' for Inactive)
REMARK    1  A    between atoms: C_2  and  C_12
REMARK    2  A    between atoms: N_3  and  C_4
REMARK    3  A    between atoms: C_4  and  N_6
REMARK                            x       y       z     vdW  Elec       q    Type
REMARK                         _______ _______ _______ _____ _____    ______ ____
ROOT
ATOM      1  O   UNL     1       7.774   4.494  15.909  0.00  0.00    +0.000 OA
ATOM      2  C   UNL     1       6.849   4.909  15.213  0.00  0.00    +0.000 C 
ATOM      3  N   UNL     1       5.994   5.947  15.587  0.00  0.00    +0.000 N 
ATOM      4  H   UNL     1       5.378   6.268  14.847  0.00  0.00    +0.000 HD
ENDROOT
BRANCH   2   5
ATOM      5  C   UNL     1       6.639   4.380  13.880  0.00  0.00    +0.000 A 
ATOM      6  C   UNL     1       5.642   3.540  13.417  0.00  0.00    +0.000 A 
ATOM      7  C   UNL     1       5.906   3.304  12.051  0.00  0.00    +0.000 A 
ATOM      8  C   UNL     1       7.043   4.017  11.755  0.00  0.00    +0.000 A 
ATOM      9  O   UNL     1       7.496   4.679  12.856  0.00  0.00    +0.000 OA
ENDBRANCH   2   5
BRANCH   3  10
ATOM     10  C   UNL     1       5.842   6.555  16.835  0.00  0.00    +0.000 C 
ATOM     11  S   UNL     1       7.070   7.419  17.610  0.00  0.00    +0.000 S 
BRANCH  10  12
ATOM     12  N   UNL     1       4.542   6.402  17.409  0.00  0.00    +0.000 N 
ATOM     13  C   UNL     1       3.681   7.574  17.631  0.00  0.00    +0.000 C 
ATOM     14  C   UNL     1       2.550   7.082  18.506  0.00  0.00    +0.000 C 
ATOM     15  N   UNL     1       2.531   5.675  18.248  0.00  0.00    +0.000 N 
ATOM     16  C   UNL     1       3.752   5.246  17.735  0.00  0.00    +0.000 C 
ATOM     17  S   UNL     1       4.105   3.634  17.608  0.00  0.00    +0.000 S 
ATOM     18  H   UNL     1       1.884   5.018  18.668  0.00  0.00    +0.000 HD
ENDBRANCH  10  12
ENDBRANCH   3  10
TORSDOF 3
ENDMDL
MODEL 9
REMARK VINA RESULT:      -6.1      1.624      2.002
REMARK  Name = 
REMARK  3 active torsions:
REMARK  status: ('A' for Active; 'I' for Inactive)
REMARK    1  A    between atoms: C_2  and  C_12
REMARK    2  A    between atoms: N_3  and  C_4
REMARK    3  A    between atoms: C_4  and  N_6
REMARK                            x       y       z     vdW  Elec       q    Type
REMARK                         _______ _______ _______ _____ _____    ______ ____
ROOT
ATOM      1  O   UNL     1       5.390   6.675  15.802  0.00  0.00    +0.000 OA
ATOM      2  C   UNL     1       5.761   5.504  15.754  0.00  0.00    +0.000 C 
ATOM      3  N   UNL     1       5.748   4.634  16.846  0.00  0.00    +0.000 N 
ATOM      4  H   UNL     1       5.946   3.667  16.612  0.00  0.00    +0.000 HD
ENDROOT
BRANCH   2   5
ATOM      5  C   UNL     1       6.170   4.914  14.495  0.00  0.00    +0.000 A 
ATOM      6  C   UNL     1       5.578   3.893  13.772  0.00  0.00    +0.000 A 
ATOM      7  C   UNL     1       6.383   3.677  12.633  0.00  0.00    +0.000 A 
ATOM      8  C   UNL     1       7.415   4.581  12.721  0.00  0.00    +0.000 A 
ATOM      9  O   UNL     1       7.295   5.341  13.844  0.00  0.00    +0.000 OA
ENDBRANCH   2   5
BRANCH   3  10
ATOM     10  C   UNL     1       5.553   4.923  18.198  0.00  0.00    +0.000 C 
ATOM     11  S   UNL     1       6.793   5.402  19.241  0.00  0.00    +0.000 S 
BRANCH  10  12
ATOM     12  N   UNL     1       4.198   4.797  18.636  0.00  0.00    +0.000 N 
ATOM     13  C   UNL     1       3.443   5.980  19.079  0.00  0.00    +0.000 C 
ATOM     14  C   UNL     1       2.195   5.437  19.738  0.00  0.00    +0.000 C 
ATOM     15  N   UNL     1       2.058   4.141  19.149  0.00  0.00    +0.000 N 
ATOM     16  C   UNL     1       3.269   3.700  18.626  0.00  0.00    +0.000 C 
ATOM     17  S   UNL     1       3.469   2.131  18.139  0.00  0.00    +0.000 S 
ATOM     18  H   UNL     1       1.313   3.486  19.358  0.00  0.00    +0.000 HD
ENDBRANCH  10  12
ENDBRANCH   3  10
TORSDOF 3
ENDMDL
