MODEL 1
REMARK VINA RESULT:      -8.2      0.000      0.000
REMARK  Name = 
REMARK  7 active torsions:
REMARK  status: ('A' for Active; 'I' for Inactive)
REMARK    1  A    between atoms: C_2  and  C_3
REMARK    2  A    between atoms: C_7  and  C_8
REMARK    3  A    between atoms: C_13  and  C_14
REMARK    4  A    between atoms: C_14  and  N_15
REMARK    5  A    between atoms: N_15  and  C_16
REMARK    6  A    between atoms: C_16  and  C_17
REMARK    7  A    between atoms: C_21  and  N_22
REMARK                            x       y       z     vdW  Elec       q    Type
REMARK                         _______ _______ _______ _____ _____    ______ ____
ROOT
ATOM      1  C   UNL     1       3.963   3.896  17.659  0.00  0.00    +0.000 C 
ATOM      2  O   UNL     1       3.789   3.052  16.780  0.00  0.00    +0.000 OA
ATOM      3  N   UNL     1       5.100   4.708  17.712  0.00  0.00    +0.000 N 
ATOM      4  C   UNL     1       6.018   4.705  16.571  0.00  0.00    +0.000 C 
ATOM      5  C   UNL     1       7.472   4.711  17.029  0.00  0.00    +0.000 C 
ATOM      6  C   UNL     1       7.763   5.806  18.066  0.00  0.00    +0.000 C 
ATOM      7  C   UNL     1       6.812   5.636  19.239  0.00  0.00    +0.000 C 
ATOM      8  C   UNL     1       5.382   5.687  18.759  0.00  0.00    +0.000 C 
ENDROOT
BRANCH   1  13
ATOM      9  C   UNL     1       1.569   5.408  20.215  0.00  0.00    +0.000 A 
ATOM     10  C   UNL     1       0.895   4.271  20.650  0.00  0.00    +0.000 A 
ATOM     11  C   UNL     1       1.209   3.022  20.099  0.00  0.00    +0.000 A 
ATOM     12  C   UNL     1       2.229   2.895  19.149  0.00  0.00    +0.000 A 
ATOM     13  C   UNL     1       2.902   4.034  18.703  0.00  0.00    +0.000 A 
ATOM     14  C   UNL     1       2.511   5.284  19.197  0.00  0.00    +0.000 A 
BRANCH   9  16
ATOM     15  N   UNL     1       1.058   7.753  21.205  0.00  0.00    +0.000 NA
ATOM     16  C   UNL     1       1.311   6.699  20.769  0.00  0.00    +0.000 C 
ENDBRANCH   9  16
ENDBRANCH   1  13
BRANCH   6  17
ATOM     17  C   UNL     1       7.683   7.237  17.484  0.00  0.00    +0.000 C 
BRANCH  17  18
ATOM     18  N   UNL     1       8.286   8.255  18.344  0.00  0.00    +0.000 NA
ATOM     19  H   UNL     1       9.208   7.959  18.672  0.00  0.00    +0.000 HD
BRANCH  18  20
ATOM     20  C   UNL     1       8.452   9.532  17.640  0.00  0.00    +0.000 C 
BRANCH  20  21
ATOM     21  C   UNL     1       9.052  10.585  18.535  0.00  0.00    +0.000 A 
ATOM     22  C   UNL     1       9.278  10.308  19.876  0.00  0.00    +0.000 A 
ATOM     23  C   UNL     1       9.829  11.296  20.678  0.00  0.00    +0.000 A 
ATOM     24  C   UNL     1      10.161  12.525  20.116  0.00  0.00    +0.000 A 
ATOM     25  C   UNL     1       9.922  12.724  18.758  0.00  0.00    +0.000 A 
ATOM     26  N   UNL     1       9.372  11.771  17.960  0.00  0.00    +0.000 NA
BRANCH  25  27
ATOM     27  N   UNL     1      10.263  13.976  18.171  0.00  0.00    +0.000 N 
ATOM     28  C   UNL     1      11.052  14.164  17.054  0.00  0.00    +0.000 A 
ATOM     29  C   UNL     1      11.121  15.516  16.832  0.00  0.00    +0.000 A 
ATOM     30  C   UNL     1      10.360  16.082  17.867  0.00  0.00    +0.000 A 
ATOM     31  N   UNL     1       9.824  15.164  18.673  0.00  0.00    +0.000 NA
ENDBRANCH  25  27
ENDBRANCH  20  21
ENDBRANCH  18  20
ENDBRANCH  17  18
ENDBRANCH   6  17
TORSDOF 7
ENDMDL
MODEL 2
REMARK VINA RESULT:      -8.1      5.046      7.132
REMARK  Name = 
REMARK  7 active torsions:
REMARK  status: ('A' for Active; 'I' for Inactive)
REMARK    1  A    between atoms: C_2  and  C_3
REMARK    2  A    between atoms: C_7  and  C_8
REMARK    3  A    between atoms: C_13  and  C_14
REMARK    4  A    between atoms: C_14  and  N_15
REMARK    5  A    between atoms: N_15  and  C_16
REMARK    6  A    between atoms: C_16  and  C_17
REMARK    7  A    between atoms: C_21  and  N_22
REMARK                            x       y       z     vdW  Elec       q    Type
REMARK                         _______ _______ _______ _____ _____    ______ ____
ROOT
ATOM      1  C   UNL     1       2.181   7.852  18.600  0.00  0.00    +0.000 C 
ATOM      2  O   UNL     1       2.523   8.434  17.570  0.00  0.00    +0.000 OA
ATOM      3  N   UNL     1       2.442   6.497  18.826  0.00  0.00    +0.000 N 
ATOM      4  C   UNL     1       3.336   5.793  17.902  0.00  0.00    +0.000 C 
ATOM      5  C   UNL     1       2.814   4.397  17.583  0.00  0.00    +0.000 C 
ATOM      6  C   UNL     1       2.453   3.595  18.842  0.00  0.00    +0.000 C 
ATOM      7  C   UNL     1       1.447   4.390  19.658  0.00  0.00    +0.000 C 
ATOM      8  C   UNL     1       2.015   5.746  20.002  0.00  0.00    +0.000 C 
ENDROOT
BRANCH   1  13
ATOM      9  C   UNL     1      -0.091  10.437  20.245  0.00  0.00    +0.000 A 
ATOM     10  C   UNL     1       0.076  10.118  21.588  0.00  0.00    +0.000 A 
ATOM     11  C   UNL     1       0.912   9.055  21.953  0.00  0.00    +0.000 A 
ATOM     12  C   UNL     1       1.621   8.338  20.984  0.00  0.00    +0.000 A 
ATOM     13  C   UNL     1       1.451   8.649  19.633  0.00  0.00    +0.000 A 
ATOM     14  C   UNL     1       0.541   9.653  19.284  0.00  0.00    +0.000 A 
BRANCH   9  16
ATOM     15  N   UNL     1      -1.583  12.434  19.520  0.00  0.00    +0.000 NA
ATOM     16  C   UNL     1      -0.903  11.534  19.823  0.00  0.00    +0.000 C 
ENDBRANCH   9  16
ENDBRANCH   1  13
BRANCH   6  17
ATOM     17  C   UNL     1       3.684   3.207  19.695  0.00  0.00    +0.000 C 
BRANCH  17  18
ATOM     18  N   UNL     1       4.911   3.046  18.914  0.00  0.00    +0.000 NA
ATOM     19  H   UNL     1       4.760   3.303  17.937  0.00  0.00    +0.000 HD
BRANCH  18  20
ATOM     20  C   UNL     1       5.998   3.883  19.433  0.00  0.00    +0.000 C 
BRANCH  20  21
ATOM     21  C   UNL     1       6.503   4.846  18.390  0.00  0.00    +0.000 A 
ATOM     22  C   UNL     1       6.994   6.087  18.774  0.00  0.00    +0.000 A 
ATOM     23  C   UNL     1       7.450   6.955  17.794  0.00  0.00    +0.000 A 
ATOM     24  C   UNL     1       7.426   6.555  16.461  0.00  0.00    +0.000 A 
ATOM     25  C   UNL     1       6.937   5.287  16.155  0.00  0.00    +0.000 A 
ATOM     26  N   UNL     1       6.474   4.428  17.101  0.00  0.00    +0.000 NA
BRANCH  25  27
ATOM     27  N   UNL     1       6.912   4.864  14.795  0.00  0.00    +0.000 N 
ATOM     28  C   UNL     1       6.136   3.849  14.271  0.00  0.00    +0.000 A 
ATOM     29  C   UNL     1       6.418   3.776  12.931  0.00  0.00    +0.000 A 
ATOM     30  C   UNL     1       7.389   4.769  12.722  0.00  0.00    +0.000 A 
ATOM     31  N   UNL     1       7.685   5.443  13.834  0.00  0.00    +0.000 NA
ENDBRANCH  25  27
ENDBRANCH  20  21
ENDBRANCH  18  20
ENDBRANCH  17  18
ENDBRANCH   6  17
TORSDOF 7
ENDMDL
MODEL 3
REMARK VINA RESULT:      -7.9      6.068      8.580
REMARK  Name = 
REMARK  7 active torsions:
REMARK  status: ('A' for Active; 'I' for Inactive)
REMARK    1  A    between atoms: C_2  and  C_3
REMARK    2  A    between atoms: C_7  and  C_8
REMARK    3  A    between atoms: C_13  and  C_14
REMARK    4  A    between atoms: C_14  and  N_15
REMARK    5  A    between atoms: N_15  and  C_16
REMARK    6  A    between atoms: C_16  and  C_17
REMARK    7  A    between atoms: C_21  and  N_22
REMARK                            x       y       z     vdW  Elec       q    Type
REMARK                         _______ _______ _______ _____ _____    ______ ____
ROOT
ATOM      1  C   UNL     1       6.691   4.419  16.416  0.00  0.00    +0.000 C 
ATOM      2  O   UNL     1       7.717   4.440  17.096  0.00  0.00    +0.000 OA
ATOM      3  N   UNL     1       5.412   4.342  16.978  0.00  0.00    +0.000 N 
ATOM      4  C   UNL     1       5.273   4.504  18.427  0.00  0.00    +0.000 C 
ATOM      5  C   UNL     1       4.269   3.512  19.001  0.00  0.00    +0.000 C 
ATOM      6  C   UNL     1       2.935   3.507  18.239  0.00  0.00    +0.000 C 
ATOM      7  C   UNL     1       3.212   3.230  16.770  0.00  0.00    +0.000 C 
ATOM      8  C   UNL     1       4.167   4.260  16.219  0.00  0.00    +0.000 C 
ENDROOT
BRANCH   1  13
ATOM      9  C   UNL     1       6.108   3.851  12.689  0.00  0.00    +0.000 A 
ATOM     10  C   UNL     1       7.146   4.599  12.143  0.00  0.00    +0.000 A 
ATOM     11  C   UNL     1       8.019   5.298  12.986  0.00  0.00    +0.000 A 
ATOM     12  C   UNL     1       7.891   5.214  14.376  0.00  0.00    +0.000 A 
ATOM     13  C   UNL     1       6.846   4.471  14.930  0.00  0.00    +0.000 A 
ATOM     14  C   UNL     1       5.929   3.856  14.070  0.00  0.00    +0.000 A 
BRANCH   9  16
ATOM     15  N   UNL     1       4.465   2.510  11.191  0.00  0.00    +0.000 NA
ATOM     16  C   UNL     1       5.212   3.092  11.875  0.00  0.00    +0.000 C 
ENDBRANCH   9  16
ENDBRANCH   1  13
BRANCH   6  17
ATOM     17  C   UNL     1       2.123   4.811  18.419  0.00  0.00    +0.000 C 
BRANCH  17  18
ATOM     18  N   UNL     1       2.318   5.448  19.722  0.00  0.00    +0.000 NA
ATOM     19  H   UNL     1       2.825   4.831  20.359  0.00  0.00    +0.000 HD
BRANCH  18  20
ATOM     20  C   UNL     1       3.080   6.696  19.607  0.00  0.00    +0.000 C 
BRANCH  20  21
ATOM     21  C   UNL     1       2.177   7.877  19.356  0.00  0.00    +0.000 A 
ATOM     22  C   UNL     1       2.008   8.356  18.064  0.00  0.00    +0.000 A 
ATOM     23  C   UNL     1       1.174   9.445  17.861  0.00  0.00    +0.000 A 
ATOM     24  C   UNL     1       0.514  10.012  18.947  0.00  0.00    +0.000 A 
ATOM     25  C   UNL     1       0.719   9.464  20.212  0.00  0.00    +0.000 A 
ATOM     26  N   UNL     1       1.542   8.405  20.431  0.00  0.00    +0.000 NA
BRANCH  25  27
ATOM     27  N   UNL     1       0.044  10.032  21.330  0.00  0.00    +0.000 N 
ATOM     28  C   UNL     1      -0.262  11.367  21.505  0.00  0.00    +0.000 A 
ATOM     29  C   UNL     1      -0.911  11.478  22.709  0.00  0.00    +0.000 A 
ATOM     30  C   UNL     1      -0.944  10.167  23.212  0.00  0.00    +0.000 A 
ATOM     31  N   UNL     1      -0.386   9.283  22.384  0.00  0.00    +0.000 NA
ENDBRANCH  25  27
ENDBRANCH  20  21
ENDBRANCH  18  20
ENDBRANCH  17  18
ENDBRANCH   6  17
TORSDOF 7
ENDMDL
MODEL 4
REMARK VINA RESULT:      -7.9      5.328      9.545
REMARK  Name = 
REMARK  7 active torsions:
REMARK  status: ('A' for Active; 'I' for Inactive)
REMARK    1  A    between atoms: C_2  and  C_3
REMARK    2  A    between atoms: C_7  and  C_8
REMARK    3  A    between atoms: C_13  and  C_14
REMARK    4  A    between atoms: C_14  and  N_15
REMARK    5  A    between atoms: N_15  and  C_16
REMARK    6  A    between atoms: C_16  and  C_17
REMARK    7  A    between atoms: C_21  and  N_22
REMARK                            x       y       z     vdW  Elec       q    Type
REMARK                         _______ _______ _______ _____ _____    ______ ____
ROOT
ATOM      1  C   UNL     1       2.367   6.507  19.646  0.00  0.00    +0.000 C 
ATOM      2  O   UNL     1       2.106   5.930  20.702  0.00  0.00    +0.000 OA
ATOM      3  N   UNL     1       1.958   7.817  19.379  0.00  0.00    +0.000 N 
ATOM      4  C   UNL     1       1.382   8.607  20.470  0.00  0.00    +0.000 C 
ATOM      5  C   UNL     1       0.184   9.420  19.993  0.00  0.00    +0.000 C 
ATOM      6  C   UNL     1       0.484  10.229  18.722  0.00  0.00    +0.000 C 
ATOM      7  C   UNL     1       0.977   9.280  17.642  0.00  0.00    +0.000 C 
ATOM      8  C   UNL     1       2.194   8.530  18.127  0.00  0.00    +0.000 C 
ENDROOT
BRANCH   1  13
ATOM      9  C   UNL     1       5.135   5.480  17.230  0.00  0.00    +0.000 A 
ATOM     10  C   UNL     1       4.607   4.303  16.709  0.00  0.00    +0.000 A 
ATOM     11  C   UNL     1       3.364   3.839  17.157  0.00  0.00    +0.000 A 
ATOM     12  C   UNL     1       2.620   4.572  18.089  0.00  0.00    +0.000 A 
ATOM     13  C   UNL     1       3.149   5.750  18.620  0.00  0.00    +0.000 A 
ATOM     14  C   UNL     1       4.432   6.148  18.229  0.00  0.00    +0.000 A 
BRANCH   9  16
ATOM     15  N   UNL     1       7.420   6.413  16.423  0.00  0.00    +0.000 NA
ATOM     16  C   UNL     1       6.381   6.015  16.780  0.00  0.00    +0.000 C 
ENDBRANCH   9  16
ENDBRANCH   1  13
BRANCH   6  17
ATOM     17  C   UNL     1       1.488  11.383  18.953  0.00  0.00    +0.000 C 
BRANCH  17  18
ATOM     18  N   UNL     1       1.072  12.652  18.356  0.00  0.00    +0.000 NA
ATOM     19  H   UNL     1       0.222  12.535  17.801  0.00  0.00    +0.000 HD
BRANCH  18  20
ATOM     20  C   UNL     1       0.802  13.670  19.377  0.00  0.00    +0.000 C 
BRANCH  20  21
ATOM     21  C   UNL     1      -0.264  13.219  20.342  0.00  0.00    +0.000 A 
ATOM     22  C   UNL     1       0.056  13.005  21.676  0.00  0.00    +0.000 A 
ATOM     23  C   UNL     1      -0.943  12.588  22.542  0.00  0.00    +0.000 A 
ATOM     24  C   UNL     1      -2.238  12.418  22.061  0.00  0.00    +0.000 A 
ATOM     25  C   UNL     1      -2.486  12.670  20.714  0.00  0.00    +0.000 A 
ATOM     26  N   UNL     1      -1.518  13.068  19.848  0.00  0.00    +0.000 NA
BRANCH  25  27
ATOM     27  N   UNL     1      -3.809  12.505  20.211  0.00  0.00    +0.000 N 
ATOM     28  C   UNL     1      -4.151  12.047  18.954  0.00  0.00    +0.000 A 
ATOM     29  C   UNL     1      -5.522  12.041  18.887  0.00  0.00    +0.000 A 
ATOM     30  C   UNL     1      -5.937  12.526  20.137  0.00  0.00    +0.000 A 
ATOM     31  N   UNL     1      -4.915  12.795  20.951  0.00  0.00    +0.000 NA
ENDBRANCH  25  27
ENDBRANCH  20  21
ENDBRANCH  18  20
ENDBRANCH  17  18
ENDBRANCH   6  17
TORSDOF 7
ENDMDL
MODEL 5
REMARK VINA RESULT:      -7.8      6.036      9.777
REMARK  Name = 
REMARK  7 active torsions:
REMARK  status: ('A' for Active; 'I' for Inactive)
REMARK    1  A    between atoms: C_2  and  C_3
REMARK    2  A    between atoms: C_7  and  C_8
REMARK    3  A    between atoms: C_13  and  C_14
REMARK    4  A    between atoms: C_14  and  N_15
REMARK    5  A    between atoms: N_15  and  C_16
REMARK    6  A    between atoms: C_16  and  C_17
REMARK    7  A    between atoms: C_21  and  N_22
REMARK                            x       y       z     vdW  Elec       q    Type
REMARK                         _______ _______ _______ _____ _____    ______ ____
ROOT
ATOM      1  C   UNL     1      -2.116  12.078  19.637  0.00  0.00    +0.000 C 
ATOM      2  O   UNL     1      -2.231  13.111  20.297  0.00  0.00    +0.000 OA
ATOM      3  N   UNL     1      -1.076  11.165  19.838  0.00  0.00    +0.000 N 
ATOM      4  C   UNL     1      -0.214  11.332  21.010  0.00  0.00    +0.000 C 
ATOM      5  C   UNL     1       1.249  11.077  20.663  0.00  0.00    +0.000 C 
ATOM      6  C   UNL     1       1.459   9.754  19.911  0.00  0.00    +0.000 C 
ATOM      7  C   UNL     1       0.584   9.752  18.669  0.00  0.00    +0.000 C 
ATOM      8  C   UNL     1      -0.862   9.953  19.052  0.00  0.00    +0.000 C 
ENDROOT
BRANCH   1  13
ATOM      9  C   UNL     1      -3.742  11.042  16.346  0.00  0.00    +0.000 A 
ATOM     10  C   UNL     1      -5.079  11.315  16.615  0.00  0.00    +0.000 A 
ATOM     11  C   UNL     1      -5.449  11.818  17.869  0.00  0.00    +0.000 A 
ATOM     12  C   UNL     1      -4.482  12.096  18.841  0.00  0.00    +0.000 A 
ATOM     13  C   UNL     1      -3.140  11.816  18.579  0.00  0.00    +0.000 A 
ATOM     14  C   UNL     1      -2.801  11.228  17.355  0.00  0.00    +0.000 A 
BRANCH   9  16
ATOM     15  N   UNL     1      -2.913  10.180  14.041  0.00  0.00    +0.000 NA
ATOM     16  C   UNL     1      -3.309  10.563  15.071  0.00  0.00    +0.000 C 
ENDBRANCH   9  16
ENDBRANCH   1  13
BRANCH   6  17
ATOM     17  C   UNL     1       1.193   8.506  20.785  0.00  0.00    +0.000 C 
BRANCH  17  18
ATOM     18  N   UNL     1       2.148   7.420  20.563  0.00  0.00    +0.000 NA
ATOM     19  H   UNL     1       2.987   7.547  21.131  0.00  0.00    +0.000 HD
BRANCH  18  20
ATOM     20  C   UNL     1       1.573   6.114  20.902  0.00  0.00    +0.000 C 
BRANCH  20  21
ATOM     21  C   UNL     1       2.257   4.996  20.158  0.00  0.00    +0.000 A 
ATOM     22  C   UNL     1       1.613   3.777  19.995  0.00  0.00    +0.000 A 
ATOM     23  C   UNL     1       2.266   2.765  19.308  0.00  0.00    +0.000 A 
ATOM     24  C   UNL     1       3.533   3.002  18.784  0.00  0.00    +0.000 A 
ATOM     25  C   UNL     1       4.109   4.256  18.973  0.00  0.00    +0.000 A 
ATOM     26  N   UNL     1       3.488   5.256  19.653  0.00  0.00    +0.000 NA
BRANCH  25  27
ATOM     27  N   UNL     1       5.403   4.513  18.436  0.00  0.00    +0.000 N 
ATOM     28  C   UNL     1       5.730   4.584  17.097  0.00  0.00    +0.000 A 
ATOM     29  C   UNL     1       7.074   4.850  17.023  0.00  0.00    +0.000 A 
ATOM     30  C   UNL     1       7.494   4.909  18.362  0.00  0.00    +0.000 A 
ATOM     31  N   UNL     1       6.494   4.723  19.225  0.00  0.00    +0.000 NA
ENDBRANCH  25  27
ENDBRANCH  20  21
ENDBRANCH  18  20
ENDBRANCH  17  18
ENDBRANCH   6  17
TORSDOF 7
ENDMDL
MODEL 6
REMARK VINA RESULT:      -7.8      5.847      8.882
REMARK  Name = 
REMARK  7 active torsions:
REMARK  status: ('A' for Active; 'I' for Inactive)
REMARK    1  A    between atoms: C_2  and  C_3
REMARK    2  A    between atoms: C_7  and  C_8
REMARK    3  A    between atoms: C_13  and  C_14
REMARK    4  A    between atoms: C_14  and  N_15
REMARK    5  A    between atoms: N_15  and  C_16
REMARK    6  A    between atoms: C_16  and  C_17
REMARK    7  A    between atoms: C_21  and  N_22
REMARK                            x       y       z     vdW  Elec       q    Type
REMARK                         _______ _______ _______ _____ _____    ______ ____
ROOT
ATOM      1  C   UNL     1       4.222   3.790  18.710  0.00  0.00    +0.000 C 
ATOM      2  O   UNL     1       4.007   2.602  18.947  0.00  0.00    +0.000 OA
ATOM      3  N   UNL     1       3.501   4.825  19.315  0.00  0.00    +0.000 N 
ATOM      4  C   UNL     1       2.604   4.496  20.426  0.00  0.00    +0.000 C 
ATOM      5  C   UNL     1       1.294   5.269  20.327  0.00  0.00    +0.000 C 
ATOM      6  C   UNL     1       1.507   6.775  20.116  0.00  0.00    +0.000 C 
ATOM      7  C   UNL     1       2.368   6.980  18.880  0.00  0.00    +0.000 C 
ATOM      8  C   UNL     1       3.678   6.246  19.033  0.00  0.00    +0.000 C 
ENDROOT
BRANCH   1  13
ATOM      9  C   UNL     1       6.130   4.202  15.432  0.00  0.00    +0.000 A 
ATOM     10  C   UNL     1       7.324   4.749  15.889  0.00  0.00    +0.000 A 
ATOM     11  C   UNL     1       7.499   4.997  17.256  0.00  0.00    +0.000 A 
ATOM     12  C   UNL     1       6.502   4.657  18.178  0.00  0.00    +0.000 A 
ATOM     13  C   UNL     1       5.298   4.115  17.724  0.00  0.00    +0.000 A 
ATOM     14  C   UNL     1       5.107   3.960  16.346  0.00  0.00    +0.000 A 
BRANCH   9  16
ATOM     15  N   UNL     1       5.698   3.640  12.934  0.00  0.00    +0.000 NA
ATOM     16  C   UNL     1       5.916   3.897  14.053  0.00  0.00    +0.000 C 
ENDBRANCH   9  16
ENDBRANCH   1  13
BRANCH   6  17
ATOM     17  C   UNL     1       2.118   7.485  21.347  0.00  0.00    +0.000 C 
BRANCH  17  18
ATOM     18  N   UNL     1       1.430   8.723  21.712  0.00  0.00    +0.000 NA
ATOM     19  H   UNL     1       1.943   9.540  21.377  0.00  0.00    +0.000 HD
BRANCH  18  20
ATOM     20  C   UNL     1       0.079   8.781  21.144  0.00  0.00    +0.000 C 
BRANCH  20  21
ATOM     21  C   UNL     1      -0.099   9.984  20.255  0.00  0.00    +0.000 A 
ATOM     22  C   UNL     1       0.768  11.062  20.367  0.00  0.00    +0.000 A 
ATOM     23  C   UNL     1       0.581  12.157  19.538  0.00  0.00    +0.000 A 
ATOM     24  C   UNL     1      -0.451  12.139  18.604  0.00  0.00    +0.000 A 
ATOM     25  C   UNL     1      -1.269  11.014  18.537  0.00  0.00    +0.000 A 
ATOM     26  N   UNL     1      -1.108   9.937  19.350  0.00  0.00    +0.000 NA
BRANCH  25  27
ATOM     27  N   UNL     1      -2.325  10.981  17.582  0.00  0.00    +0.000 N 
ATOM     28  C   UNL     1      -2.317  10.297  16.383  0.00  0.00    +0.000 A 
ATOM     29  C   UNL     1      -3.526  10.533  15.776  0.00  0.00    +0.000 A 
ATOM     30  C   UNL     1      -4.204  11.383  16.664  0.00  0.00    +0.000 A 
ATOM     31  N   UNL     1      -3.499  11.649  17.764  0.00  0.00    +0.000 NA
ENDBRANCH  25  27
ENDBRANCH  20  21
ENDBRANCH  18  20
ENDBRANCH  17  18
ENDBRANCH   6  17
TORSDOF 7
ENDMDL
MODEL 7
REMARK VINA RESULT:      -7.8      1.702      2.401
REMARK  Name = 
REMARK  7 active torsions:
REMARK  status: ('A' for Active; 'I' for Inactive)
REMARK    1  A    between atoms: C_2  and  C_3
REMARK    2  A    between atoms: C_7  and  C_8
REMARK    3  A    between atoms: C_13  and  C_14
REMARK    4  A    between atoms: C_14  and  N_15
REMARK    5  A    between atoms: N_15  and  C_16
REMARK    6  A    between atoms: C_16  and  C_17
REMARK    7  A    between atoms: C_21  and  N_22
REMARK                            x       y       z     vdW  Elec       q    Type
REMARK                         _______ _______ _______ _____ _____    ______ ____
ROOT
ATOM      1  C   UNL     1       4.138   4.331  17.572  0.00  0.00    +0.000 C 
ATOM      2  O   UNL     1       3.574   3.967  16.540  0.00  0.00    +0.000 OA
ATOM      3  N   UNL     1       5.153   5.293  17.580  0.00  0.00    +0.000 N 
ATOM      4  C   UNL     1       5.413   6.047  16.352  0.00  0.00    +0.000 C 
ATOM      5  C   UNL     1       6.909   6.221  16.114  0.00  0.00    +0.000 C 
ATOM      6  C   UNL     1       7.649   6.756  17.349  0.00  0.00    +0.000 C 
ATOM      7  C   UNL     1       7.376   5.831  18.524  0.00  0.00    +0.000 C 
ATOM      8  C   UNL     1       5.890   5.723  18.765  0.00  0.00    +0.000 C 
ENDROOT
BRANCH   1  13
ATOM      9  C   UNL     1       4.148   2.261  20.776  0.00  0.00    +0.000 A 
ATOM     10  C   UNL     1       2.878   2.536  21.272  0.00  0.00    +0.000 A 
ATOM     11  C   UNL     1       2.031   3.406  20.574  0.00  0.00    +0.000 A 
ATOM     12  C   UNL     1       2.428   3.966  19.354  0.00  0.00    +0.000 A 
ATOM     13  C   UNL     1       3.705   3.698  18.855  0.00  0.00    +0.000 A 
ATOM     14  C   UNL     1       4.570   2.902  19.613  0.00  0.00    +0.000 A 
BRANCH   9  16
ATOM     15  N   UNL     1       5.754   0.633  22.005  0.00  0.00    +0.000 NA
ATOM     16  C   UNL     1       5.036   1.354  21.430  0.00  0.00    +0.000 C 
ENDBRANCH   9  16
ENDBRANCH   1  13
BRANCH   6  17
ATOM     17  C   UNL     1       7.284   8.220  17.694  0.00  0.00    +0.000 C 
BRANCH  17  18
ATOM     18  N   UNL     1       8.421   9.015  18.158  0.00  0.00    +0.000 NA
ATOM     19  H   UNL     1       9.292   8.690  17.734  0.00  0.00    +0.000 HD
BRANCH  18  20
ATOM     20  C   UNL     1       8.263  10.434  17.824  0.00  0.00    +0.000 C 
BRANCH  20  21
ATOM     21  C   UNL     1       9.219  11.298  18.606  0.00  0.00    +0.000 A 
ATOM     22  C   UNL     1       9.766  10.827  19.792  0.00  0.00    +0.000 A 
ATOM     23  C   UNL     1      10.641  11.643  20.492  0.00  0.00    +0.000 A 
ATOM     24  C   UNL     1      10.965  12.897  19.980  0.00  0.00    +0.000 A 
ATOM     25  C   UNL     1      10.391  13.293  18.775  0.00  0.00    +0.000 A 
ATOM     26  N   UNL     1       9.522  12.511  18.081  0.00  0.00    +0.000 NA
BRANCH  25  27
ATOM     27  N   UNL     1      10.719  14.571  18.238  0.00  0.00    +0.000 N 
ATOM     28  C   UNL     1      11.318  14.812  17.018  0.00  0.00    +0.000 A 
ATOM     29  C   UNL     1      11.449  16.173  16.896  0.00  0.00    +0.000 A 
ATOM     30  C   UNL     1      10.920  16.686  18.091  0.00  0.00    +0.000 A 
ATOM     31  N   UNL     1      10.462  15.732  18.903  0.00  0.00    +0.000 NA
ENDBRANCH  25  27
ENDBRANCH  20  21
ENDBRANCH  18  20
ENDBRANCH  17  18
ENDBRANCH   6  17
TORSDOF 7
ENDMDL
MODEL 8
REMARK VINA RESULT:      -7.7      5.112      6.970
REMARK  Name = 
REMARK  7 active torsions:
REMARK  status: ('A' for Active; 'I' for Inactive)
REMARK    1  A    between atoms: C_2  and  C_3
REMARK    2  A    between atoms: C_7  and  C_8
REMARK    3  A    between atoms: C_13  and  C_14
REMARK    4  A    between atoms: C_14  and  N_15
REMARK    5  A    between atoms: N_15  and  C_16
REMARK    6  A    between atoms: C_16  and  C_17
REMARK    7  A    between atoms: C_21  and  N_22
REMARK                            x       y       z     vdW  Elec       q    Type
REMARK                         _______ _______ _______ _____ _____    ______ ____
ROOT
ATOM      1  C   UNL     1       2.373   6.435  19.695  0.00  0.00    +0.000 C 
ATOM      2  O   UNL     1       2.141   5.843  20.749  0.00  0.00    +0.000 OA
ATOM      3  N   UNL     1       1.970   7.755  19.465  0.00  0.00    +0.000 N 
ATOM      4  C   UNL     1       1.441   8.532  20.588  0.00  0.00    +0.000 C 
ATOM      5  C   UNL     1       0.238   9.367  20.166  0.00  0.00    +0.000 C 
ATOM      6  C   UNL     1       0.504  10.195  18.900  0.00  0.00    +0.000 C 
ATOM      7  C   UNL     1       0.949   9.260  17.787  0.00  0.00    +0.000 C 
ATOM      8  C   UNL     1       2.172   8.487  18.217  0.00  0.00    +0.000 C 
ENDROOT
BRANCH   1  13
ATOM      9  C   UNL     1       5.071   5.386  17.211  0.00  0.00    +0.000 A 
ATOM     10  C   UNL     1       4.484   4.259  16.645  0.00  0.00    +0.000 A 
ATOM     11  C   UNL     1       3.223   3.835  17.084  0.00  0.00    +0.000 A 
ATOM     12  C   UNL     1       2.522   4.560  18.053  0.00  0.00    +0.000 A 
ATOM     13  C   UNL     1       3.110   5.688  18.630  0.00  0.00    +0.000 A 
ATOM     14  C   UNL     1       4.408   6.041  18.245  0.00  0.00    +0.000 A 
BRANCH   9  16
ATOM     15  N   UNL     1       7.391   6.242  16.423  0.00  0.00    +0.000 NA
ATOM     16  C   UNL     1       6.338   5.879  16.774  0.00  0.00    +0.000 C 
ENDBRANCH   9  16
ENDBRANCH   1  13
BRANCH   6  17
ATOM     17  C   UNL     1       1.529  11.333  19.117  0.00  0.00    +0.000 C 
BRANCH  17  18
ATOM     18  N   UNL     1       1.005  12.454  19.897  0.00  0.00    +0.000 NA
ATOM     19  H   UNL     1       1.762  13.051  20.235  0.00  0.00    +0.000 HD
BRANCH  18  20
ATOM     20  C   UNL     1       0.096  13.289  19.104  0.00  0.00    +0.000 C 
BRANCH  20  21
ATOM     21  C   UNL     1       0.681  14.654  18.846  0.00  0.00    +0.000 A 
ATOM     22  C   UNL     1      -0.160  15.742  18.651  0.00  0.00    +0.000 A 
ATOM     23  C   UNL     1       0.404  16.986  18.413  0.00  0.00    +0.000 A 
ATOM     24  C   UNL     1       1.790  17.117  18.399  0.00  0.00    +0.000 A 
ATOM     25  C   UNL     1       2.568  15.983  18.622  0.00  0.00    +0.000 A 
ATOM     26  N   UNL     1       2.033  14.754  18.845  0.00  0.00    +0.000 NA
BRANCH  25  27
ATOM     27  N   UNL     1       3.988  16.106  18.615  0.00  0.00    +0.000 N 
ATOM     28  C   UNL     1       4.887  15.137  18.216  0.00  0.00    +0.000 A 
ATOM     29  C   UNL     1       6.144  15.667  18.367  0.00  0.00    +0.000 A 
ATOM     30  C   UNL     1       5.922  16.956  18.879  0.00  0.00    +0.000 A 
ATOM     31  N   UNL     1       4.627  17.239  19.019  0.00  0.00    +0.000 NA
ENDBRANCH  25  27
ENDBRANCH  20  21
ENDBRANCH  18  20
ENDBRANCH  17  18
ENDBRANCH   6  17
TORSDOF 7
ENDMDL
MODEL 9
REMARK VINA RESULT:      -7.7      5.635      9.711
REMARK  Name = 
REMARK  7 active torsions:
REMARK  status: ('A' for Active; 'I' for Inactive)
REMARK    1  A    between atoms: C_2  and  C_3
REMARK    2  A    between atoms: C_7  and  C_8
REMARK    3  A    between atoms: C_13  and  C_14
REMARK    4  A    between atoms: C_14  and  N_15
REMARK    5  A    between atoms: N_15  and  C_16
REMARK    6  A    between atoms: C_16  and  C_17
REMARK    7  A    between atoms: C_21  and  N_22
REMARK                            x       y       z     vdW  Elec       q    Type
REMARK                         _______ _______ _______ _____ _____    ______ ____
ROOT
ATOM      1  C   UNL     1       2.342   6.194  20.014  0.00  0.00    +0.000 C 
ATOM      2  O   UNL     1       2.015   5.655  21.072  0.00  0.00    +0.000 OA
ATOM      3  N   UNL     1       2.001   7.513  19.701  0.00  0.00    +0.000 N 
ATOM      4  C   UNL     1       1.417   8.354  20.749  0.00  0.00    +0.000 C 
ATOM      5  C   UNL     1       0.275   9.205  20.205  0.00  0.00    +0.000 C 
ATOM      6  C   UNL     1       0.660   9.969  18.929  0.00  0.00    +0.000 C 
ATOM      7  C   UNL     1       1.153   8.973  17.892  0.00  0.00    +0.000 C 
ATOM      8  C   UNL     1       2.316   8.184  18.443  0.00  0.00    +0.000 C 
ENDROOT
BRANCH   1  13
ATOM      9  C   UNL     1       5.263   4.587  18.161  0.00  0.00    +0.000 A 
ATOM     10  C   UNL     1       4.587   3.828  17.211  0.00  0.00    +0.000 A 
ATOM     11  C   UNL     1       3.187   3.828  17.187  0.00  0.00    +0.000 A 
ATOM     12  C   UNL     1       2.456   4.622  18.078  0.00  0.00    +0.000 A 
ATOM     13  C   UNL     1       3.130   5.379  19.039  0.00  0.00    +0.000 A 
ATOM     14  C   UNL     1       4.525   5.294  19.106  0.00  0.00    +0.000 A 
BRANCH   9  16
ATOM     15  N   UNL     1       7.857   4.658  18.226  0.00  0.00    +0.000 NA
ATOM     16  C   UNL     1       6.689   4.650  18.204  0.00  0.00    +0.000 C 
ENDBRANCH   9  16
ENDBRANCH   1  13
BRANCH   6  17
ATOM     17  C   UNL     1       1.703  11.084  19.174  0.00  0.00    +0.000 C 
BRANCH  17  18
ATOM     18  N   UNL     1       1.112  12.368  19.553  0.00  0.00    +0.000 NA
ATOM     19  H   UNL     1       1.836  13.058  19.760  0.00  0.00    +0.000 HD
BRANCH  18  20
ATOM     20  C   UNL     1       0.267  12.913  18.485  0.00  0.00    +0.000 C 
BRANCH  20  21
ATOM     21  C   UNL     1      -1.176  12.513  18.659  0.00  0.00    +0.000 A 
ATOM     22  C   UNL     1      -1.857  11.906  17.613  0.00  0.00    +0.000 A 
ATOM     23  C   UNL     1      -3.184  11.551  17.799  0.00  0.00    +0.000 A 
ATOM     24  C   UNL     1      -3.789  11.788  19.030  0.00  0.00    +0.000 A 
ATOM     25  C   UNL     1      -3.036  12.384  20.039  0.00  0.00    +0.000 A 
ATOM     26  N   UNL     1      -1.738  12.750  19.871  0.00  0.00    +0.000 NA
BRANCH  25  27
ATOM     27  N   UNL     1      -3.642  12.627  21.305  0.00  0.00    +0.000 N 
ATOM     28  C   UNL     1      -4.971  12.928  21.527  0.00  0.00    +0.000 A 
ATOM     29  C   UNL     1      -5.129  13.082  22.881  0.00  0.00    +0.000 A 
ATOM     30  C   UNL     1      -3.845  12.875  23.410  0.00  0.00    +0.000 A 
ATOM     31  N   UNL     1      -2.942  12.585  22.473  0.00  0.00    +0.000 NA
ENDBRANCH  25  27
ENDBRANCH  20  21
ENDBRANCH  18  20
ENDBRANCH  17  18
ENDBRANCH   6  17
TORSDOF 7
ENDMDL
