MODEL 1
REMARK VINA RESULT:      -7.9      0.000      0.000
REMARK  Name = 
REMARK  12 active torsions:
REMARK  status: ('A' for Active; 'I' for Inactive)
REMARK    1  A    between atoms: C_1  and  C_2
REMARK    2  A    between atoms: C_2  and  C_3
REMARK    3  A    between atoms: C_2  and  C_4
REMARK    4  A    between atoms: C_11  and  C_12
REMARK    5  A    between atoms: C_15  and  C_16
REMARK    6  A    between atoms: C_19  and  N_20
REMARK    7  A    between atoms: N_20  and  S_21
REMARK    8  A    between atoms: S_21  and  C_24
REMARK    9  A    between atoms: C_24  and  C_25
REMARK   10  A    between atoms: C_24  and  C_26
REMARK   11  A    between atoms: C_24  and  C_27
REMARK   12  A    between atoms: N_30  and  C_31
REMARK                            x       y       z     vdW  Elec       q    Type
REMARK                         _______ _______ _______ _____ _____    ______ ____
ROOT
ATOM      1  C   UNL     1      -2.744  13.321  21.546  0.00  0.00    +0.000 A 
ATOM      2  C   UNL     1      -2.288  12.551  20.461  0.00  0.00    +0.000 A 
ATOM      3  C   UNL     1      -1.375  11.494  20.680  0.00  0.00    +0.000 A 
ATOM      4  C   UNL     1      -0.900  11.214  21.959  0.00  0.00    +0.000 A 
ATOM      5  C   UNL     1      -1.362  12.001  23.039  0.00  0.00    +0.000 A 
ATOM      6  C   UNL     1      -2.280  13.023  22.819  0.00  0.00    +0.000 A 
ATOM      7  F   UNL     1      -2.693  13.740  23.875  0.00  0.00    +0.000 F 
ATOM      8  C   UNL     1       0.055  10.152  21.851  0.00  0.00    +0.000 A 
ATOM      9  C   UNL     1       0.162   9.804  20.491  0.00  0.00    +0.000 A 
ATOM     10  N   UNL     1      -0.774  10.593  19.801  0.00  0.00    +0.000 N 
ENDROOT
BRANCH   9  11
ATOM     11  C   UNL     1       1.068   8.796  19.871  0.00  0.00    +0.000 A 
ATOM     12  C   UNL     1       1.550   8.965  18.562  0.00  0.00    +0.000 A 
ATOM     13  C   UNL     1       2.315   7.975  17.930  0.00  0.00    +0.000 A 
ATOM     14  C   UNL     1       2.660   6.822  18.621  0.00  0.00    +0.000 A 
ATOM     15  C   UNL     1       2.261   6.659  19.942  0.00  0.00    +0.000 A 
ATOM     16  C   UNL     1       1.427   7.613  20.534  0.00  0.00    +0.000 A 
BRANCH  14  17
ATOM     17  N   UNL     1       3.427   5.798  17.984  0.00  0.00    +0.000 N 
ATOM     18  H   UNL     1       3.778   6.109  17.075  0.00  0.00    +0.000 HD
BRANCH  17  19
ATOM     19  S   UNL     1       2.644   4.312  17.753  0.00  0.00    +0.000 S 
ATOM     20  O   UNL     1       1.236   4.440  18.080  0.00  0.00    +0.000 OA
ATOM     21  O   UNL     1       3.071   3.847  16.452  0.00  0.00    +0.000 OA
BRANCH  19  22
ATOM     22  C   UNL     1       3.449   3.287  19.045  0.00  0.00    +0.000 C 
ATOM     23  C   UNL     1       3.594   1.845  18.546  0.00  0.00    +0.000 C 
ATOM     24  C   UNL     1       4.835   3.877  19.334  0.00  0.00    +0.000 C 
ATOM     25  C   UNL     1       2.605   3.316  20.329  0.00  0.00    +0.000 C 
ENDBRANCH  19  22
ENDBRANCH  17  19
ENDBRANCH  14  17
ENDBRANCH   9  11
BRANCH   8  26
ATOM     26  C   UNL     1       0.837   9.605  22.962  0.00  0.00    +0.000 C 
ATOM     27  N   UNL     1       0.111   9.152  24.029  0.00  0.00    +0.000 N 
ATOM     28  O   UNL     1       2.062   9.520  22.985  0.00  0.00    +0.000 OA
ATOM     29  H   UNL     1      -0.896   9.078  24.011  0.00  0.00    +0.000 HD
ATOM     30  H   UNL     1       0.620   8.737  24.797  0.00  0.00    +0.000 HD
ENDBRANCH   8  26
BRANCH  10  31
ATOM     31  C   UNL     1      -1.065  10.539  18.368  0.00  0.00    +0.000 C 
ATOM     32  C   UNL     1      -2.156   9.562  17.913  0.00  0.00    +0.000 C 
ATOM     33  C   UNL     1      -2.557  10.064  16.530  0.00  0.00    +0.000 C 
ATOM     34  C   UNL     1      -2.273  11.562  16.504  0.00  0.00    +0.000 C 
ATOM     35  C   UNL     1      -1.481  11.890  17.765  0.00  0.00    +0.000 C 
ENDBRANCH  10  31
BRANCH   1  37
ATOM     36  C   UNL     1      -2.947  15.697  20.768  0.00  0.00    +0.000 C 
ATOM     37  C   UNL     1      -3.691  14.488  21.337  0.00  0.00    +0.000 C 
ATOM     38  C   UNL     1      -4.880  14.102  20.454  0.00  0.00    +0.000 C 
ENDBRANCH   1  37
TORSDOF 7
ENDMDL
MODEL 2
REMARK VINA RESULT:      -7.8      1.717      1.962
REMARK  Name = 
REMARK  12 active torsions:
REMARK  status: ('A' for Active; 'I' for Inactive)
REMARK    1  A    between atoms: C_1  and  C_2
REMARK    2  A    between atoms: C_2  and  C_3
REMARK    3  A    between atoms: C_2  and  C_4
REMARK    4  A    between atoms: C_11  and  C_12
REMARK    5  A    between atoms: C_15  and  C_16
REMARK    6  A    between atoms: C_19  and  N_20
REMARK    7  A    between atoms: N_20  and  S_21
REMARK    8  A    between atoms: S_21  and  C_24
REMARK    9  A    between atoms: C_24  and  C_25
REMARK   10  A    between atoms: C_24  and  C_26
REMARK   11  A    between atoms: C_24  and  C_27
REMARK   12  A    between atoms: N_30  and  C_31
REMARK                            x       y       z     vdW  Elec       q    Type
REMARK                         _______ _______ _______ _____ _____    ______ ____
ROOT
ATOM      1  C   UNL     1      -2.751  13.280  21.625  0.00  0.00    +0.000 A 
ATOM      2  C   UNL     1      -2.314  12.530  20.518  0.00  0.00    +0.000 A 
ATOM      3  C   UNL     1      -1.373  11.490  20.697  0.00  0.00    +0.000 A 
ATOM      4  C   UNL     1      -0.852  11.208  21.957  0.00  0.00    +0.000 A 
ATOM      5  C   UNL     1      -1.295  11.976  23.059  0.00  0.00    +0.000 A 
ATOM      6  C   UNL     1      -2.241  12.980  22.879  0.00  0.00    +0.000 A 
ATOM      7  F   UNL     1      -2.633  13.679  23.955  0.00  0.00    +0.000 F 
ATOM      8  C   UNL     1       0.121  10.168  21.808  0.00  0.00    +0.000 A 
ATOM      9  C   UNL     1       0.191   9.835  20.442  0.00  0.00    +0.000 A 
ATOM     10  N   UNL     1      -0.782  10.610  19.790  0.00  0.00    +0.000 N 
ENDROOT
BRANCH   9  11
ATOM     11  C   UNL     1       1.097   8.852  19.783  0.00  0.00    +0.000 A 
ATOM     12  C   UNL     1       1.676   9.127  18.533  0.00  0.00    +0.000 A 
ATOM     13  C   UNL     1       2.444   8.169  17.855  0.00  0.00    +0.000 A 
ATOM     14  C   UNL     1       2.694   6.938  18.446  0.00  0.00    +0.000 A 
ATOM     15  C   UNL     1       2.196   6.665  19.715  0.00  0.00    +0.000 A 
ATOM     16  C   UNL     1       1.362   7.593  20.345  0.00  0.00    +0.000 A 
BRANCH  14  17
ATOM     17  N   UNL     1       3.461   5.948  17.759  0.00  0.00    +0.000 N 
ATOM     18  H   UNL     1       3.199   5.005  18.054  0.00  0.00    +0.000 HD
BRANCH  17  19
ATOM     19  S   UNL     1       5.146   6.082  17.897  0.00  0.00    +0.000 S 
ATOM     20  O   UNL     1       5.575   7.397  17.460  0.00  0.00    +0.000 OA
ATOM     21  O   UNL     1       5.466   5.592  19.220  0.00  0.00    +0.000 OA
BRANCH  19  22
ATOM     22  C   UNL     1       5.699   4.848  16.657  0.00  0.00    +0.000 C 
ATOM     23  C   UNL     1       5.604   5.449  15.250  0.00  0.00    +0.000 C 
ATOM     24  C   UNL     1       7.155   4.475  16.962  0.00  0.00    +0.000 C 
ATOM     25  C   UNL     1       4.821   3.590  16.751  0.00  0.00    +0.000 C 
ENDBRANCH  19  22
ENDBRANCH  17  19
ENDBRANCH  14  17
ENDBRANCH   9  11
BRANCH   8  26
ATOM     26  C   UNL     1       0.950   9.627  22.888  0.00  0.00    +0.000 C 
ATOM     27  N   UNL     1       2.260   9.396  22.568  0.00  0.00    +0.000 N 
ATOM     28  O   UNL     1       0.555   9.392  24.027  0.00  0.00    +0.000 OA
ATOM     29  H   UNL     1       2.667   9.690  21.693  0.00  0.00    +0.000 HD
ATOM     30  H   UNL     1       2.866   9.055  23.302  0.00  0.00    +0.000 HD
ENDBRANCH   8  26
BRANCH  10  31
ATOM     31  C   UNL     1      -1.118  10.563  18.367  0.00  0.00    +0.000 C 
ATOM     32  C   UNL     1      -2.216   9.581  17.940  0.00  0.00    +0.000 C 
ATOM     33  C   UNL     1      -2.665  10.089  16.575  0.00  0.00    +0.000 C 
ATOM     34  C   UNL     1      -2.393  11.589  16.549  0.00  0.00    +0.000 C 
ATOM     35  C   UNL     1      -1.564  11.915  17.787  0.00  0.00    +0.000 C 
ENDBRANCH  10  31
BRANCH   1  37
ATOM     36  C   UNL     1      -3.027  15.660  20.881  0.00  0.00    +0.000 C 
ATOM     37  C   UNL     1      -3.729  14.429  21.458  0.00  0.00    +0.000 C 
ATOM     38  C   UNL     1      -4.935  14.026  20.606  0.00  0.00    +0.000 C 
ENDBRANCH   1  37
TORSDOF 7
ENDMDL
MODEL 3
REMARK VINA RESULT:      -7.8      0.715      1.391
REMARK  Name = 
REMARK  12 active torsions:
REMARK  status: ('A' for Active; 'I' for Inactive)
REMARK    1  A    between atoms: C_1  and  C_2
REMARK    2  A    between atoms: C_2  and  C_3
REMARK    3  A    between atoms: C_2  and  C_4
REMARK    4  A    between atoms: C_11  and  C_12
REMARK    5  A    between atoms: C_15  and  C_16
REMARK    6  A    between atoms: C_19  and  N_20
REMARK    7  A    between atoms: N_20  and  S_21
REMARK    8  A    between atoms: S_21  and  C_24
REMARK    9  A    between atoms: C_24  and  C_25
REMARK   10  A    between atoms: C_24  and  C_26
REMARK   11  A    between atoms: C_24  and  C_27
REMARK   12  A    between atoms: N_30  and  C_31
REMARK                            x       y       z     vdW  Elec       q    Type
REMARK                         _______ _______ _______ _____ _____    ______ ____
ROOT
ATOM      1  C   UNL     1      -2.645  13.363  21.439  0.00  0.00    +0.000 A 
ATOM      2  C   UNL     1      -2.255  12.504  20.396  0.00  0.00    +0.000 A 
ATOM      3  C   UNL     1      -1.369  11.434  20.656  0.00  0.00    +0.000 A 
ATOM      4  C   UNL     1      -0.854  11.228  21.933  0.00  0.00    +0.000 A 
ATOM      5  C   UNL     1      -1.249  12.105  22.971  0.00  0.00    +0.000 A 
ATOM      6  C   UNL     1      -2.142  13.139  22.712  0.00  0.00    +0.000 A 
ATOM      7  F   UNL     1      -2.491  13.942  23.728  0.00  0.00    +0.000 F 
ATOM      8  C   UNL     1       0.062  10.130  21.867  0.00  0.00    +0.000 A 
ATOM      9  C   UNL     1       0.106   9.684  20.533  0.00  0.00    +0.000 A 
ATOM     10  N   UNL     1      -0.830  10.454  19.822  0.00  0.00    +0.000 N 
ENDROOT
BRANCH   9  11
ATOM     11  C   UNL     1       0.955   8.604  19.954  0.00  0.00    +0.000 A 
ATOM     12  C   UNL     1       1.111   7.374  20.614  0.00  0.00    +0.000 A 
ATOM     13  C   UNL     1       1.989   6.392  20.135  0.00  0.00    +0.000 A 
ATOM     14  C   UNL     1       2.683   6.602  18.951  0.00  0.00    +0.000 A 
ATOM     15  C   UNL     1       2.492   7.779  18.236  0.00  0.00    +0.000 A 
ATOM     16  C   UNL     1       1.681   8.786  18.767  0.00  0.00    +0.000 A 
BRANCH  14  17
ATOM     17  N   UNL     1       3.592   5.616  18.460  0.00  0.00    +0.000 N 
ATOM     18  H   UNL     1       4.278   6.028  17.824  0.00  0.00    +0.000 HD
BRANCH  17  19
ATOM     19  S   UNL     1       2.895   4.284  17.675  0.00  0.00    +0.000 S 
ATOM     20  O   UNL     1       1.470   4.498  17.508  0.00  0.00    +0.000 OA
ATOM     21  O   UNL     1       3.750   4.015  16.538  0.00  0.00    +0.000 OA
BRANCH  19  22
ATOM     22  C   UNL     1       3.142   2.968  18.929  0.00  0.00    +0.000 C 
ATOM     23  C   UNL     1       1.880   2.827  19.787  0.00  0.00    +0.000 C 
ATOM     24  C   UNL     1       3.420   1.649  18.197  0.00  0.00    +0.000 C 
ATOM     25  C   UNL     1       4.345   3.320  19.819  0.00  0.00    +0.000 C 
ENDBRANCH  19  22
ENDBRANCH  17  19
ENDBRANCH  14  17
ENDBRANCH   9  11
BRANCH   8  26
ATOM     26  C   UNL     1       0.869   9.636  22.986  0.00  0.00    +0.000 C 
ATOM     27  N   UNL     1       2.189   9.404  22.706  0.00  0.00    +0.000 N 
ATOM     28  O   UNL     1       0.449   9.438  24.122  0.00  0.00    +0.000 OA
ATOM     29  H   UNL     1       2.614   9.670  21.830  0.00  0.00    +0.000 HD
ATOM     30  H   UNL     1       2.779   9.095  23.465  0.00  0.00    +0.000 HD
ENDBRANCH   8  26
BRANCH  10  31
ATOM     31  C   UNL     1      -1.178  10.309  18.408  0.00  0.00    +0.000 C 
ATOM     32  C   UNL     1      -2.454   9.525  18.079  0.00  0.00    +0.000 C 
ATOM     33  C   UNL     1      -2.799   9.949  16.656  0.00  0.00    +0.000 C 
ATOM     34  C   UNL     1      -2.231  11.351  16.462  0.00  0.00    +0.000 C 
ATOM     35  C   UNL     1      -1.345  11.646  17.668  0.00  0.00    +0.000 C 
ENDBRANCH  10  31
BRANCH   1  37
ATOM     36  C   UNL     1      -4.900  14.360  21.900  0.00  0.00    +0.000 C 
ATOM     37  C   UNL     1      -3.562  14.544  21.181  0.00  0.00    +0.000 C 
ATOM     38  C   UNL     1      -2.901  15.869  21.569  0.00  0.00    +0.000 C 
ENDBRANCH   1  37
TORSDOF 7
ENDMDL
MODEL 4
REMARK VINA RESULT:      -7.7      1.754      2.561
REMARK  Name = 
REMARK  12 active torsions:
REMARK  status: ('A' for Active; 'I' for Inactive)
REMARK    1  A    between atoms: C_1  and  C_2
REMARK    2  A    between atoms: C_2  and  C_3
REMARK    3  A    between atoms: C_2  and  C_4
REMARK    4  A    between atoms: C_11  and  C_12
REMARK    5  A    between atoms: C_15  and  C_16
REMARK    6  A    between atoms: C_19  and  N_20
REMARK    7  A    between atoms: N_20  and  S_21
REMARK    8  A    between atoms: S_21  and  C_24
REMARK    9  A    between atoms: C_24  and  C_25
REMARK   10  A    between atoms: C_24  and  C_26
REMARK   11  A    between atoms: C_24  and  C_27
REMARK   12  A    between atoms: N_30  and  C_31
REMARK                            x       y       z     vdW  Elec       q    Type
REMARK                         _______ _______ _______ _____ _____    ______ ____
ROOT
ATOM      1  C   UNL     1      -5.046  13.393  19.720  0.00  0.00    +0.000 A 
ATOM      2  C   UNL     1      -4.322  12.488  18.923  0.00  0.00    +0.000 A 
ATOM      3  C   UNL     1      -3.143  11.890  19.425  0.00  0.00    +0.000 A 
ATOM      4  C   UNL     1      -2.671  12.201  20.697  0.00  0.00    +0.000 A 
ATOM      5  C   UNL     1      -3.405  13.118  21.485  0.00  0.00    +0.000 A 
ATOM      6  C   UNL     1      -4.578  13.682  20.994  0.00  0.00    +0.000 A 
ATOM      7  F   UNL     1      -5.242  14.544  21.779  0.00  0.00    +0.000 F 
ATOM      8  C   UNL     1      -1.434  11.506  20.890  0.00  0.00    +0.000 A 
ATOM      9  C   UNL     1      -1.158  10.783  19.714  0.00  0.00    +0.000 A 
ATOM     10  N   UNL     1      -2.252  10.980  18.856  0.00  0.00    +0.000 N 
ENDROOT
BRANCH   9  11
ATOM     11  C   UNL     1       0.042   9.953  19.409  0.00  0.00    +0.000 A 
ATOM     12  C   UNL     1       0.686  10.043  18.163  0.00  0.00    +0.000 A 
ATOM     13  C   UNL     1       1.749   9.194  17.825  0.00  0.00    +0.000 A 
ATOM     14  C   UNL     1       2.224   8.278  18.753  0.00  0.00    +0.000 A 
ATOM     15  C   UNL     1       1.656   8.216  20.020  0.00  0.00    +0.000 A 
ATOM     16  C   UNL     1       0.542   9.008  20.317  0.00  0.00    +0.000 A 
BRANCH  14  17
ATOM     17  N   UNL     1       3.297   7.396  18.415  0.00  0.00    +0.000 N 
ATOM     18  H   UNL     1       3.600   7.534  17.449  0.00  0.00    +0.000 HD
BRANCH  17  19
ATOM     19  S   UNL     1       2.998   5.741  18.631  0.00  0.00    +0.000 S 
ATOM     20  O   UNL     1       3.036   5.412  20.043  0.00  0.00    +0.000 OA
ATOM     21  O   UNL     1       1.833   5.450  17.825  0.00  0.00    +0.000 OA
BRANCH  19  22
ATOM     22  C   UNL     1       4.476   5.011  17.825  0.00  0.00    +0.000 C 
ATOM     23  C   UNL     1       5.638   4.957  18.824  0.00  0.00    +0.000 C 
ATOM     24  C   UNL     1       4.123   3.590  17.366  0.00  0.00    +0.000 C 
ATOM     25  C   UNL     1       4.872   5.857  16.605  0.00  0.00    +0.000 C 
ENDBRANCH  19  22
ENDBRANCH  17  19
ENDBRANCH  14  17
ENDBRANCH   9  11
BRANCH   8  26
ATOM     26  C   UNL     1      -0.580  11.616  22.075  0.00  0.00    +0.000 C 
ATOM     27  N   UNL     1      -0.842  10.723  23.078  0.00  0.00    +0.000 N 
ATOM     28  O   UNL     1       0.333  12.426  22.210  0.00  0.00    +0.000 OA
ATOM     29  H   UNL     1      -1.491   9.957  22.969  0.00  0.00    +0.000 HD
ATOM     30  H   UNL     1      -0.248  10.751  23.895  0.00  0.00    +0.000 HD
ENDBRANCH   8  26
BRANCH  10  31
ATOM     31  C   UNL     1      -2.440  10.376  17.537  0.00  0.00    +0.000 C 
ATOM     32  C   UNL     1      -3.777   9.670  17.275  0.00  0.00    +0.000 C 
ATOM     33  C   UNL     1      -3.868   9.590  15.755  0.00  0.00    +0.000 C 
ATOM     34  C   UNL     1      -3.057  10.756  15.201  0.00  0.00    +0.000 C 
ATOM     35  C   UNL     1      -2.292  11.365  16.371  0.00  0.00    +0.000 C 
ENDBRANCH  10  31
BRANCH   1  37
ATOM     36  C   UNL     1      -7.544  13.545  19.888  0.00  0.00    +0.000 C 
ATOM     37  C   UNL     1      -6.291  14.082  19.194  0.00  0.00    +0.000 C 
ATOM     38  C   UNL     1      -6.193  15.604  19.322  0.00  0.00    +0.000 C 
ENDBRANCH   1  37
TORSDOF 7
ENDMDL
MODEL 5
REMARK VINA RESULT:      -7.4      1.917      2.772
REMARK  Name = 
REMARK  12 active torsions:
REMARK  status: ('A' for Active; 'I' for Inactive)
REMARK    1  A    between atoms: C_1  and  C_2
REMARK    2  A    between atoms: C_2  and  C_3
REMARK    3  A    between atoms: C_2  and  C_4
REMARK    4  A    between atoms: C_11  and  C_12
REMARK    5  A    between atoms: C_15  and  C_16
REMARK    6  A    between atoms: C_19  and  N_20
REMARK    7  A    between atoms: N_20  and  S_21
REMARK    8  A    between atoms: S_21  and  C_24
REMARK    9  A    between atoms: C_24  and  C_25
REMARK   10  A    between atoms: C_24  and  C_26
REMARK   11  A    between atoms: C_24  and  C_27
REMARK   12  A    between atoms: N_30  and  C_31
REMARK                            x       y       z     vdW  Elec       q    Type
REMARK                         _______ _______ _______ _____ _____    ______ ____
ROOT
ATOM      1  C   UNL     1      -4.848  13.437  19.938  0.00  0.00    +0.000 A 
ATOM      2  C   UNL     1      -4.232  12.476  19.116  0.00  0.00    +0.000 A 
ATOM      3  C   UNL     1      -3.009  11.888  19.512  0.00  0.00    +0.000 A 
ATOM      4  C   UNL     1      -2.389  12.262  20.701  0.00  0.00    +0.000 A 
ATOM      5  C   UNL     1      -3.016  13.235  21.514  0.00  0.00    +0.000 A 
ATOM      6  C   UNL     1      -4.233  13.790  21.130  0.00  0.00    +0.000 A 
ATOM      7  F   UNL     1      -4.792  14.706  21.935  0.00  0.00    +0.000 F 
ATOM      8  C   UNL     1      -1.145  11.559  20.789  0.00  0.00    +0.000 A 
ATOM      9  C   UNL     1      -1.014  10.766  19.633  0.00  0.00    +0.000 A 
ATOM     10  N   UNL     1      -2.200  10.932  18.897  0.00  0.00    +0.000 N 
ENDROOT
BRANCH   9  11
ATOM     11  C   UNL     1       0.133   9.900  19.240  0.00  0.00    +0.000 A 
ATOM     12  C   UNL     1       0.629   8.915  20.111  0.00  0.00    +0.000 A 
ATOM     13  C   UNL     1       1.772   8.168  19.797  0.00  0.00    +0.000 A 
ATOM     14  C   UNL     1       2.405   8.353  18.576  0.00  0.00    +0.000 A 
ATOM     15  C   UNL     1       1.895   9.267  17.662  0.00  0.00    +0.000 A 
ATOM     16  C   UNL     1       0.806  10.068  18.020  0.00  0.00    +0.000 A 
BRANCH  14  17
ATOM     17  N   UNL     1       3.580   7.608  18.249  0.00  0.00    +0.000 N 
ATOM     18  H   UNL     1       3.883   7.795  17.291  0.00  0.00    +0.000 HD
BRANCH  17  19
ATOM     19  S   UNL     1       3.474   5.926  18.438  0.00  0.00    +0.000 S 
ATOM     20  O   UNL     1       3.828   5.559  19.796  0.00  0.00    +0.000 OA
ATOM     21  O   UNL     1       2.197   5.553  17.870  0.00  0.00    +0.000 OA
BRANCH  19  22
ATOM     22  C   UNL     1       4.812   5.362  17.317  0.00  0.00    +0.000 C 
ATOM     23  C   UNL     1       6.111   5.177  18.111  0.00  0.00    +0.000 C 
ATOM     24  C   UNL     1       4.390   4.024  16.697  0.00  0.00    +0.000 C 
ATOM     25  C   UNL     1       5.023   6.397  16.200  0.00  0.00    +0.000 C 
ENDBRANCH  19  22
ENDBRANCH  17  19
ENDBRANCH  14  17
ENDBRANCH   9  11
BRANCH   8  26
ATOM     26  C   UNL     1      -0.157  11.722  21.859  0.00  0.00    +0.000 C 
ATOM     27  N   UNL     1       0.754  12.726  21.674  0.00  0.00    +0.000 N 
ATOM     28  O   UNL     1      -0.110  11.043  22.881  0.00  0.00    +0.000 OA
ATOM     29  H   UNL     1       0.683  13.394  20.920  0.00  0.00    +0.000 HD
ATOM     30  H   UNL     1       1.427  12.886  22.411  0.00  0.00    +0.000 HD
ENDBRANCH   8  26
BRANCH  10  31
ATOM     31  C   UNL     1      -2.546  10.257  17.647  0.00  0.00    +0.000 C 
ATOM     32  C   UNL     1      -4.007   9.825  17.467  0.00  0.00    +0.000 C 
ATOM     33  C   UNL     1      -4.156   9.621  15.963  0.00  0.00    +0.000 C 
ATOM     34  C   UNL     1      -3.137  10.533  15.289  0.00  0.00    +0.000 C 
ATOM     35  C   UNL     1      -2.229  11.078  16.387  0.00  0.00    +0.000 C 
ENDBRANCH  10  31
BRANCH   1  37
ATOM     36  C   UNL     1      -6.407  13.903  18.029  0.00  0.00    +0.000 C 
ATOM     37  C   UNL     1      -6.139  14.116  19.520  0.00  0.00    +0.000 C 
ATOM     38  C   UNL     1      -7.324  13.651  20.369  0.00  0.00    +0.000 C 
ENDBRANCH   1  37
TORSDOF 7
ENDMDL
MODEL 6
REMARK VINA RESULT:      -7.4      2.443      4.358
REMARK  Name = 
REMARK  12 active torsions:
REMARK  status: ('A' for Active; 'I' for Inactive)
REMARK    1  A    between atoms: C_1  and  C_2
REMARK    2  A    between atoms: C_2  and  C_3
REMARK    3  A    between atoms: C_2  and  C_4
REMARK    4  A    between atoms: C_11  and  C_12
REMARK    5  A    between atoms: C_15  and  C_16
REMARK    6  A    between atoms: C_19  and  N_20
REMARK    7  A    between atoms: N_20  and  S_21
REMARK    8  A    between atoms: S_21  and  C_24
REMARK    9  A    between atoms: C_24  and  C_25
REMARK   10  A    between atoms: C_24  and  C_26
REMARK   11  A    between atoms: C_24  and  C_27
REMARK   12  A    between atoms: N_30  and  C_31
REMARK                            x       y       z     vdW  Elec       q    Type
REMARK                         _______ _______ _______ _____ _____    ______ ____
ROOT
ATOM      1  C   UNL     1      -5.416  13.905  20.277  0.00  0.00    +0.000 A 
ATOM      2  C   UNL     1      -4.105  13.604  20.687  0.00  0.00    +0.000 A 
ATOM      3  C   UNL     1      -3.340  12.658  19.967  0.00  0.00    +0.000 A 
ATOM      4  C   UNL     1      -3.874  11.998  18.864  0.00  0.00    +0.000 A 
ATOM      5  C   UNL     1      -5.197  12.305  18.468  0.00  0.00    +0.000 A 
ATOM      6  C   UNL     1      -5.934  13.257  19.165  0.00  0.00    +0.000 A 
ATOM      7  F   UNL     1      -7.182  13.518  18.750  0.00  0.00    +0.000 F 
ATOM      8  C   UNL     1      -2.900  11.057  18.399  0.00  0.00    +0.000 A 
ATOM      9  C   UNL     1      -1.777  11.146  19.243  0.00  0.00    +0.000 A 
ATOM     10  N   UNL     1      -2.042  12.182  20.155  0.00  0.00    +0.000 N 
ENDROOT
BRANCH   9  11
ATOM     11  C   UNL     1      -0.530  10.330  19.200  0.00  0.00    +0.000 A 
ATOM     12  C   UNL     1       0.240  10.247  18.028  0.00  0.00    +0.000 A 
ATOM     13  C   UNL     1       1.354   9.400  17.943  0.00  0.00    +0.000 A 
ATOM     14  C   UNL     1       1.751   8.666  19.051  0.00  0.00    +0.000 A 
ATOM     15  C   UNL     1       1.053   8.784  20.247  0.00  0.00    +0.000 A 
ATOM     16  C   UNL     1      -0.106   9.564  20.297  0.00  0.00    +0.000 A 
BRANCH  14  17
ATOM     17  N   UNL     1       2.876   7.788  18.973  0.00  0.00    +0.000 N 
ATOM     18  H   UNL     1       3.490   8.040  18.196  0.00  0.00    +0.000 HD
BRANCH  17  19
ATOM     19  S   UNL     1       2.524   6.135  18.837  0.00  0.00    +0.000 S 
ATOM     20  O   UNL     1       2.357   5.555  20.156  0.00  0.00    +0.000 OA
ATOM     21  O   UNL     1       1.480   6.042  17.840  0.00  0.00    +0.000 OA
BRANCH  19  22
ATOM     22  C   UNL     1       4.089   5.501  18.118  0.00  0.00    +0.000 C 
ATOM     23  C   UNL     1       3.829   4.173  17.398  0.00  0.00    +0.000 C 
ATOM     24  C   UNL     1       4.614   6.538  17.116  0.00  0.00    +0.000 C 
ATOM     25  C   UNL     1       5.127   5.299  19.233  0.00  0.00    +0.000 C 
ENDBRANCH  19  22
ENDBRANCH  17  19
ENDBRANCH  14  17
ENDBRANCH   9  11
BRANCH   8  26
ATOM     26  C   UNL     1      -3.097  10.115  17.295  0.00  0.00    +0.000 C 
ATOM     27  N   UNL     1      -2.718  10.564  16.059  0.00  0.00    +0.000 N 
ATOM     28  O   UNL     1      -3.552   8.980  17.412  0.00  0.00    +0.000 OA
ATOM     29  H   UNL     1      -2.222  11.433  15.925  0.00  0.00    +0.000 HD
ATOM     30  H   UNL     1      -2.810   9.925  15.283  0.00  0.00    +0.000 HD
ENDBRANCH   8  26
BRANCH  10  31
ATOM     31  C   UNL     1      -1.136  12.679  21.191  0.00  0.00    +0.000 C 
ATOM     32  C   UNL     1      -0.600  14.106  21.024  0.00  0.00    +0.000 C 
ATOM     33  C   UNL     1      -0.122  14.493  22.419  0.00  0.00    +0.000 C 
ATOM     34  C   UNL     1      -0.953  13.687  23.412  0.00  0.00    +0.000 C 
ATOM     35  C   UNL     1      -1.734  12.654  22.606  0.00  0.00    +0.000 C 
ENDBRANCH  10  31
BRANCH   1  37
ATOM     36  C   UNL     1      -5.858  14.929  22.524  0.00  0.00    +0.000 C 
ATOM     37  C   UNL     1      -6.276  14.885  21.053  0.00  0.00    +0.000 C 
ATOM     38  C   UNL     1      -6.249  16.281  20.427  0.00  0.00    +0.000 C 
ENDBRANCH   1  37
TORSDOF 7
ENDMDL
MODEL 7
REMARK VINA RESULT:      -7.3      1.660      2.271
REMARK  Name = 
REMARK  12 active torsions:
REMARK  status: ('A' for Active; 'I' for Inactive)
REMARK    1  A    between atoms: C_1  and  C_2
REMARK    2  A    between atoms: C_2  and  C_3
REMARK    3  A    between atoms: C_2  and  C_4
REMARK    4  A    between atoms: C_11  and  C_12
REMARK    5  A    between atoms: C_15  and  C_16
REMARK    6  A    between atoms: C_19  and  N_20
REMARK    7  A    between atoms: N_20  and  S_21
REMARK    8  A    between atoms: S_21  and  C_24
REMARK    9  A    between atoms: C_24  and  C_25
REMARK   10  A    between atoms: C_24  and  C_26
REMARK   11  A    between atoms: C_24  and  C_27
REMARK   12  A    between atoms: N_30  and  C_31
REMARK                            x       y       z     vdW  Elec       q    Type
REMARK                         _______ _______ _______ _____ _____    ______ ____
ROOT
ATOM      1  C   UNL     1      -2.623  13.383  21.403  0.00  0.00    +0.000 A 
ATOM      2  C   UNL     1      -2.230  12.576  20.320  0.00  0.00    +0.000 A 
ATOM      3  C   UNL     1      -1.330  11.505  20.528  0.00  0.00    +0.000 A 
ATOM      4  C   UNL     1      -0.807  11.247  21.792  0.00  0.00    +0.000 A 
ATOM      5  C   UNL     1      -1.206  12.072  22.870  0.00  0.00    +0.000 A 
ATOM      6  C   UNL     1      -2.112  13.107  22.662  0.00  0.00    +0.000 A 
ATOM      7  F   UNL     1      -2.464  13.860  23.716  0.00  0.00    +0.000 F 
ATOM      8  C   UNL     1       0.121  10.163  21.672  0.00  0.00    +0.000 A 
ATOM      9  C   UNL     1       0.162   9.779  20.319  0.00  0.00    +0.000 A 
ATOM     10  N   UNL     1      -0.786  10.570  19.648  0.00  0.00    +0.000 N 
ENDROOT
BRANCH   9  11
ATOM     11  C   UNL     1       1.020   8.735  19.688  0.00  0.00    +0.000 A 
ATOM     12  C   UNL     1       1.313   7.536  20.359  0.00  0.00    +0.000 A 
ATOM     13  C   UNL     1       2.202   6.595  19.822  0.00  0.00    +0.000 A 
ATOM     14  C   UNL     1       2.769   6.813  18.574  0.00  0.00    +0.000 A 
ATOM     15  C   UNL     1       2.441   7.955  17.853  0.00  0.00    +0.000 A 
ATOM     16  C   UNL     1       1.621   8.927  18.434  0.00  0.00    +0.000 A 
BRANCH  14  17
ATOM     17  N   UNL     1       3.689   5.869  18.022  0.00  0.00    +0.000 N 
ATOM     18  H   UNL     1       4.097   5.280  18.751  0.00  0.00    +0.000 HD
BRANCH  17  19
ATOM     19  S   UNL     1       4.961   6.514  17.106  0.00  0.00    +0.000 S 
ATOM     20  O   UNL     1       4.434   7.195  15.939  0.00  0.00    +0.000 OA
ATOM     21  O   UNL     1       5.811   7.201  18.055  0.00  0.00    +0.000 OA
BRANCH  19  22
ATOM     22  C   UNL     1       5.806   4.982  16.552  0.00  0.00    +0.000 C 
ATOM     23  C   UNL     1       7.071   4.756  17.388  0.00  0.00    +0.000 C 
ATOM     24  C   UNL     1       4.843   3.803  16.743  0.00  0.00    +0.000 C 
ATOM     25  C   UNL     1       6.175   5.103  15.065  0.00  0.00    +0.000 C 
ENDBRANCH  19  22
ENDBRANCH  17  19
ENDBRANCH  14  17
ENDBRANCH   9  11
BRANCH   8  26
ATOM     26  C   UNL     1       0.938   9.628  22.764  0.00  0.00    +0.000 C 
ATOM     27  N   UNL     1       0.245   9.146  23.840  0.00  0.00    +0.000 N 
ATOM     28  O   UNL     1       2.165   9.575  22.762  0.00  0.00    +0.000 OA
ATOM     29  H   UNL     1      -0.760   9.046  23.840  0.00  0.00    +0.000 HD
ATOM     30  H   UNL     1       0.780   8.739  24.595  0.00  0.00    +0.000 HD
ENDBRANCH   8  26
BRANCH  10  31
ATOM     31  C   UNL     1      -1.139  10.486  18.231  0.00  0.00    +0.000 C 
ATOM     32  C   UNL     1      -2.302   9.559  17.854  0.00  0.00    +0.000 C 
ATOM     33  C   UNL     1      -2.731  10.038  16.472  0.00  0.00    +0.000 C 
ATOM     34  C   UNL     1      -2.364  11.516  16.382  0.00  0.00    +0.000 C 
ATOM     35  C   UNL     1      -1.503  11.838  17.598  0.00  0.00    +0.000 C 
ENDBRANCH  10  31
BRANCH   1  37
ATOM     36  C   UNL     1      -4.854  14.371  21.986  0.00  0.00    +0.000 C 
ATOM     37  C   UNL     1      -3.554  14.564  21.204  0.00  0.00    +0.000 C 
ATOM     38  C   UNL     1      -2.877  15.887  21.570  0.00  0.00    +0.000 C 
ENDBRANCH   1  37
TORSDOF 7
ENDMDL
MODEL 8
REMARK VINA RESULT:      -7.3      1.068      1.398
REMARK  Name = 
REMARK  12 active torsions:
REMARK  status: ('A' for Active; 'I' for Inactive)
REMARK    1  A    between atoms: C_1  and  C_2
REMARK    2  A    between atoms: C_2  and  C_3
REMARK    3  A    between atoms: C_2  and  C_4
REMARK    4  A    between atoms: C_11  and  C_12
REMARK    5  A    between atoms: C_15  and  C_16
REMARK    6  A    between atoms: C_19  and  N_20
REMARK    7  A    between atoms: N_20  and  S_21
REMARK    8  A    between atoms: S_21  and  C_24
REMARK    9  A    between atoms: C_24  and  C_25
REMARK   10  A    between atoms: C_24  and  C_26
REMARK   11  A    between atoms: C_24  and  C_27
REMARK   12  A    between atoms: N_30  and  C_31
REMARK                            x       y       z     vdW  Elec       q    Type
REMARK                         _______ _______ _______ _____ _____    ______ ____
ROOT
ATOM      1  C   UNL     1      -2.917  13.336  21.543  0.00  0.00    +0.000 A 
ATOM      2  C   UNL     1      -2.422  12.603  20.449  0.00  0.00    +0.000 A 
ATOM      3  C   UNL     1      -1.489  11.562  20.661  0.00  0.00    +0.000 A 
ATOM      4  C   UNL     1      -1.032  11.262  21.942  0.00  0.00    +0.000 A 
ATOM      5  C   UNL     1      -1.533  12.013  23.031  0.00  0.00    +0.000 A 
ATOM      6  C   UNL     1      -2.471  13.018  22.817  0.00  0.00    +0.000 A 
ATOM      7  F   UNL     1      -2.920  13.699  23.881  0.00  0.00    +0.000 F 
ATOM      8  C   UNL     1      -0.050  10.227  21.828  0.00  0.00    +0.000 A 
ATOM      9  C   UNL     1       0.092   9.914  20.462  0.00  0.00    +0.000 A 
ATOM     10  N   UNL     1      -0.849  10.697  19.772  0.00  0.00    +0.000 N 
ENDROOT
BRANCH   9  11
ATOM     11  C   UNL     1       1.033   8.942  19.836  0.00  0.00    +0.000 A 
ATOM     12  C   UNL     1       1.589   9.187  18.570  0.00  0.00    +0.000 A 
ATOM     13  C   UNL     1       2.390   8.235  17.925  0.00  0.00    +0.000 A 
ATOM     14  C   UNL     1       2.697   7.043  18.565  0.00  0.00    +0.000 A 
ATOM     15  C   UNL     1       2.223   6.803  19.850  0.00  0.00    +0.000 A 
ATOM     16  C   UNL     1       1.356   7.722  20.448  0.00  0.00    +0.000 A 
BRANCH  14  17
ATOM     17  N   UNL     1       3.501   6.057  17.913  0.00  0.00    +0.000 N 
ATOM     18  H   UNL     1       3.017   5.661  17.104  0.00  0.00    +0.000 HD
BRANCH  17  19
ATOM     19  S   UNL     1       4.032   4.769  18.879  0.00  0.00    +0.000 S 
ATOM     20  O   UNL     1       5.443   4.923  19.175  0.00  0.00    +0.000 OA
ATOM     21  O   UNL     1       3.053   4.650  19.938  0.00  0.00    +0.000 OA
BRANCH  19  22
ATOM     22  C   UNL     1       3.831   3.358  17.723  0.00  0.00    +0.000 C 
ATOM     23  C   UNL     1       4.096   2.041  18.462  0.00  0.00    +0.000 C 
ATOM     24  C   UNL     1       2.392   3.371  17.191  0.00  0.00    +0.000 C 
ATOM     25  C   UNL     1       4.811   3.507  16.548  0.00  0.00    +0.000 C 
ENDBRANCH  19  22
ENDBRANCH  17  19
ENDBRANCH  14  17
ENDBRANCH   9  11
BRANCH   8  26
ATOM     26  C   UNL     1       0.724   9.671  22.941  0.00  0.00    +0.000 C 
ATOM     27  N   UNL     1      -0.011   9.199  23.994  0.00  0.00    +0.000 N 
ATOM     28  O   UNL     1       1.949   9.595  22.976  0.00  0.00    +0.000 OA
ATOM     29  H   UNL     1      -1.017   9.118  23.963  0.00  0.00    +0.000 HD
ATOM     30  H   UNL     1       0.493   8.779  24.762  0.00  0.00    +0.000 HD
ENDBRANCH   8  26
BRANCH  10  31
ATOM     31  C   UNL     1      -1.112  10.671  18.334  0.00  0.00    +0.000 C 
ATOM     32  C   UNL     1      -2.087   9.604  17.820  0.00  0.00    +0.000 C 
ATOM     33  C   UNL     1      -2.518  10.117  16.451  0.00  0.00    +0.000 C 
ATOM     34  C   UNL     1      -2.393  11.637  16.488  0.00  0.00    +0.000 C 
ATOM     35  C   UNL     1      -1.659  11.994  17.775  0.00  0.00    +0.000 C 
ENDBRANCH  10  31
BRANCH   1  37
ATOM     36  C   UNL     1      -3.172  15.707  20.765  0.00  0.00    +0.000 C 
ATOM     37  C   UNL     1      -3.888  14.485  21.343  0.00  0.00    +0.000 C 
ATOM     38  C   UNL     1      -5.078  14.075  20.472  0.00  0.00    +0.000 C 
ENDBRANCH   1  37
TORSDOF 7
ENDMDL
MODEL 9
REMARK VINA RESULT:      -7.2      1.859      2.544
REMARK  Name = 
REMARK  12 active torsions:
REMARK  status: ('A' for Active; 'I' for Inactive)
REMARK    1  A    between atoms: C_1  and  C_2
REMARK    2  A    between atoms: C_2  and  C_3
REMARK    3  A    between atoms: C_2  and  C_4
REMARK    4  A    between atoms: C_11  and  C_12
REMARK    5  A    between atoms: C_15  and  C_16
REMARK    6  A    between atoms: C_19  and  N_20
REMARK    7  A    between atoms: N_20  and  S_21
REMARK    8  A    between atoms: S_21  and  C_24
REMARK    9  A    between atoms: C_24  and  C_25
REMARK   10  A    between atoms: C_24  and  C_26
REMARK   11  A    between atoms: C_24  and  C_27
REMARK   12  A    between atoms: N_30  and  C_31
REMARK                            x       y       z     vdW  Elec       q    Type
REMARK                         _______ _______ _______ _____ _____    ______ ____
ROOT
ATOM      1  C   UNL     1      -4.931  13.343  19.745  0.00  0.00    +0.000 A 
ATOM      2  C   UNL     1      -4.228  12.400  18.974  0.00  0.00    +0.000 A 
ATOM      3  C   UNL     1      -3.008  11.867  19.450  0.00  0.00    +0.000 A 
ATOM      4  C   UNL     1      -2.477  12.279  20.670  0.00  0.00    +0.000 A 
ATOM      5  C   UNL     1      -3.192  13.233  21.431  0.00  0.00    +0.000 A 
ATOM      6  C   UNL     1      -4.404  13.733  20.967  0.00  0.00    +0.000 A 
ATOM      7  F   UNL     1      -5.048  14.633  21.725  0.00  0.00    +0.000 F 
ATOM      8  C   UNL     1      -1.213  11.628  20.842  0.00  0.00    +0.000 A 
ATOM      9  C   UNL     1      -0.981  10.829  19.706  0.00  0.00    +0.000 A 
ATOM     10  N   UNL     1      -2.125  10.939  18.898  0.00  0.00    +0.000 N 
ENDROOT
BRANCH   9  11
ATOM     11  C   UNL     1       0.223  10.007  19.393  0.00  0.00    +0.000 A 
ATOM     12  C   UNL     1       0.999  10.267  18.252  0.00  0.00    +0.000 A 
ATOM     13  C   UNL     1       2.070   9.437  17.889  0.00  0.00    +0.000 A 
ATOM     14  C   UNL     1       2.417   8.365  18.699  0.00  0.00    +0.000 A 
ATOM     15  C   UNL     1       1.715   8.127  19.874  0.00  0.00    +0.000 A 
ATOM     16  C   UNL     1       0.596   8.908  20.181  0.00  0.00    +0.000 A 
BRANCH  14  17
ATOM     17  N   UNL     1       3.497   7.503  18.333  0.00  0.00    +0.000 N 
ATOM     18  H   UNL     1       3.788   7.663  17.367  0.00  0.00    +0.000 HD
BRANCH  17  19
ATOM     19  S   UNL     1       3.220   5.840  18.519  0.00  0.00    +0.000 S 
ATOM     20  O   UNL     1       3.334   5.474  19.918  0.00  0.00    +0.000 OA
ATOM     21  O   UNL     1       2.014   5.563  17.769  0.00  0.00    +0.000 OA
BRANCH  19  22
ATOM     22  C   UNL     1       4.656   5.142  17.616  0.00  0.00    +0.000 C 
ATOM     23  C   UNL     1       4.262   3.812  16.964  0.00  0.00    +0.000 C 
ATOM     24  C   UNL     1       5.078   6.143  16.533  0.00  0.00    +0.000 C 
ATOM     25  C   UNL     1       5.824   4.923  18.591  0.00  0.00    +0.000 C 
ENDBRANCH  19  22
ENDBRANCH  17  19
ENDBRANCH  14  17
ENDBRANCH   9  11
BRANCH   8  26
ATOM     26  C   UNL     1      -0.300  11.842  21.967  0.00  0.00    +0.000 C 
ATOM     27  N   UNL     1      -0.161  13.141  22.376  0.00  0.00    +0.000 N 
ATOM     28  O   UNL     1       0.315  10.955  22.552  0.00  0.00    +0.000 OA
ATOM     29  H   UNL     1      -0.738  13.889  22.019  0.00  0.00    +0.000 HD
ATOM     30  H   UNL     1       0.435  13.317  23.172  0.00  0.00    +0.000 HD
ENDBRANCH   8  26
BRANCH  10  31
ATOM     31  C   UNL     1      -2.367  10.238  17.637  0.00  0.00    +0.000 C 
ATOM     32  C   UNL     1      -3.754   9.611  17.441  0.00  0.00    +0.000 C 
ATOM     33  C   UNL     1      -3.863   9.406  15.934  0.00  0.00    +0.000 C 
ATOM     34  C   UNL     1      -2.975  10.458  15.278  0.00  0.00    +0.000 C 
ATOM     35  C   UNL     1      -2.158  11.109  16.389  0.00  0.00    +0.000 C 
ENDBRANCH  10  31
BRANCH   1  37
ATOM     36  C   UNL     1      -6.330  13.833  17.721  0.00  0.00    +0.000 C 
ATOM     37  C   UNL     1      -6.221  13.964  19.241  0.00  0.00    +0.000 C 
ATOM     38  C   UNL     1      -7.446  13.369  19.939  0.00  0.00    +0.000 C 
ENDBRANCH   1  37
TORSDOF 7
ENDMDL
