MODEL 1
REMARK VINA RESULT:      -7.9      0.000      0.000
REMARK  Name = 
REMARK  7 active torsions:
REMARK  status: ('A' for Active; 'I' for Inactive)
REMARK    1  A    between atoms: C_1  and  C_2
REMARK    2  A    between atoms: C_2  and  C_3
REMARK    3  A    between atoms: C_2  and  N_4
REMARK    4  A    between atoms: N_4  and  C_5
REMARK    5  A    between atoms: N_14  and  C_15
REMARK    6  A    between atoms: C_18  and  C_19
REMARK    7  A    between atoms: C_19  and  O_20
REMARK                            x       y       z     vdW  Elec       q    Type
REMARK                         _______ _______ _______ _____ _____    ______ ____
ROOT
ATOM      1  C   UNL     1       6.477   5.411  16.341  0.00  0.00    +0.000 A 
ATOM      2  N   UNL     1       7.407   5.933  17.179  0.00  0.00    +0.000 NA
ATOM      3  C   UNL     1       7.347   5.681  18.495  0.00  0.00    +0.000 A 
ATOM      4  N   UNL     1       8.312   6.300  19.264  0.00  0.00    +0.000 N 
ATOM      5  N   UNL     1       6.427   4.946  19.132  0.00  0.00    +0.000 NA
ATOM      6  C   UNL     1       5.525   4.417  18.281  0.00  0.00    +0.000 A 
ATOM      7  C   UNL     1       5.482   4.592  16.909  0.00  0.00    +0.000 A 
ATOM      8  N   UNL     1       4.429   3.900  16.357  0.00  0.00    +0.000 NA
ATOM      9  C   UNL     1       3.837   3.329  17.385  0.00  0.00    +0.000 A 
ATOM     10  N   UNL     1       4.447   3.605  18.597  0.00  0.00    +0.000 N 
ATOM     11  H   UNL     1       8.681   7.080  18.735  0.00  0.00    +0.000 HD
ATOM     12  H   UNL     1       7.933   6.511  20.176  0.00  0.00    +0.000 HD
ENDROOT
BRANCH  10  13
ATOM     13  C   UNL     1       4.070   3.191  19.876  0.00  0.00    +0.000 C 
ATOM     14  C   UNL     1       2.857   3.197  20.391  0.00  0.00    +0.000 C 
ATOM     15  C   UNL     1       2.109   2.919  21.555  0.00  0.00    +0.000 C 
ATOM     16  C   UNL     1       1.483   3.467  20.224  0.00  0.00    +0.000 C 
BRANCH  16  17
ATOM     17  C   UNL     1       0.594   2.592  19.410  0.00  0.00    +0.000 C 
BRANCH  17  18
ATOM     18  O   UNL     1       1.386   1.634  18.724  0.00  0.00    +0.000 OA
ATOM     19  H   UNL     1       1.868   2.109  18.026  0.00  0.00    +0.000 HD
ENDBRANCH  17  18
ENDBRANCH  16  17
ENDBRANCH  10  13
BRANCH   1  20
ATOM     20  N   UNL     1       6.504   5.707  14.972  0.00  0.00    +0.000 N 
ATOM     21  H   UNL     1       5.573   5.984  14.667  0.00  0.00    +0.000 HD
BRANCH  20  23
ATOM     22  C   UNL     1       6.183   3.874  13.405  0.00  0.00    +0.000 C 
ATOM     23  C   UNL     1       7.211   4.757  14.115  0.00  0.00    +0.000 C 
ATOM     24  C   UNL     1       8.054   5.491  13.070  0.00  0.00    +0.000 C 
ENDBRANCH  20  23
ENDBRANCH   1  20
TORSDOF 5
ENDMDL
MODEL 2
REMARK VINA RESULT:      -7.6      2.115      3.586
REMARK  Name = 
REMARK  7 active torsions:
REMARK  status: ('A' for Active; 'I' for Inactive)
REMARK    1  A    between atoms: C_1  and  C_2
REMARK    2  A    between atoms: C_2  and  C_3
REMARK    3  A    between atoms: C_2  and  N_4
REMARK    4  A    between atoms: N_4  and  C_5
REMARK    5  A    between atoms: N_14  and  C_15
REMARK    6  A    between atoms: C_18  and  C_19
REMARK    7  A    between atoms: C_19  and  O_20
REMARK                            x       y       z     vdW  Elec       q    Type
REMARK                         _______ _______ _______ _____ _____    ______ ____
ROOT
ATOM      1  C   UNL     1       5.867   6.556  16.732  0.00  0.00    +0.000 A 
ATOM      2  N   UNL     1       6.392   5.620  15.904  0.00  0.00    +0.000 NA
ATOM      3  C   UNL     1       5.726   4.480  15.666  0.00  0.00    +0.000 A 
ATOM      4  N   UNL     1       6.370   3.574  14.849  0.00  0.00    +0.000 N 
ATOM      5  N   UNL     1       4.543   4.118  16.178  0.00  0.00    +0.000 NA
ATOM      6  C   UNL     1       4.026   5.071  16.980  0.00  0.00    +0.000 A 
ATOM      7  C   UNL     1       4.606   6.286  17.298  0.00  0.00    +0.000 A 
ATOM      8  N   UNL     1       3.795   7.014  18.139  0.00  0.00    +0.000 NA
ATOM      9  C   UNL     1       2.750   6.239  18.338  0.00  0.00    +0.000 A 
ATOM     10  N   UNL     1       2.822   5.030  17.666  0.00  0.00    +0.000 N 
ATOM     11  H   UNL     1       7.356   3.801  14.846  0.00  0.00    +0.000 HD
ATOM     12  H   UNL     1       6.122   2.634  15.124  0.00  0.00    +0.000 HD
ENDROOT
BRANCH  10  13
ATOM     13  C   UNL     1       1.912   3.972  17.676  0.00  0.00    +0.000 C 
ATOM     14  C   UNL     1       1.698   3.113  18.652  0.00  0.00    +0.000 C 
ATOM     15  C   UNL     1       0.957   1.972  19.027  0.00  0.00    +0.000 C 
ATOM     16  C   UNL     1       2.008   2.675  19.956  0.00  0.00    +0.000 C 
BRANCH  16  17
ATOM     17  C   UNL     1       1.550   3.406  21.170  0.00  0.00    +0.000 C 
BRANCH  17  18
ATOM     18  O   UNL     1       2.399   3.078  22.259  0.00  0.00    +0.000 OA
ATOM     19  H   UNL     1       2.939   2.319  21.982  0.00  0.00    +0.000 HD
ENDBRANCH  17  18
ENDBRANCH  16  17
ENDBRANCH  10  13
BRANCH   1  20
ATOM     20  N   UNL     1       6.577   7.728  17.025  0.00  0.00    +0.000 N 
ATOM     21  H   UNL     1       6.512   8.370  16.237  0.00  0.00    +0.000 HD
BRANCH  20  23
ATOM     22  C   UNL     1       8.381   8.903  18.159  0.00  0.00    +0.000 C 
ATOM     23  C   UNL     1       7.905   7.556  17.612  0.00  0.00    +0.000 C 
ATOM     24  C   UNL     1       7.867   6.534  18.750  0.00  0.00    +0.000 C 
ENDBRANCH  20  23
ENDBRANCH   1  20
TORSDOF 5
ENDMDL
MODEL 3
REMARK VINA RESULT:      -7.5      1.368      1.630
REMARK  Name = 
REMARK  7 active torsions:
REMARK  status: ('A' for Active; 'I' for Inactive)
REMARK    1  A    between atoms: C_1  and  C_2
REMARK    2  A    between atoms: C_2  and  C_3
REMARK    3  A    between atoms: C_2  and  N_4
REMARK    4  A    between atoms: N_4  and  C_5
REMARK    5  A    between atoms: N_14  and  C_15
REMARK    6  A    between atoms: C_18  and  C_19
REMARK    7  A    between atoms: C_19  and  O_20
REMARK                            x       y       z     vdW  Elec       q    Type
REMARK                         _______ _______ _______ _____ _____    ______ ____
ROOT
ATOM      1  C   UNL     1       6.938   5.142  15.834  0.00  0.00    +0.000 A 
ATOM      2  N   UNL     1       7.497   6.325  16.189  0.00  0.00    +0.000 NA
ATOM      3  C   UNL     1       7.018   7.010  17.239  0.00  0.00    +0.000 A 
ATOM      4  N   UNL     1       7.626   8.224  17.485  0.00  0.00    +0.000 N 
ATOM      5  N   UNL     1       5.991   6.663  18.024  0.00  0.00    +0.000 NA
ATOM      6  C   UNL     1       5.463   5.474  17.670  0.00  0.00    +0.000 A 
ATOM      7  C   UNL     1       5.869   4.670  16.619  0.00  0.00    +0.000 A 
ATOM      8  N   UNL     1       5.110   3.524  16.555  0.00  0.00    +0.000 NA
ATOM      9  C   UNL     1       4.249   3.644  17.543  0.00  0.00    +0.000 A 
ATOM     10  N   UNL     1       4.399   4.815  18.267  0.00  0.00    +0.000 N 
ATOM     11  H   UNL     1       8.097   8.516  16.638  0.00  0.00    +0.000 HD
ATOM     12  H   UNL     1       6.951   8.868  17.872  0.00  0.00    +0.000 HD
ENDROOT
BRANCH  10  13
ATOM     13  C   UNL     1       3.646   5.272  19.349  0.00  0.00    +0.000 C 
ATOM     14  C   UNL     1       2.458   4.849  19.730  0.00  0.00    +0.000 C 
ATOM     15  C   UNL     1       1.420   5.047  20.666  0.00  0.00    +0.000 C 
ATOM     16  C   UNL     1       1.374   3.969  19.526  0.00  0.00    +0.000 C 
BRANCH  16  17
ATOM     17  C   UNL     1       1.450   2.522  19.872  0.00  0.00    +0.000 C 
BRANCH  17  18
ATOM     18  O   UNL     1       1.458   1.758  18.676  0.00  0.00    +0.000 OA
ATOM     19  H   UNL     1       1.817   2.328  17.975  0.00  0.00    +0.000 HD
ENDBRANCH  17  18
ENDBRANCH  16  17
ENDBRANCH  10  13
BRANCH   1  20
ATOM     20  N   UNL     1       7.400   4.444  14.711  0.00  0.00    +0.000 N 
ATOM     21  H   UNL     1       8.417   4.415  14.724  0.00  0.00    +0.000 HD
BRANCH  20  23
ATOM     22  C   UNL     1       7.851   5.346  12.496  0.00  0.00    +0.000 C 
ATOM     23  C   UNL     1       6.778   4.784  13.432  0.00  0.00    +0.000 C 
ATOM     24  C   UNL     1       6.145   3.548  12.789  0.00  0.00    +0.000 C 
ENDBRANCH  20  23
ENDBRANCH   1  20
TORSDOF 5
ENDMDL
MODEL 4
REMARK VINA RESULT:      -7.0      1.528      1.612
REMARK  Name = 
REMARK  7 active torsions:
REMARK  status: ('A' for Active; 'I' for Inactive)
REMARK    1  A    between atoms: C_1  and  C_2
REMARK    2  A    between atoms: C_2  and  C_3
REMARK    3  A    between atoms: C_2  and  N_4
REMARK    4  A    between atoms: N_4  and  C_5
REMARK    5  A    between atoms: N_14  and  C_15
REMARK    6  A    between atoms: C_18  and  C_19
REMARK    7  A    between atoms: C_19  and  O_20
REMARK                            x       y       z     vdW  Elec       q    Type
REMARK                         _______ _______ _______ _____ _____    ______ ____
ROOT
ATOM      1  C   UNL     1       6.267   5.193  16.568  0.00  0.00    +0.000 A 
ATOM      2  N   UNL     1       7.156   5.493  17.547  0.00  0.00    +0.000 NA
ATOM      3  C   UNL     1       6.943   5.076  18.803  0.00  0.00    +0.000 A 
ATOM      4  N   UNL     1       7.883   5.477  19.731  0.00  0.00    +0.000 N 
ATOM      5  N   UNL     1       5.898   4.367  19.249  0.00  0.00    +0.000 NA
ATOM      6  C   UNL     1       5.037   4.058  18.259  0.00  0.00    +0.000 A 
ATOM      7  C   UNL     1       5.146   4.419  16.927  0.00  0.00    +0.000 A 
ATOM      8  N   UNL     1       4.091   3.927  16.195  0.00  0.00    +0.000 NA
ATOM      9  C   UNL     1       3.347   3.292  17.077  0.00  0.00    +0.000 A 
ATOM     10  N   UNL     1       3.860   3.335  18.363  0.00  0.00    +0.000 N 
ATOM     11  H   UNL     1       8.376   6.275  19.352  0.00  0.00    +0.000 HD
ATOM     12  H   UNL     1       7.438   5.604  20.629  0.00  0.00    +0.000 HD
ENDROOT
BRANCH  10  13
ATOM     13  C   UNL     1       3.320   2.797  19.533  0.00  0.00    +0.000 C 
ATOM     14  C   UNL     1       2.821   3.458  20.558  0.00  0.00    +0.000 C 
ATOM     15  C   UNL     1       2.253   3.316  21.842  0.00  0.00    +0.000 C 
ATOM     16  C   UNL     1       2.500   4.700  21.145  0.00  0.00    +0.000 C 
BRANCH  16  17
ATOM     17  C   UNL     1       1.340   5.517  20.691  0.00  0.00    +0.000 C 
BRANCH  17  18
ATOM     18  O   UNL     1       1.675   6.893  20.784  0.00  0.00    +0.000 OA
ATOM     19  H   UNL     1       0.944   7.335  21.247  0.00  0.00    +0.000 HD
ENDBRANCH  17  18
ENDBRANCH  16  17
ENDBRANCH  10  13
BRANCH   1  20
ATOM     20  N   UNL     1       6.456   5.665  15.263  0.00  0.00    +0.000 N 
ATOM     21  H   UNL     1       5.589   6.072  14.920  0.00  0.00    +0.000 HD
BRANCH  20  23
ATOM     22  C   UNL     1       6.129   3.935  13.583  0.00  0.00    +0.000 C 
ATOM     23  C   UNL     1       7.160   4.772  14.344  0.00  0.00    +0.000 C 
ATOM     24  C   UNL     1       7.999   5.571  13.344  0.00  0.00    +0.000 C 
ENDBRANCH  20  23
ENDBRANCH   1  20
TORSDOF 5
ENDMDL
MODEL 5
REMARK VINA RESULT:      -7.0      1.622      1.996
REMARK  Name = 
REMARK  7 active torsions:
REMARK  status: ('A' for Active; 'I' for Inactive)
REMARK    1  A    between atoms: C_1  and  C_2
REMARK    2  A    between atoms: C_2  and  C_3
REMARK    3  A    between atoms: C_2  and  N_4
REMARK    4  A    between atoms: N_4  and  C_5
REMARK    5  A    between atoms: N_14  and  C_15
REMARK    6  A    between atoms: C_18  and  C_19
REMARK    7  A    between atoms: C_19  and  O_20
REMARK                            x       y       z     vdW  Elec       q    Type
REMARK                         _______ _______ _______ _____ _____    ______ ____
ROOT
ATOM      1  C   UNL     1       6.302   4.472  15.580  0.00  0.00    +0.000 A 
ATOM      2  N   UNL     1       7.141   5.508  15.826  0.00  0.00    +0.000 NA
ATOM      3  C   UNL     1       6.910   6.333  16.857  0.00  0.00    +0.000 A 
ATOM      4  N   UNL     1       7.796   7.383  16.990  0.00  0.00    +0.000 N 
ATOM      5  N   UNL     1       5.891   6.273  17.724  0.00  0.00    +0.000 NA
ATOM      6  C   UNL     1       5.081   5.224  17.478  0.00  0.00    +0.000 A 
ATOM      7  C   UNL     1       5.213   4.299  16.457  0.00  0.00    +0.000 A 
ATOM      8  N   UNL     1       4.210   3.359  16.510  0.00  0.00    +0.000 NA
ATOM      9  C   UNL     1       3.474   3.723  17.539  0.00  0.00    +0.000 A 
ATOM     10  N   UNL     1       3.941   4.860  18.177  0.00  0.00    +0.000 N 
ATOM     11  H   UNL     1       8.258   7.517  16.099  0.00  0.00    +0.000 HD
ATOM     12  H   UNL     1       7.317   8.184  17.376  0.00  0.00    +0.000 HD
ENDROOT
BRANCH  10  13
ATOM     13  C   UNL     1       3.394   5.530  19.273  0.00  0.00    +0.000 C 
ATOM     14  C   UNL     1       2.324   5.191  19.963  0.00  0.00    +0.000 C 
ATOM     15  C   UNL     1       1.482   5.575  21.028  0.00  0.00    +0.000 C 
ATOM     16  C   UNL     1       1.263   4.282  20.166  0.00  0.00    +0.000 C 
BRANCH  16  17
ATOM     17  C   UNL     1       1.473   2.941  20.777  0.00  0.00    +0.000 C 
BRANCH  17  18
ATOM     18  O   UNL     1       2.253   3.082  21.954  0.00  0.00    +0.000 OA
ATOM     19  H   UNL     1       3.138   3.374  21.678  0.00  0.00    +0.000 HD
ENDBRANCH  17  18
ENDBRANCH  16  17
ENDBRANCH  10  13
BRANCH   1  20
ATOM     20  N   UNL     1       6.508   3.633  14.477  0.00  0.00    +0.000 N 
ATOM     21  H   UNL     1       7.405   3.161  14.572  0.00  0.00    +0.000 HD
BRANCH  20  23
ATOM     22  C   UNL     1       7.524   4.630  12.504  0.00  0.00    +0.000 C 
ATOM     23  C   UNL     1       6.211   4.201  13.163  0.00  0.00    +0.000 C 
ATOM     24  C   UNL     1       5.511   3.173  12.272  0.00  0.00    +0.000 C 
ENDBRANCH  20  23
ENDBRANCH   1  20
TORSDOF 5
ENDMDL
MODEL 6
REMARK VINA RESULT:      -6.9      1.948      3.590
REMARK  Name = 
REMARK  7 active torsions:
REMARK  status: ('A' for Active; 'I' for Inactive)
REMARK    1  A    between atoms: C_1  and  C_2
REMARK    2  A    between atoms: C_2  and  C_3
REMARK    3  A    between atoms: C_2  and  N_4
REMARK    4  A    between atoms: N_4  and  C_5
REMARK    5  A    between atoms: N_14  and  C_15
REMARK    6  A    between atoms: C_18  and  C_19
REMARK    7  A    between atoms: C_19  and  O_20
REMARK                            x       y       z     vdW  Elec       q    Type
REMARK                         _______ _______ _______ _____ _____    ______ ____
ROOT
ATOM      1  C   UNL     1       6.497   6.144  16.348  0.00  0.00    +0.000 A 
ATOM      2  N   UNL     1       6.791   5.248  15.374  0.00  0.00    +0.000 NA
ATOM      3  C   UNL     1       5.938   4.251  15.094  0.00  0.00    +0.000 A 
ATOM      4  N   UNL     1       6.356   3.366  14.121  0.00  0.00    +0.000 N 
ATOM      5  N   UNL     1       4.767   4.002  15.694  0.00  0.00    +0.000 NA
ATOM      6  C   UNL     1       4.480   4.916  16.643  0.00  0.00    +0.000 A 
ATOM      7  C   UNL     1       5.267   5.991  17.019  0.00  0.00    +0.000 A 
ATOM      8  N   UNL     1       4.661   6.720  18.015  0.00  0.00    +0.000 NA
ATOM      9  C   UNL     1       3.532   6.084  18.247  0.00  0.00    +0.000 A 
ATOM     10  N   UNL     1       3.355   4.966  17.450  0.00  0.00    +0.000 N 
ATOM     11  H   UNL     1       7.361   3.450  14.033  0.00  0.00    +0.000 HD
ATOM     12  H   UNL     1       5.994   2.445  14.323  0.00  0.00    +0.000 HD
ENDROOT
BRANCH  10  13
ATOM     13  C   UNL     1       2.297   4.054  17.450  0.00  0.00    +0.000 C 
ATOM     14  C   UNL     1       1.830   3.375  18.478  0.00  0.00    +0.000 C 
ATOM     15  C   UNL     1       0.881   2.408  18.872  0.00  0.00    +0.000 C 
ATOM     16  C   UNL     1       1.901   3.082  19.856  0.00  0.00    +0.000 C 
BRANCH  16  17
ATOM     17  C   UNL     1       1.411   4.029  20.896  0.00  0.00    +0.000 C 
BRANCH  17  18
ATOM     18  O   UNL     1       2.449   4.942  21.220  0.00  0.00    +0.000 OA
ATOM     19  H   UNL     1       2.586   5.507  20.441  0.00  0.00    +0.000 HD
ENDBRANCH  17  18
ENDBRANCH  16  17
ENDBRANCH  10  13
BRANCH   1  20
ATOM     20  N   UNL     1       7.402   7.160  16.680  0.00  0.00    +0.000 N 
ATOM     21  H   UNL     1       8.277   7.012  16.181  0.00  0.00    +0.000 HD
BRANCH  20  23
ATOM     22  C   UNL     1       8.133   6.304  18.837  0.00  0.00    +0.000 C 
ATOM     23  C   UNL     1       7.515   7.493  18.099  0.00  0.00    +0.000 C 
ATOM     24  C   UNL     1       8.397   8.727  18.300  0.00  0.00    +0.000 C 
ENDBRANCH  20  23
ENDBRANCH   1  20
TORSDOF 5
ENDMDL
MODEL 7
REMARK VINA RESULT:      -6.9      2.252      5.965
REMARK  Name = 
REMARK  7 active torsions:
REMARK  status: ('A' for Active; 'I' for Inactive)
REMARK    1  A    between atoms: C_1  and  C_2
REMARK    2  A    between atoms: C_2  and  C_3
REMARK    3  A    between atoms: C_2  and  N_4
REMARK    4  A    between atoms: N_4  and  C_5
REMARK    5  A    between atoms: N_14  and  C_15
REMARK    6  A    between atoms: C_18  and  C_19
REMARK    7  A    between atoms: C_19  and  O_20
REMARK                            x       y       z     vdW  Elec       q    Type
REMARK                         _______ _______ _______ _____ _____    ______ ____
ROOT
ATOM      1  C   UNL     1       5.035   4.577  19.096  0.00  0.00    +0.000 A 
ATOM      2  N   UNL     1       6.139   5.173  19.610  0.00  0.00    +0.000 NA
ATOM      3  C   UNL     1       7.152   5.527  18.805  0.00  0.00    +0.000 A 
ATOM      4  N   UNL     1       8.248   6.081  19.435  0.00  0.00    +0.000 N 
ATOM      5  N   UNL     1       7.227   5.348  17.480  0.00  0.00    +0.000 NA
ATOM      6  C   UNL     1       6.111   4.775  16.984  0.00  0.00    +0.000 A 
ATOM      7  C   UNL     1       4.999   4.373  17.703  0.00  0.00    +0.000 A 
ATOM      8  N   UNL     1       4.044   3.834  16.872  0.00  0.00    +0.000 NA
ATOM      9  C   UNL     1       4.581   3.895  15.672  0.00  0.00    +0.000 A 
ATOM     10  N   UNL     1       5.849   4.453  15.662  0.00  0.00    +0.000 N 
ATOM     11  H   UNL     1       8.212   5.819  20.412  0.00  0.00    +0.000 HD
ATOM     12  H   UNL     1       9.088   5.836  18.931  0.00  0.00    +0.000 HD
ENDROOT
BRANCH  10  13
ATOM     13  C   UNL     1       6.708   4.642  14.578  0.00  0.00    +0.000 C 
ATOM     14  C   UNL     1       6.606   4.112  13.377  0.00  0.00    +0.000 C 
ATOM     15  C   UNL     1       7.224   4.021  12.111  0.00  0.00    +0.000 C 
ATOM     16  C   UNL     1       5.889   3.286  12.485  0.00  0.00    +0.000 C 
BRANCH  16  17
ATOM     17  C   UNL     1       4.607   3.715  11.861  0.00  0.00    +0.000 C 
BRANCH  17  18
ATOM     18  O   UNL     1       4.108   2.662  11.050  0.00  0.00    +0.000 OA
ATOM     19  H   UNL     1       3.754   1.984  11.649  0.00  0.00    +0.000 HD
ENDBRANCH  17  18
ENDBRANCH  16  17
ENDBRANCH  10  13
BRANCH   1  20
ATOM     20  N   UNL     1       3.993   4.161  19.935  0.00  0.00    +0.000 N 
ATOM     21  H   UNL     1       4.030   3.150  20.046  0.00  0.00    +0.000 HD
BRANCH  20  23
ATOM     22  C   UNL     1       1.689   4.212  20.715  0.00  0.00    +0.000 C 
ATOM     23  C   UNL     1       2.675   4.736  19.669  0.00  0.00    +0.000 C 
ATOM     24  C   UNL     1       2.724   6.264  19.741  0.00  0.00    +0.000 C 
ENDBRANCH  20  23
ENDBRANCH   1  20
TORSDOF 5
ENDMDL
MODEL 8
REMARK VINA RESULT:      -6.8      2.404      3.454
REMARK  Name = 
REMARK  7 active torsions:
REMARK  status: ('A' for Active; 'I' for Inactive)
REMARK    1  A    between atoms: C_1  and  C_2
REMARK    2  A    between atoms: C_2  and  C_3
REMARK    3  A    between atoms: C_2  and  N_4
REMARK    4  A    between atoms: N_4  and  C_5
REMARK    5  A    between atoms: N_14  and  C_15
REMARK    6  A    between atoms: C_18  and  C_19
REMARK    7  A    between atoms: C_19  and  O_20
REMARK                            x       y       z     vdW  Elec       q    Type
REMARK                         _______ _______ _______ _____ _____    ______ ____
ROOT
ATOM      1  C   UNL     1       5.357   6.583  16.954  0.00  0.00    +0.000 A 
ATOM      2  N   UNL     1       4.518   7.529  17.444  0.00  0.00    +0.000 NA
ATOM      3  C   UNL     1       3.300   7.185  17.888  0.00  0.00    +0.000 A 
ATOM      4  N   UNL     1       2.507   8.229  18.319  0.00  0.00    +0.000 N 
ATOM      5  N   UNL     1       2.766   5.957  17.903  0.00  0.00    +0.000 NA
ATOM      6  C   UNL     1       3.623   5.028  17.435  0.00  0.00    +0.000 A 
ATOM      7  C   UNL     1       4.903   5.250  16.958  0.00  0.00    +0.000 A 
ATOM      8  N   UNL     1       5.495   4.071  16.567  0.00  0.00    +0.000 NA
ATOM      9  C   UNL     1       4.577   3.153  16.791  0.00  0.00    +0.000 A 
ATOM     10  N   UNL     1       3.402   3.664  17.316  0.00  0.00    +0.000 N 
ATOM     11  H   UNL     1       2.870   9.084  17.918  0.00  0.00    +0.000 HD
ATOM     12  H   UNL     1       1.537   8.017  18.131  0.00  0.00    +0.000 HD
ENDROOT
BRANCH  10  13
ATOM     13  C   UNL     1       2.227   2.986  17.641  0.00  0.00    +0.000 C 
ATOM     14  C   UNL     1       1.669   2.882  18.830  0.00  0.00    +0.000 C 
ATOM     15  C   UNL     1       0.592   2.310  19.541  0.00  0.00    +0.000 C 
ATOM     16  C   UNL     1       1.697   3.207  20.203  0.00  0.00    +0.000 C 
BRANCH  16  17
ATOM     17  C   UNL     1       1.346   4.564  20.706  0.00  0.00    +0.000 C 
BRANCH  17  18
ATOM     18  O   UNL     1       2.536   5.316  20.885  0.00  0.00    +0.000 OA
ATOM     19  H   UNL     1       2.989   5.343  20.026  0.00  0.00    +0.000 HD
ENDBRANCH  17  18
ENDBRANCH  16  17
ENDBRANCH  10  13
BRANCH   1  20
ATOM     20  N   UNL     1       6.613   6.939  16.444  0.00  0.00    +0.000 N 
ATOM     21  H   UNL     1       6.806   6.392  15.607  0.00  0.00    +0.000 HD
BRANCH  20  23
ATOM     22  C   UNL     1       7.861   8.515  17.815  0.00  0.00    +0.000 C 
ATOM     23  C   UNL     1       7.702   7.047  17.413  0.00  0.00    +0.000 C 
ATOM     24  C   UNL     1       7.405   6.211  18.660  0.00  0.00    +0.000 C 
ENDBRANCH  20  23
ENDBRANCH   1  20
TORSDOF 5
ENDMDL
MODEL 9
REMARK VINA RESULT:      -6.8      1.584      1.900
REMARK  Name = 
REMARK  7 active torsions:
REMARK  status: ('A' for Active; 'I' for Inactive)
REMARK    1  A    between atoms: C_1  and  C_2
REMARK    2  A    between atoms: C_2  and  C_3
REMARK    3  A    between atoms: C_2  and  N_4
REMARK    4  A    between atoms: N_4  and  C_5
REMARK    5  A    between atoms: N_14  and  C_15
REMARK    6  A    between atoms: C_18  and  C_19
REMARK    7  A    between atoms: C_19  and  O_20
REMARK                            x       y       z     vdW  Elec       q    Type
REMARK                         _______ _______ _______ _____ _____    ______ ____
ROOT
ATOM      1  C   UNL     1       6.721   5.733  16.938  0.00  0.00    +0.000 A 
ATOM      2  N   UNL     1       7.675   5.600  17.892  0.00  0.00    +0.000 NA
ATOM      3  C   UNL     1       7.327   5.390  19.170  0.00  0.00    +0.000 A 
ATOM      4  N   UNL     1       8.373   5.319  20.068  0.00  0.00    +0.000 N 
ATOM      5  N   UNL     1       6.084   5.298  19.661  0.00  0.00    +0.000 NA
ATOM      6  C   UNL     1       5.150   5.409  18.695  0.00  0.00    +0.000 A 
ATOM      7  C   UNL     1       5.378   5.618  17.346  0.00  0.00    +0.000 A 
ATOM      8  N   UNL     1       4.193   5.673  16.649  0.00  0.00    +0.000 NA
ATOM      9  C   UNL     1       3.264   5.516  17.569  0.00  0.00    +0.000 A 
ATOM     10  N   UNL     1       3.774   5.355  18.846  0.00  0.00    +0.000 N 
ATOM     11  H   UNL     1       9.179   5.760  19.645  0.00  0.00    +0.000 HD
ATOM     12  H   UNL     1       8.075   5.682  20.963  0.00  0.00    +0.000 HD
ENDROOT
BRANCH  10  13
ATOM     13  C   UNL     1       3.080   5.195  20.047  0.00  0.00    +0.000 C 
ATOM     14  C   UNL     1       2.778   4.063  20.649  0.00  0.00    +0.000 C 
ATOM     15  C   UNL     1       2.116   3.502  21.762  0.00  0.00    +0.000 C 
ATOM     16  C   UNL     1       2.846   2.654  20.662  0.00  0.00    +0.000 C 
BRANCH  16  17
ATOM     17  C   UNL     1       4.099   1.923  21.002  0.00  0.00    +0.000 C 
BRANCH  17  18
ATOM     18  O   UNL     1       5.003   2.017  19.912  0.00  0.00    +0.000 OA
ATOM     19  H   UNL     1       5.652   1.302  20.016  0.00  0.00    +0.000 HD
ENDBRANCH  17  18
ENDBRANCH  16  17
ENDBRANCH  10  13
BRANCH   1  20
ATOM     20  N   UNL     1       7.074   6.001  15.609  0.00  0.00    +0.000 N 
ATOM     21  H   UNL     1       6.926   6.988  15.411  0.00  0.00    +0.000 HD
BRANCH  20  23
ATOM     22  C   UNL     1       7.510   5.110  13.386  0.00  0.00    +0.000 C 
ATOM     23  C   UNL     1       6.584   5.059  14.604  0.00  0.00    +0.000 C 
ATOM     24  C   UNL     1       6.559   3.634  15.160  0.00  0.00    +0.000 C 
ENDBRANCH  20  23
ENDBRANCH   1  20
TORSDOF 5
ENDMDL
