MODEL 1
REMARK VINA RESULT:      -7.4      0.000      0.000
REMARK  Name = 
REMARK  7 active torsions:
REMARK  status: ('A' for Active; 'I' for Inactive)
REMARK    1  A    between atoms: C_1  and  C_2
REMARK    2  A    between atoms: C_5  and  C_6
REMARK    3  A    between atoms: C_7  and  N_8
REMARK    4  A    between atoms: C_9  and  C_11
REMARK    5  A    between atoms: C_11  and  S_12
REMARK    6  A    between atoms: S_12  and  C_13
REMARK    7  A    between atoms: C_16  and  C_17
REMARK                            x       y       z     vdW  Elec       q    Type
REMARK                         _______ _______ _______ _____ _____    ______ ____
ROOT
ATOM      1  C   UNL     1       2.361   4.120  21.593  0.00  0.00    +0.000 C 
ENDROOT
BRANCH   1   3
ATOM      2  N   UNL     1       2.451   6.363  20.621  0.00  0.00    +0.000 N 
ATOM      3  C   UNL     1       1.705   5.194  20.716  0.00  0.00    +0.000 C 
ATOM      4  O   UNL     1       0.600   5.015  20.207  0.00  0.00    +0.000 OA
ATOM      5  H   UNL     1       3.123   6.505  21.363  0.00  0.00    +0.000 HD
BRANCH   2  12
ATOM      6  C   UNL     1      -0.227  10.555  20.511  0.00  0.00    +0.000 C 
ATOM      7  C   UNL     1       0.710   9.586  19.851  0.00  0.00    +0.000 A 
ATOM      8  C   UNL     1       1.114   9.779  18.528  0.00  0.00    +0.000 A 
ATOM      9  C   UNL     1       1.950   8.853  17.906  0.00  0.00    +0.000 A 
ATOM     10  C   UNL     1       2.394   7.708  18.588  0.00  0.00    +0.000 A 
ATOM     11  C   UNL     1       3.336   6.769  17.886  0.00  0.00    +0.000 C 
ATOM     12  C   UNL     1       2.014   7.520  19.930  0.00  0.00    +0.000 A 
ATOM     13  C   UNL     1       1.179   8.461  20.551  0.00  0.00    +0.000 A 
ENDBRANCH   2  12
ENDBRANCH   1   3
BRANCH   1  14
ATOM     14  S   UNL     1       2.434   2.556  20.656  0.00  0.00    +0.000 S 
BRANCH  14  15
ATOM     15  C   UNL     1       3.386   2.999  19.211  0.00  0.00    +0.000 A 
ATOM     16  C   UNL     1       2.789   2.845  17.969  0.00  0.00    +0.000 A 
ATOM     17  C   UNL     1       3.497   3.176  16.811  0.00  0.00    +0.000 A 
ATOM     18  C   UNL     1       4.791   3.672  16.917  0.00  0.00    +0.000 A 
ATOM     19  N   UNL     1       5.363   3.778  18.136  0.00  0.00    +0.000 NA
ATOM     20  N   UNL     1       4.655   3.443  19.295  0.00  0.00    +0.000 NA
BRANCH  18  21
ATOM     21  C   UNL     1       5.600   4.069  15.753  0.00  0.00    +0.000 A 
ATOM     22  C   UNL     1       5.414   3.780  14.410  0.00  0.00    +0.000 A 
ATOM     23  C   UNL     1       6.414   4.360  13.571  0.00  0.00    +0.000 A 
ATOM     24  C   UNL     1       7.350   5.064  14.293  0.00  0.00    +0.000 A 
ATOM     25  S   UNL     1       7.019   5.030  15.967  0.00  0.00    +0.000 S 
ENDBRANCH  18  21
ENDBRANCH  14  15
ENDBRANCH   1  14
TORSDOF 5
ENDMDL
MODEL 2
REMARK VINA RESULT:      -7.0      2.856      7.307
REMARK  Name = 
REMARK  7 active torsions:
REMARK  status: ('A' for Active; 'I' for Inactive)
REMARK    1  A    between atoms: C_1  and  C_2
REMARK    2  A    between atoms: C_5  and  C_6
REMARK    3  A    between atoms: C_7  and  N_8
REMARK    4  A    between atoms: C_9  and  C_11
REMARK    5  A    between atoms: C_11  and  S_12
REMARK    6  A    between atoms: S_12  and  C_13
REMARK    7  A    between atoms: C_16  and  C_17
REMARK                            x       y       z     vdW  Elec       q    Type
REMARK                         _______ _______ _______ _____ _____    ______ ____
ROOT
ATOM      1  C   UNL     1       1.773   4.319  19.266  0.00  0.00    +0.000 C 
ENDROOT
BRANCH   1   3
ATOM      2  N   UNL     1       3.774   4.951  18.009  0.00  0.00    +0.000 N 
ATOM      3  C   UNL     1       3.044   3.886  18.526  0.00  0.00    +0.000 C 
ATOM      4  O   UNL     1       3.327   2.698  18.384  0.00  0.00    +0.000 OA
ATOM      5  H   UNL     1       3.251   5.807  17.879  0.00  0.00    +0.000 HD
BRANCH   2  12
ATOM      6  C   UNL     1       5.916   3.864  13.652  0.00  0.00    +0.000 C 
ATOM      7  C   UNL     1       6.020   4.269  15.094  0.00  0.00    +0.000 A 
ATOM      8  C   UNL     1       7.269   4.436  15.695  0.00  0.00    +0.000 A 
ATOM      9  C   UNL     1       7.360   4.770  17.046  0.00  0.00    +0.000 A 
ATOM     10  C   UNL     1       6.205   4.935  17.828  0.00  0.00    +0.000 A 
ATOM     11  C   UNL     1       6.360   5.345  19.267  0.00  0.00    +0.000 C 
ATOM     12  C   UNL     1       4.942   4.795  17.224  0.00  0.00    +0.000 A 
ATOM     13  C   UNL     1       4.859   4.467  15.862  0.00  0.00    +0.000 A 
ENDBRANCH   2  12
ENDBRANCH   1   3
BRANCH   1  14
ATOM     14  S   UNL     1       2.245   5.311  20.723  0.00  0.00    +0.000 S 
BRANCH  14  15
ATOM     15  C   UNL     1       1.824   6.975  20.229  0.00  0.00    +0.000 A 
ATOM     16  C   UNL     1       1.090   7.748  21.116  0.00  0.00    +0.000 A 
ATOM     17  C   UNL     1       0.736   9.055  20.770  0.00  0.00    +0.000 A 
ATOM     18  C   UNL     1       1.135   9.572  19.543  0.00  0.00    +0.000 A 
ATOM     19  N   UNL     1       1.817   8.786  18.682  0.00  0.00    +0.000 NA
ATOM     20  N   UNL     1       2.169   7.476  19.027  0.00  0.00    +0.000 NA
BRANCH  18  21
ATOM     21  C   UNL     1       0.827  10.944  19.107  0.00  0.00    +0.000 A 
ATOM     22  C   UNL     1       1.688  11.999  18.845  0.00  0.00    +0.000 A 
ATOM     23  C   UNL     1       1.006  13.183  18.427  0.00  0.00    +0.000 A 
ATOM     24  C   UNL     1      -0.358  13.011  18.394  0.00  0.00    +0.000 A 
ATOM     25  S   UNL     1      -0.810  11.431  18.859  0.00  0.00    +0.000 S 
ENDBRANCH  18  21
ENDBRANCH  14  15
ENDBRANCH   1  14
TORSDOF 5
ENDMDL
MODEL 3
REMARK VINA RESULT:      -6.8      1.083      2.182
REMARK  Name = 
REMARK  7 active torsions:
REMARK  status: ('A' for Active; 'I' for Inactive)
REMARK    1  A    between atoms: C_1  and  C_2
REMARK    2  A    between atoms: C_5  and  C_6
REMARK    3  A    between atoms: C_7  and  N_8
REMARK    4  A    between atoms: C_9  and  C_11
REMARK    5  A    between atoms: C_11  and  S_12
REMARK    6  A    between atoms: S_12  and  C_13
REMARK    7  A    between atoms: C_16  and  C_17
REMARK                            x       y       z     vdW  Elec       q    Type
REMARK                         _______ _______ _______ _____ _____    ______ ____
ROOT
ATOM      1  C   UNL     1       1.844   3.417  21.873  0.00  0.00    +0.000 C 
ENDROOT
BRANCH   1   3
ATOM      2  N   UNL     1       2.589   5.423  20.689  0.00  0.00    +0.000 N 
ATOM      3  C   UNL     1       1.688   4.364  20.677  0.00  0.00    +0.000 C 
ATOM      4  O   UNL     1       0.805   4.194  19.838  0.00  0.00    +0.000 OA
ATOM      5  H   UNL     1       2.986   5.640  21.593  0.00  0.00    +0.000 HD
BRANCH   2  12
ATOM      6  C   UNL     1       4.224   7.317  16.388  0.00  0.00    +0.000 C 
ATOM      7  C   UNL     1       3.373   7.418  17.620  0.00  0.00    +0.000 A 
ATOM      8  C   UNL     1       2.618   8.567  17.868  0.00  0.00    +0.000 A 
ATOM      9  C   UNL     1       1.863   8.673  19.035  0.00  0.00    +0.000 A 
ATOM     10  C   UNL     1       1.852   7.638  19.985  0.00  0.00    +0.000 A 
ATOM     11  C   UNL     1       0.980   7.785  21.202  0.00  0.00    +0.000 C 
ATOM     12  C   UNL     1       2.588   6.467  19.730  0.00  0.00    +0.000 A 
ATOM     13  C   UNL     1       3.338   6.364  18.549  0.00  0.00    +0.000 A 
ENDBRANCH   2  12
ENDBRANCH   1   3
BRANCH   1  14
ATOM     14  S   UNL     1       2.834   1.973  21.359  0.00  0.00    +0.000 S 
BRANCH  14  15
ATOM     15  C   UNL     1       3.670   2.562  19.896  0.00  0.00    +0.000 A 
ATOM     16  C   UNL     1       3.117   2.249  18.663  0.00  0.00    +0.000 A 
ATOM     17  C   UNL     1       3.739   2.687  17.491  0.00  0.00    +0.000 A 
ATOM     18  C   UNL     1       4.900   3.445  17.573  0.00  0.00    +0.000 A 
ATOM     19  N   UNL     1       5.439   3.705  18.784  0.00  0.00    +0.000 NA
ATOM     20  N   UNL     1       4.818   3.264  19.958  0.00  0.00    +0.000 NA
BRANCH  18  21
ATOM     21  C   UNL     1       5.608   3.968  16.392  0.00  0.00    +0.000 A 
ATOM     22  C   UNL     1       5.230   3.948  15.058  0.00  0.00    +0.000 A 
ATOM     23  C   UNL     1       6.186   4.572  14.199  0.00  0.00    +0.000 A 
ATOM     24  C   UNL     1       7.278   5.039  14.893  0.00  0.00    +0.000 A 
ATOM     25  S   UNL     1       7.146   4.733  16.567  0.00  0.00    +0.000 S 
ENDBRANCH  18  21
ENDBRANCH  14  15
ENDBRANCH   1  14
TORSDOF 5
ENDMDL
MODEL 4
REMARK VINA RESULT:      -6.8      3.709      5.646
REMARK  Name = 
REMARK  7 active torsions:
REMARK  status: ('A' for Active; 'I' for Inactive)
REMARK    1  A    between atoms: C_1  and  C_2
REMARK    2  A    between atoms: C_5  and  C_6
REMARK    3  A    between atoms: C_7  and  N_8
REMARK    4  A    between atoms: C_9  and  C_11
REMARK    5  A    between atoms: C_11  and  S_12
REMARK    6  A    between atoms: S_12  and  C_13
REMARK    7  A    between atoms: C_16  and  C_17
REMARK                            x       y       z     vdW  Elec       q    Type
REMARK                         _______ _______ _______ _____ _____    ______ ____
ROOT
ATOM      1  C   UNL     1       0.876  10.945  20.362  0.00  0.00    +0.000 C 
ENDROOT
BRANCH   1   3
ATOM      2  N   UNL     1      -1.261  10.651  19.210  0.00  0.00    +0.000 N 
ATOM      3  C   UNL     1      -0.109  11.425  19.289  0.00  0.00    +0.000 C 
ATOM      4  O   UNL     1       0.157  12.376  18.557  0.00  0.00    +0.000 OA
ATOM      5  H   UNL     1      -1.180   9.718  19.593  0.00  0.00    +0.000 HD
BRANCH   2  12
ATOM      6  C   UNL     1      -3.038   9.948  14.615  0.00  0.00    +0.000 C 
ATOM      7  C   UNL     1      -3.177  10.520  15.996  0.00  0.00    +0.000 A 
ATOM      8  C   UNL     1      -4.279  11.311  16.329  0.00  0.00    +0.000 A 
ATOM      9  C   UNL     1      -4.380  11.875  17.600  0.00  0.00    +0.000 A 
ATOM     10  C   UNL     1      -3.379  11.671  18.563  0.00  0.00    +0.000 A 
ATOM     11  C   UNL     1      -3.565  12.261  19.934  0.00  0.00    +0.000 C 
ATOM     12  C   UNL     1      -2.279  10.853  18.245  0.00  0.00    +0.000 A 
ATOM     13  C   UNL     1      -2.188  10.282  16.967  0.00  0.00    +0.000 A 
ENDBRANCH   2  12
ENDBRANCH   1   3
BRANCH   1  14
ATOM     14  S   UNL     1       0.413   9.257  20.877  0.00  0.00    +0.000 S 
BRANCH  14  15
ATOM     15  C   UNL     1       1.498   8.228  19.900  0.00  0.00    +0.000 A 
ATOM     16  C   UNL     1       1.827   8.662  18.625  0.00  0.00    +0.000 A 
ATOM     17  C   UNL     1       2.671   7.889  17.824  0.00  0.00    +0.000 A 
ATOM     18  C   UNL     1       3.185   6.697  18.320  0.00  0.00    +0.000 A 
ATOM     19  N   UNL     1       2.819   6.278  19.551  0.00  0.00    +0.000 NA
ATOM     20  N   UNL     1       1.971   7.051  20.352  0.00  0.00    +0.000 NA
BRANCH  18  21
ATOM     21  C   UNL     1       4.098   5.832  17.556  0.00  0.00    +0.000 A 
ATOM     22  C   UNL     1       3.939   4.512  17.161  0.00  0.00    +0.000 A 
ATOM     23  C   UNL     1       5.051   4.015  16.415  0.00  0.00    +0.000 A 
ATOM     24  C   UNL     1       6.041   4.959  16.271  0.00  0.00    +0.000 A 
ATOM     25  S   UNL     1       5.627   6.434  17.024  0.00  0.00    +0.000 S 
ENDBRANCH  18  21
ENDBRANCH  14  15
ENDBRANCH   1  14
TORSDOF 5
ENDMDL
MODEL 5
REMARK VINA RESULT:      -6.8      1.054      1.331
REMARK  Name = 
REMARK  7 active torsions:
REMARK  status: ('A' for Active; 'I' for Inactive)
REMARK    1  A    between atoms: C_1  and  C_2
REMARK    2  A    between atoms: C_5  and  C_6
REMARK    3  A    between atoms: C_7  and  N_8
REMARK    4  A    between atoms: C_9  and  C_11
REMARK    5  A    between atoms: C_11  and  S_12
REMARK    6  A    between atoms: S_12  and  C_13
REMARK    7  A    between atoms: C_16  and  C_17
REMARK                            x       y       z     vdW  Elec       q    Type
REMARK                         _______ _______ _______ _____ _____    ______ ____
ROOT
ATOM      1  C   UNL     1       2.247   3.814  21.519  0.00  0.00    +0.000 C 
ENDROOT
BRANCH   1   3
ATOM      2  N   UNL     1       2.365   6.137  20.763  0.00  0.00    +0.000 N 
ATOM      3  C   UNL     1       1.586   4.986  20.783  0.00  0.00    +0.000 C 
ATOM      4  O   UNL     1       0.453   4.890  20.315  0.00  0.00    +0.000 OA
ATOM      5  H   UNL     1       3.076   6.188  21.481  0.00  0.00    +0.000 HD
BRANCH   2  12
ATOM      6  C   UNL     1      -0.131  10.419  21.209  0.00  0.00    +0.000 C 
ATOM      7  C   UNL     1       0.720   9.480  20.403  0.00  0.00    +0.000 A 
ATOM      8  C   UNL     1       1.045   9.778  19.078  0.00  0.00    +0.000 A 
ATOM      9  C   UNL     1       1.798   8.882  18.320  0.00  0.00    +0.000 A 
ATOM     10  C   UNL     1       2.235   7.664  18.867  0.00  0.00    +0.000 A 
ATOM     11  C   UNL     1       3.088   6.759  18.021  0.00  0.00    +0.000 C 
ATOM     12  C   UNL     1       1.935   7.369  20.209  0.00  0.00    +0.000 A 
ATOM     13  C   UNL     1       1.184   8.279  20.967  0.00  0.00    +0.000 A 
ENDBRANCH   2  12
ENDBRANCH   1   3
BRANCH   1  14
ATOM     14  S   UNL     1       2.324   2.379  20.395  0.00  0.00    +0.000 S 
BRANCH  14  15
ATOM     15  C   UNL     1       3.370   2.963  19.071  0.00  0.00    +0.000 A 
ATOM     16  C   UNL     1       4.621   3.461  19.405  0.00  0.00    +0.000 A 
ATOM     17  C   UNL     1       5.472   3.931  18.402  0.00  0.00    +0.000 A 
ATOM     18  C   UNL     1       5.063   3.882  17.075  0.00  0.00    +0.000 A 
ATOM     19  N   UNL     1       3.825   3.427  16.779  0.00  0.00    +0.000 NA
ATOM     20  N   UNL     1       2.971   2.959  17.784  0.00  0.00    +0.000 NA
BRANCH  18  21
ATOM     21  C   UNL     1       5.903   4.332  15.954  0.00  0.00    +0.000 A 
ATOM     22  C   UNL     1       7.085   5.056  15.974  0.00  0.00    +0.000 A 
ATOM     23  C   UNL     1       7.617   5.292  14.669  0.00  0.00    +0.000 A 
ATOM     24  C   UNL     1       6.821   4.758  13.682  0.00  0.00    +0.000 A 
ATOM     25  S   UNL     1       5.448   3.974  14.327  0.00  0.00    +0.000 S 
ENDBRANCH  18  21
ENDBRANCH  14  15
ENDBRANCH   1  14
TORSDOF 5
ENDMDL
MODEL 6
REMARK VINA RESULT:      -6.7      2.043      6.786
REMARK  Name = 
REMARK  7 active torsions:
REMARK  status: ('A' for Active; 'I' for Inactive)
REMARK    1  A    between atoms: C_1  and  C_2
REMARK    2  A    between atoms: C_5  and  C_6
REMARK    3  A    between atoms: C_7  and  N_8
REMARK    4  A    between atoms: C_9  and  C_11
REMARK    5  A    between atoms: C_11  and  S_12
REMARK    6  A    between atoms: S_12  and  C_13
REMARK    7  A    between atoms: C_16  and  C_17
REMARK                            x       y       z     vdW  Elec       q    Type
REMARK                         _______ _______ _______ _____ _____    ______ ____
ROOT
ATOM      1  C   UNL     1       2.834   2.061  18.744  0.00  0.00    +0.000 C 
ENDROOT
BRANCH   1   3
ATOM      2  N   UNL     1       4.752   2.894  17.476  0.00  0.00    +0.000 N 
ATOM      3  C   UNL     1       3.365   2.817  17.520  0.00  0.00    +0.000 C 
ATOM      4  O   UNL     1       2.601   3.334  16.707  0.00  0.00    +0.000 OA
ATOM      5  H   UNL     1       5.219   2.762  18.363  0.00  0.00    +0.000 HD
BRANCH   2  12
ATOM      6  C   UNL     1       5.910   3.618  12.691  0.00  0.00    +0.000 C 
ATOM      7  C   UNL     1       6.052   3.986  14.139  0.00  0.00    +0.000 A 
ATOM      8  C   UNL     1       6.938   4.992  14.532  0.00  0.00    +0.000 A 
ATOM      9  C   UNL     1       7.098   5.299  15.882  0.00  0.00    +0.000 A 
ATOM     10  C   UNL     1       6.383   4.603  16.871  0.00  0.00    +0.000 A 
ATOM     11  C   UNL     1       6.556   5.011  18.309  0.00  0.00    +0.000 C 
ATOM     12  C   UNL     1       5.469   3.607  16.483  0.00  0.00    +0.000 A 
ATOM     13  C   UNL     1       5.308   3.309  15.121  0.00  0.00    +0.000 A 
ENDBRANCH   2  12
ENDBRANCH   1   3
BRANCH   1  14
ATOM     14  S   UNL     1       3.504   2.836  20.254  0.00  0.00    +0.000 S 
BRANCH  14  15
ATOM     15  C   UNL     1       2.913   4.517  20.137  0.00  0.00    +0.000 A 
ATOM     16  C   UNL     1       1.760   4.849  20.831  0.00  0.00    +0.000 A 
ATOM     17  C   UNL     1       1.260   6.151  20.766  0.00  0.00    +0.000 A 
ATOM     18  C   UNL     1       1.933   7.108  20.017  0.00  0.00    +0.000 A 
ATOM     19  N   UNL     1       3.034   6.751  19.320  0.00  0.00    +0.000 NA
ATOM     20  N   UNL     1       3.533   5.445  19.382  0.00  0.00    +0.000 NA
BRANCH  18  21
ATOM     21  C   UNL     1       1.492   8.509  19.912  0.00  0.00    +0.000 A 
ATOM     22  C   UNL     1       1.462   9.342  18.805  0.00  0.00    +0.000 A 
ATOM     23  C   UNL     1       0.950  10.644  19.100  0.00  0.00    +0.000 A 
ATOM     24  C   UNL     1       0.617  10.779  20.427  0.00  0.00    +0.000 A 
ATOM     25  S   UNL     1       0.912   9.346  21.306  0.00  0.00    +0.000 S 
ENDBRANCH  18  21
ENDBRANCH  14  15
ENDBRANCH   1  14
TORSDOF 5
ENDMDL
MODEL 7
REMARK VINA RESULT:      -6.6      6.347      8.112
REMARK  Name = 
REMARK  7 active torsions:
REMARK  status: ('A' for Active; 'I' for Inactive)
REMARK    1  A    between atoms: C_1  and  C_2
REMARK    2  A    between atoms: C_5  and  C_6
REMARK    3  A    between atoms: C_7  and  N_8
REMARK    4  A    between atoms: C_9  and  C_11
REMARK    5  A    between atoms: C_11  and  S_12
REMARK    6  A    between atoms: S_12  and  C_13
REMARK    7  A    between atoms: C_16  and  C_17
REMARK                            x       y       z     vdW  Elec       q    Type
REMARK                         _______ _______ _______ _____ _____    ______ ____
ROOT
ATOM      1  C   UNL     1       8.122   6.677  18.677  0.00  0.00    +0.000 C 
ENDROOT
BRANCH   1   3
ATOM      2  N   UNL     1       5.862   5.992  18.042  0.00  0.00    +0.000 N 
ATOM      3  C   UNL     1       6.901   5.789  18.943  0.00  0.00    +0.000 C 
ATOM      4  O   UNL     1       6.867   5.020  19.902  0.00  0.00    +0.000 OA
ATOM      5  H   UNL     1       5.879   6.881  17.560  0.00  0.00    +0.000 HD
BRANCH   2  12
ATOM      6  C   UNL     1       1.614   5.156  20.495  0.00  0.00    +0.000 C 
ATOM      7  C   UNL     1       2.510   4.917  19.314  0.00  0.00    +0.000 A 
ATOM      8  C   UNL     1       2.145   4.005  18.321  0.00  0.00    +0.000 A 
ATOM      9  C   UNL     1       3.000   3.755  17.248  0.00  0.00    +0.000 A 
ATOM     10  C   UNL     1       4.243   4.403  17.149  0.00  0.00    +0.000 A 
ATOM     11  C   UNL     1       5.103   4.133  15.945  0.00  0.00    +0.000 C 
ATOM     12  C   UNL     1       4.606   5.342  18.131  0.00  0.00    +0.000 A 
ATOM     13  C   UNL     1       3.736   5.595  19.202  0.00  0.00    +0.000 A 
ENDBRANCH   2  12
ENDBRANCH   1   3
BRANCH   1  14
ATOM     14  S   UNL     1       7.663   7.968  17.472  0.00  0.00    +0.000 S 
BRANCH  14  15
ATOM     15  C   UNL     1       8.380   9.445  18.175  0.00  0.00    +0.000 A 
ATOM     16  C   UNL     1       8.219  10.636  17.483  0.00  0.00    +0.000 A 
ATOM     17  C   UNL     1       8.765  11.816  17.994  0.00  0.00    +0.000 A 
ATOM     18  C   UNL     1       9.454  11.787  19.201  0.00  0.00    +0.000 A 
ATOM     19  N   UNL     1       9.629  10.608  19.837  0.00  0.00    +0.000 NA
ATOM     20  N   UNL     1       9.084   9.425  19.323  0.00  0.00    +0.000 NA
BRANCH  18  21
ATOM     21  C   UNL     1      10.041  12.984  19.824  0.00  0.00    +0.000 A 
ATOM     22  C   UNL     1      11.150  13.722  19.442  0.00  0.00    +0.000 A 
ATOM     23  C   UNL     1      11.402  14.837  20.301  0.00  0.00    +0.000 A 
ATOM     24  C   UNL     1      10.489  14.914  21.327  0.00  0.00    +0.000 A 
ATOM     25  S   UNL     1       9.336  13.657  21.250  0.00  0.00    +0.000 S 
ENDBRANCH  18  21
ENDBRANCH  14  15
ENDBRANCH   1  14
TORSDOF 5
ENDMDL
MODEL 8
REMARK VINA RESULT:      -6.6      4.699      9.096
REMARK  Name = 
REMARK  7 active torsions:
REMARK  status: ('A' for Active; 'I' for Inactive)
REMARK    1  A    between atoms: C_1  and  C_2
REMARK    2  A    between atoms: C_5  and  C_6
REMARK    3  A    between atoms: C_7  and  N_8
REMARK    4  A    between atoms: C_9  and  C_11
REMARK    5  A    between atoms: C_11  and  S_12
REMARK    6  A    between atoms: S_12  and  C_13
REMARK    7  A    between atoms: C_16  and  C_17
REMARK                            x       y       z     vdW  Elec       q    Type
REMARK                         _______ _______ _______ _____ _____    ______ ____
ROOT
ATOM      1  C   UNL     1       1.419   8.975  19.918  0.00  0.00    +0.000 C 
ENDROOT
BRANCH   1   3
ATOM      2  N   UNL     1       2.291   7.172  18.515  0.00  0.00    +0.000 N 
ATOM      3  C   UNL     1       1.860   7.512  19.792  0.00  0.00    +0.000 C 
ATOM      4  O   UNL     1       1.777   6.735  20.742  0.00  0.00    +0.000 OA
ATOM      5  H   UNL     1       1.963   7.778  17.775  0.00  0.00    +0.000 HD
BRANCH   2  12
ATOM      6  C   UNL     1       1.468   2.265  18.565  0.00  0.00    +0.000 C 
ATOM      7  C   UNL     1       2.292   3.447  18.144  0.00  0.00    +0.000 A 
ATOM      8  C   UNL     1       3.478   3.266  17.430  0.00  0.00    +0.000 A 
ATOM      9  C   UNL     1       4.261   4.365  17.079  0.00  0.00    +0.000 A 
ATOM     10  C   UNL     1       3.882   5.668  17.442  0.00  0.00    +0.000 A 
ATOM     11  C   UNL     1       4.738   6.821  16.993  0.00  0.00    +0.000 C 
ATOM     12  C   UNL     1       2.675   5.861  18.137  0.00  0.00    +0.000 A 
ATOM     13  C   UNL     1       1.888   4.751  18.480  0.00  0.00    +0.000 A 
ENDBRANCH   2  12
ENDBRANCH   1   3
BRANCH   1  14
ATOM     14  S   UNL     1       1.208   9.675  18.246  0.00  0.00    +0.000 S 
BRANCH  14  15
ATOM     15  C   UNL     1      -0.468  10.290  18.278  0.00  0.00    +0.000 A 
ATOM     16  C   UNL     1      -1.361   9.786  17.345  0.00  0.00    +0.000 A 
ATOM     17  C   UNL     1      -2.682  10.240  17.330  0.00  0.00    +0.000 A 
ATOM     18  C   UNL     1      -3.093  11.183  18.264  0.00  0.00    +0.000 A 
ATOM     19  N   UNL     1      -2.195  11.686  19.139  0.00  0.00    +0.000 NA
ATOM     20  N   UNL     1      -0.871  11.234  19.151  0.00  0.00    +0.000 NA
BRANCH  18  21
ATOM     21  C   UNL     1      -4.470  11.700  18.338  0.00  0.00    +0.000 A 
ATOM     22  C   UNL     1      -5.488  11.631  17.399  0.00  0.00    +0.000 A 
ATOM     23  C   UNL     1      -6.700  12.243  17.845  0.00  0.00    +0.000 A 
ATOM     24  C   UNL     1      -6.575  12.778  19.106  0.00  0.00    +0.000 A 
ATOM     25  S   UNL     1      -5.011  12.538  19.747  0.00  0.00    +0.000 S 
ENDBRANCH  18  21
ENDBRANCH  14  15
ENDBRANCH   1  14
TORSDOF 5
ENDMDL
MODEL 9
REMARK VINA RESULT:      -6.5      7.392      9.479
REMARK  Name = 
REMARK  7 active torsions:
REMARK  status: ('A' for Active; 'I' for Inactive)
REMARK    1  A    between atoms: C_1  and  C_2
REMARK    2  A    between atoms: C_5  and  C_6
REMARK    3  A    between atoms: C_7  and  N_8
REMARK    4  A    between atoms: C_9  and  C_11
REMARK    5  A    between atoms: C_11  and  S_12
REMARK    6  A    between atoms: S_12  and  C_13
REMARK    7  A    between atoms: C_16  and  C_17
REMARK                            x       y       z     vdW  Elec       q    Type
REMARK                         _______ _______ _______ _____ _____    ______ ____
ROOT
ATOM      1  C   UNL     1       8.233   8.973  17.523  0.00  0.00    +0.000 C 
ENDROOT
BRANCH   1   3
ATOM      2  N   UNL     1       6.484   7.409  16.832  0.00  0.00    +0.000 N 
ATOM      3  C   UNL     1       7.548   7.613  17.703  0.00  0.00    +0.000 C 
ATOM      4  O   UNL     1       7.906   6.829  18.580  0.00  0.00    +0.000 OA
ATOM      5  H   UNL     1       6.081   8.251  16.442  0.00  0.00    +0.000 HD
BRANCH   2  12
ATOM      6  C   UNL     1       2.449   5.061  18.554  0.00  0.00    +0.000 C 
ATOM      7  C   UNL     1       3.675   5.088  17.688  0.00  0.00    +0.000 A 
ATOM      8  C   UNL     1       4.047   3.962  16.950  0.00  0.00    +0.000 A 
ATOM      9  C   UNL     1       5.210   3.977  16.182  0.00  0.00    +0.000 A 
ATOM     10  C   UNL     1       6.034   5.115  16.142  0.00  0.00    +0.000 A 
ATOM     11  C   UNL     1       7.250   5.094  15.256  0.00  0.00    +0.000 C 
ATOM     12  C   UNL     1       5.653   6.262  16.861  0.00  0.00    +0.000 A 
ATOM     13  C   UNL     1       4.476   6.241  17.625  0.00  0.00    +0.000 A 
ENDBRANCH   2  12
ENDBRANCH   1   3
BRANCH   1  14
ATOM     14  S   UNL     1       8.977   9.475  19.112  0.00  0.00    +0.000 S 
BRANCH  14  15
ATOM     15  C   UNL     1       9.379  11.194  18.840  0.00  0.00    +0.000 A 
ATOM     16  C   UNL     1      10.116  11.517  17.711  0.00  0.00    +0.000 A 
ATOM     17  C   UNL     1      10.455  12.848  17.460  0.00  0.00    +0.000 A 
ATOM     18  C   UNL     1      10.037  13.840  18.338  0.00  0.00    +0.000 A 
ATOM     19  N   UNL     1       9.351  13.496  19.450  0.00  0.00    +0.000 NA
ATOM     20  N   UNL     1       9.014  12.162  19.704  0.00  0.00    +0.000 NA
BRANCH  18  21
ATOM     21  C   UNL     1      10.327  15.270  18.139  0.00  0.00    +0.000 A 
ATOM     22  C   UNL     1       9.742  16.378  18.731  0.00  0.00    +0.000 A 
ATOM     23  C   UNL     1      10.310  17.612  18.287  0.00  0.00    +0.000 A 
ATOM     24  C   UNL     1      11.302  17.419  17.355  0.00  0.00    +0.000 A 
ATOM     25  S   UNL     1      11.551  15.762  17.025  0.00  0.00    +0.000 S 
ENDBRANCH  18  21
ENDBRANCH  14  15
ENDBRANCH   1  14
TORSDOF 5
ENDMDL
