MODEL 1
REMARK VINA RESULT:      -7.6      0.000      0.000
REMARK  Name = 
REMARK  6 active torsions:
REMARK  status: ('A' for Active; 'I' for Inactive)
REMARK    1  A    between atoms: C_1  and  C_2
REMARK    2  A    between atoms: C_5  and  C_6
REMARK    3  A    between atoms: C_6  and  N_7
REMARK    4  A    between atoms: C_8  and  C_10
REMARK    5  A    between atoms: C_13  and  N_14
REMARK    6  A    between atoms: C_15  and  C_17
REMARK                            x       y       z     vdW  Elec       q    Type
REMARK                         _______ _______ _______ _____ _____    ______ ____
ROOT
ATOM      1  C   UNL     1       1.290   9.588  19.227  0.00  0.00    +0.000 A 
ATOM      2  C   UNL     1       1.735   9.139  17.982  0.00  0.00    +0.000 A 
ATOM      3  C   UNL     1       2.303   7.868  17.846  0.00  0.00    +0.000 A 
ATOM      4  C   UNL     1       2.434   7.005  18.932  0.00  0.00    +0.000 A 
ATOM      5  C   UNL     1       1.976   7.443  20.180  0.00  0.00    +0.000 A 
ATOM      6  C   UNL     1       1.409   8.723  20.326  0.00  0.00    +0.000 A 
ENDROOT
BRANCH   1   8
ATOM      7  N   UNL     1      -0.717  11.014  19.377  0.00  0.00    +0.000 N 
ATOM      8  C   UNL     1       0.663  10.937  19.418  0.00  0.00    +0.000 C 
ATOM      9  O   UNL     1       1.376  11.919  19.602  0.00  0.00    +0.000 OA
ATOM     10  H   UNL     1      -1.264  10.247  19.027  0.00  0.00    +0.000 HD
BRANCH   7  11
ATOM     11  C   UNL     1      -1.422  12.268  19.546  0.00  0.00    +0.000 C 
BRANCH  11  16
ATOM     12  C   UNL     1      -4.348  12.672  24.583  0.00  0.00    +0.000 C 
ATOM     13  C   UNL     1      -3.611  12.514  23.285  0.00  0.00    +0.000 A 
ATOM     14  C   UNL     1      -2.318  11.979  23.248  0.00  0.00    +0.000 A 
ATOM     15  C   UNL     1      -1.626  11.875  22.037  0.00  0.00    +0.000 A 
ATOM     16  C   UNL     1      -2.210  12.303  20.835  0.00  0.00    +0.000 A 
ATOM     17  C   UNL     1      -3.512  12.822  20.874  0.00  0.00    +0.000 A 
ATOM     18  C   UNL     1      -4.205  12.927  22.087  0.00  0.00    +0.000 A 
ENDBRANCH  11  16
ENDBRANCH   7  11
ENDBRANCH   1   8
BRANCH   4  19
ATOM     19  N   UNL     1       2.985   5.707  18.823  0.00  0.00    +0.000 N 
ATOM     20  C   UNL     1       4.269   5.388  18.409  0.00  0.00    +0.000 C 
ATOM     21  O   UNL     1       5.161   6.180  18.111  0.00  0.00    +0.000 OA
ATOM     22  H   UNL     1       2.404   4.912  19.074  0.00  0.00    +0.000 HD
BRANCH  20  23
ATOM     23  C   UNL     1       4.530   3.881  18.304  0.00  0.00    +0.000 C 
ATOM     24  C   UNL     1       3.256   3.168  17.882  0.00  0.00    +0.000 C 
ATOM     25  C   UNL     1       3.529   1.754  18.316  0.00  0.00    +0.000 C 
ATOM     26  C   UNL     1       4.325   1.953  19.588  0.00  0.00    +0.000 C 
ATOM     27  O   UNL     1       4.958   3.243  19.514  0.00  0.00    +0.000 OA
ENDBRANCH  20  23
ENDBRANCH   4  19
TORSDOF 5
ENDMDL
MODEL 2
REMARK VINA RESULT:      -7.5      1.322      1.358
REMARK  Name = 
REMARK  6 active torsions:
REMARK  status: ('A' for Active; 'I' for Inactive)
REMARK    1  A    between atoms: C_1  and  C_2
REMARK    2  A    between atoms: C_5  and  C_6
REMARK    3  A    between atoms: C_6  and  N_7
REMARK    4  A    between atoms: C_8  and  C_10
REMARK    5  A    between atoms: C_13  and  N_14
REMARK    6  A    between atoms: C_15  and  C_17
REMARK                            x       y       z     vdW  Elec       q    Type
REMARK                         _______ _______ _______ _____ _____    ______ ____
ROOT
ATOM      1  C   UNL     1       1.145   9.750  19.156  0.00  0.00    +0.000 A 
ATOM      2  C   UNL     1       1.706   9.430  17.918  0.00  0.00    +0.000 A 
ATOM      3  C   UNL     1       2.370   8.213  17.732  0.00  0.00    +0.000 A 
ATOM      4  C   UNL     1       2.487   7.278  18.758  0.00  0.00    +0.000 A 
ATOM      5  C   UNL     1       1.914   7.587  19.998  0.00  0.00    +0.000 A 
ATOM      6  C   UNL     1       1.250   8.811  20.195  0.00  0.00    +0.000 A 
ENDROOT
BRANCH   1   8
ATOM      7  N   UNL     1       0.832  11.823  20.456  0.00  0.00    +0.000 N 
ATOM      8  C   UNL     1       0.413  11.037  19.399  0.00  0.00    +0.000 C 
ATOM      9  O   UNL     1      -0.521  11.352  18.668  0.00  0.00    +0.000 OA
ATOM     10  H   UNL     1       1.455  11.455  21.155  0.00  0.00    +0.000 HD
BRANCH   7  11
ATOM     11  C   UNL     1       0.191  13.081  20.780  0.00  0.00    +0.000 C 
BRANCH  11  16
ATOM     12  C   UNL     1      -4.309  12.472  24.452  0.00  0.00    +0.000 C 
ATOM     13  C   UNL     1      -3.177  12.592  23.473  0.00  0.00    +0.000 A 
ATOM     14  C   UNL     1      -2.148  11.646  23.438  0.00  0.00    +0.000 A 
ATOM     15  C   UNL     1      -1.078  11.791  22.549  0.00  0.00    +0.000 A 
ATOM     16  C   UNL     1      -1.012  12.886  21.675  0.00  0.00    +0.000 A 
ATOM     17  C   UNL     1      -2.054  13.823  21.700  0.00  0.00    +0.000 A 
ATOM     18  C   UNL     1      -3.126  13.678  22.591  0.00  0.00    +0.000 A 
ENDBRANCH  11  16
ENDBRANCH   7  11
ENDBRANCH   1   8
BRANCH   4  19
ATOM     19  N   UNL     1       3.135   6.032  18.596  0.00  0.00    +0.000 N 
ATOM     20  C   UNL     1       2.578   4.873  18.078  0.00  0.00    +0.000 C 
ATOM     21  O   UNL     1       1.441   4.743  17.629  0.00  0.00    +0.000 OA
ATOM     22  H   UNL     1       4.110   5.954  18.873  0.00  0.00    +0.000 HD
BRANCH  20  23
ATOM     23  C   UNL     1       3.515   3.660  18.127  0.00  0.00    +0.000 C 
ATOM     24  C   UNL     1       2.712   2.383  17.940  0.00  0.00    +0.000 C 
ATOM     25  C   UNL     1       3.639   1.344  18.508  0.00  0.00    +0.000 C 
ATOM     26  C   UNL     1       4.300   2.087  19.649  0.00  0.00    +0.000 C 
ATOM     27  O   UNL     1       4.246   3.493  19.348  0.00  0.00    +0.000 OA
ENDBRANCH  20  23
ENDBRANCH   4  19
TORSDOF 5
ENDMDL
MODEL 3
REMARK VINA RESULT:      -7.5      3.443     10.006
REMARK  Name = 
REMARK  6 active torsions:
REMARK  status: ('A' for Active; 'I' for Inactive)
REMARK    1  A    between atoms: C_1  and  C_2
REMARK    2  A    between atoms: C_5  and  C_6
REMARK    3  A    between atoms: C_6  and  N_7
REMARK    4  A    between atoms: C_8  and  C_10
REMARK    5  A    between atoms: C_13  and  N_14
REMARK    6  A    between atoms: C_15  and  C_17
REMARK                            x       y       z     vdW  Elec       q    Type
REMARK                         _______ _______ _______ _____ _____    ______ ____
ROOT
ATOM      1  C   UNL     1      -0.263  10.202  18.306  0.00  0.00    +0.000 A 
ATOM      2  C   UNL     1      -0.435  11.432  18.944  0.00  0.00    +0.000 A 
ATOM      3  C   UNL     1      -1.652  12.115  18.856  0.00  0.00    +0.000 A 
ATOM      4  C   UNL     1      -2.733  11.595  18.147  0.00  0.00    +0.000 A 
ATOM      5  C   UNL     1      -2.572  10.355  17.517  0.00  0.00    +0.000 A 
ATOM      6  C   UNL     1      -1.349   9.665  17.596  0.00  0.00    +0.000 A 
ENDROOT
BRANCH   1   8
ATOM      7  N   UNL     1       1.204   8.601  19.476  0.00  0.00    +0.000 N 
ATOM      8  C   UNL     1       1.020   9.428  18.384  0.00  0.00    +0.000 C 
ATOM      9  O   UNL     1       1.856   9.546  17.493  0.00  0.00    +0.000 OA
ATOM     10  H   UNL     1       0.607   8.673  20.282  0.00  0.00    +0.000 HD
BRANCH   7  11
ATOM     11  C   UNL     1       2.407   7.814  19.650  0.00  0.00    +0.000 C 
BRANCH  11  16
ATOM     12  C   UNL     1       1.133   2.181  18.785  0.00  0.00    +0.000 C 
ATOM     13  C   UNL     1       1.511   3.613  19.026  0.00  0.00    +0.000 A 
ATOM     14  C   UNL     1       1.408   4.184  20.299  0.00  0.00    +0.000 A 
ATOM     15  C   UNL     1       1.725   5.531  20.502  0.00  0.00    +0.000 A 
ATOM     16  C   UNL     1       2.152   6.339  19.438  0.00  0.00    +0.000 A 
ATOM     17  C   UNL     1       2.271   5.759  18.167  0.00  0.00    +0.000 A 
ATOM     18  C   UNL     1       1.953   4.410  17.963  0.00  0.00    +0.000 A 
ENDBRANCH  11  16
ENDBRANCH   7  11
ENDBRANCH   1   8
BRANCH   4  19
ATOM     19  N   UNL     1      -3.982  12.251  18.055  0.00  0.00    +0.000 N 
ATOM     20  C   UNL     1      -4.894  12.439  19.082  0.00  0.00    +0.000 C 
ATOM     21  O   UNL     1      -4.751  12.109  20.258  0.00  0.00    +0.000 OA
ATOM     22  H   UNL     1      -4.260  12.639  17.157  0.00  0.00    +0.000 HD
BRANCH  20  23
ATOM     23  C   UNL     1      -6.202  13.103  18.637  0.00  0.00    +0.000 C 
ATOM     24  C   UNL     1      -6.330  13.021  17.124  0.00  0.00    +0.000 C 
ATOM     25  C   UNL     1      -7.328  14.108  16.834  0.00  0.00    +0.000 C 
ATOM     26  C   UNL     1      -6.974  15.157  17.866  0.00  0.00    +0.000 C 
ATOM     27  O   UNL     1      -6.335  14.490  18.970  0.00  0.00    +0.000 OA
ENDBRANCH  20  23
ENDBRANCH   4  19
TORSDOF 5
ENDMDL
MODEL 4
REMARK VINA RESULT:      -7.4      1.771      2.703
REMARK  Name = 
REMARK  6 active torsions:
REMARK  status: ('A' for Active; 'I' for Inactive)
REMARK    1  A    between atoms: C_1  and  C_2
REMARK    2  A    between atoms: C_5  and  C_6
REMARK    3  A    between atoms: C_6  and  N_7
REMARK    4  A    between atoms: C_8  and  C_10
REMARK    5  A    between atoms: C_13  and  N_14
REMARK    6  A    between atoms: C_15  and  C_17
REMARK                            x       y       z     vdW  Elec       q    Type
REMARK                         _______ _______ _______ _____ _____    ______ ____
ROOT
ATOM      1  C   UNL     1       1.251   9.728  19.164  0.00  0.00    +0.000 A 
ATOM      2  C   UNL     1       1.291   8.815  20.220  0.00  0.00    +0.000 A 
ATOM      3  C   UNL     1       1.919   7.575  20.064  0.00  0.00    +0.000 A 
ATOM      4  C   UNL     1       2.534   7.211  18.868  0.00  0.00    +0.000 A 
ATOM      5  C   UNL     1       2.510   8.128  17.810  0.00  0.00    +0.000 A 
ATOM      6  C   UNL     1       1.875   9.375  17.957  0.00  0.00    +0.000 A 
ENDROOT
BRANCH   1   8
ATOM      7  N   UNL     1      -0.728  11.111  19.669  0.00  0.00    +0.000 N 
ATOM      8  C   UNL     1       0.601  11.075  19.289  0.00  0.00    +0.000 C 
ATOM      9  O   UNL     1       1.252  12.089  19.056  0.00  0.00    +0.000 OA
ATOM     10  H   UNL     1      -1.289  10.277  19.657  0.00  0.00    +0.000 HD
BRANCH   7  11
ATOM     11  C   UNL     1      -1.451  12.358  19.814  0.00  0.00    +0.000 C 
BRANCH  11  16
ATOM     12  C   UNL     1      -7.017  11.603  18.216  0.00  0.00    +0.000 C 
ATOM     13  C   UNL     1      -5.583  11.841  18.592  0.00  0.00    +0.000 A 
ATOM     14  C   UNL     1      -4.538  11.354  17.799  0.00  0.00    +0.000 A 
ATOM     15  C   UNL     1      -3.206  11.547  18.182  0.00  0.00    +0.000 A 
ATOM     16  C   UNL     1      -2.889  12.231  19.365  0.00  0.00    +0.000 A 
ATOM     17  C   UNL     1      -3.938  12.732  20.148  0.00  0.00    +0.000 A 
ATOM     18  C   UNL     1      -5.272  12.538  19.766  0.00  0.00    +0.000 A 
ENDBRANCH  11  16
ENDBRANCH   7  11
ENDBRANCH   1   8
BRANCH   4  19
ATOM     19  N   UNL     1       3.193   5.974  18.685  0.00  0.00    +0.000 N 
ATOM     20  C   UNL     1       2.656   4.828  18.117  0.00  0.00    +0.000 C 
ATOM     21  O   UNL     1       1.533   4.708  17.633  0.00  0.00    +0.000 OA
ATOM     22  H   UNL     1       4.160   5.892  18.987  0.00  0.00    +0.000 HD
BRANCH  20  23
ATOM     23  C   UNL     1       3.598   3.619  18.155  0.00  0.00    +0.000 C 
ATOM     24  C   UNL     1       2.804   2.343  17.925  0.00  0.00    +0.000 C 
ATOM     25  C   UNL     1       3.726   1.295  18.485  0.00  0.00    +0.000 C 
ATOM     26  C   UNL     1       4.363   2.014  19.654  0.00  0.00    +0.000 C 
ATOM     27  O   UNL     1       4.308   3.427  19.385  0.00  0.00    +0.000 OA
ENDBRANCH  20  23
ENDBRANCH   4  19
TORSDOF 5
ENDMDL
MODEL 5
REMARK VINA RESULT:      -7.4      2.217      3.268
REMARK  Name = 
REMARK  6 active torsions:
REMARK  status: ('A' for Active; 'I' for Inactive)
REMARK    1  A    between atoms: C_1  and  C_2
REMARK    2  A    between atoms: C_5  and  C_6
REMARK    3  A    between atoms: C_6  and  N_7
REMARK    4  A    between atoms: C_8  and  C_10
REMARK    5  A    between atoms: C_13  and  N_14
REMARK    6  A    between atoms: C_15  and  C_17
REMARK                            x       y       z     vdW  Elec       q    Type
REMARK                         _______ _______ _______ _____ _____    ______ ____
ROOT
ATOM      1  C   UNL     1       0.985   9.207  19.610  0.00  0.00    +0.000 A 
ATOM      2  C   UNL     1       1.481   8.129  20.346  0.00  0.00    +0.000 A 
ATOM      3  C   UNL     1       2.380   7.227  19.767  0.00  0.00    +0.000 A 
ATOM      4  C   UNL     1       2.821   7.374  18.453  0.00  0.00    +0.000 A 
ATOM      5  C   UNL     1       2.338   8.461  17.715  0.00  0.00    +0.000 A 
ATOM      6  C   UNL     1       1.428   9.369  18.288  0.00  0.00    +0.000 A 
ENDROOT
BRANCH   1   8
ATOM      7  N   UNL     1      -0.302  11.303  19.418  0.00  0.00    +0.000 N 
ATOM      8  C   UNL     1       0.029  10.206  20.193  0.00  0.00    +0.000 C 
ATOM      9  O   UNL     1      -0.425  10.029  21.319  0.00  0.00    +0.000 OA
ATOM     10  H   UNL     1       0.230  11.530  18.596  0.00  0.00    +0.000 HD
BRANCH   7  11
ATOM     11  C   UNL     1      -1.211  12.328  19.887  0.00  0.00    +0.000 C 
BRANCH  11  16
ATOM     12  C   UNL     1      -6.657  11.217  18.096  0.00  0.00    +0.000 C 
ATOM     13  C   UNL     1      -5.254  11.544  18.519  0.00  0.00    +0.000 A 
ATOM     14  C   UNL     1      -4.152  11.057  17.807  0.00  0.00    +0.000 A 
ATOM     15  C   UNL     1      -2.850  11.336  18.235  0.00  0.00    +0.000 A 
ATOM     16  C   UNL     1      -2.619  12.107  19.384  0.00  0.00    +0.000 A 
ATOM     17  C   UNL     1      -3.725  12.608  20.084  0.00  0.00    +0.000 A 
ATOM     18  C   UNL     1      -5.029  12.328  19.657  0.00  0.00    +0.000 A 
ENDBRANCH  11  16
ENDBRANCH   7  11
ENDBRANCH   1   8
BRANCH   4  19
ATOM     19  N   UNL     1       3.743   6.491  17.846  0.00  0.00    +0.000 N 
ATOM     20  C   UNL     1       3.518   5.165  17.508  0.00  0.00    +0.000 C 
ATOM     21  O   UNL     1       2.463   4.546  17.635  0.00  0.00    +0.000 OA
ATOM     22  H   UNL     1       4.670   6.841  17.619  0.00  0.00    +0.000 HD
BRANCH  20  23
ATOM     23  C   UNL     1       4.754   4.449  16.953  0.00  0.00    +0.000 C 
ATOM     24  C   UNL     1       5.973   4.810  17.785  0.00  0.00    +0.000 C 
ATOM     25  C   UNL     1       7.102   4.471  16.851  0.00  0.00    +0.000 C 
ATOM     26  C   UNL     1       6.527   4.840  15.501  0.00  0.00    +0.000 C 
ATOM     27  O   UNL     1       5.093   4.763  15.597  0.00  0.00    +0.000 OA
ENDBRANCH  20  23
ENDBRANCH   4  19
TORSDOF 5
ENDMDL
MODEL 6
REMARK VINA RESULT:      -7.4      3.316      4.856
REMARK  Name = 
REMARK  6 active torsions:
REMARK  status: ('A' for Active; 'I' for Inactive)
REMARK    1  A    between atoms: C_1  and  C_2
REMARK    2  A    between atoms: C_5  and  C_6
REMARK    3  A    between atoms: C_6  and  N_7
REMARK    4  A    between atoms: C_8  and  C_10
REMARK    5  A    between atoms: C_13  and  N_14
REMARK    6  A    between atoms: C_15  and  C_17
REMARK                            x       y       z     vdW  Elec       q    Type
REMARK                         _______ _______ _______ _____ _____    ______ ____
ROOT
ATOM      1  C   UNL     1       2.957   5.970  19.047  0.00  0.00    +0.000 A 
ATOM      2  C   UNL     1       3.486   6.864  18.114  0.00  0.00    +0.000 A 
ATOM      3  C   UNL     1       4.267   6.401  17.050  0.00  0.00    +0.000 A 
ATOM      4  C   UNL     1       4.535   5.046  16.874  0.00  0.00    +0.000 A 
ATOM      5  C   UNL     1       3.995   4.143  17.798  0.00  0.00    +0.000 A 
ATOM      6  C   UNL     1       3.214   4.600  18.874  0.00  0.00    +0.000 A 
ENDROOT
BRANCH   1   8
ATOM      7  N   UNL     1       2.010   7.778  20.434  0.00  0.00    +0.000 N 
ATOM      8  C   UNL     1       2.103   6.418  20.197  0.00  0.00    +0.000 C 
ATOM      9  O   UNL     1       1.521   5.585  20.883  0.00  0.00    +0.000 OA
ATOM     10  H   UNL     1       2.646   8.420  19.995  0.00  0.00    +0.000 HD
BRANCH   7  11
ATOM     11  C   UNL     1       1.217   8.315  21.520  0.00  0.00    +0.000 C 
BRANCH  11  16
ATOM     12  C   UNL     1      -1.751  13.058  19.848  0.00  0.00    +0.000 C 
ATOM     13  C   UNL     1      -1.037  11.811  20.282  0.00  0.00    +0.000 A 
ATOM     14  C   UNL     1      -0.935  11.470  21.634  0.00  0.00    +0.000 A 
ATOM     15  C   UNL     1      -0.231  10.327  22.028  0.00  0.00    +0.000 A 
ATOM     16  C   UNL     1       0.386   9.499  21.079  0.00  0.00    +0.000 A 
ATOM     17  C   UNL     1       0.267   9.834  19.723  0.00  0.00    +0.000 A 
ATOM     18  C   UNL     1      -0.437  10.979  19.328  0.00  0.00    +0.000 A 
ENDBRANCH  11  16
ENDBRANCH   7  11
ENDBRANCH   1   8
BRANCH   4  19
ATOM     19  N   UNL     1       5.304   4.545  15.798  0.00  0.00    +0.000 N 
ATOM     20  C   UNL     1       6.581   4.949  15.438  0.00  0.00    +0.000 C 
ATOM     21  O   UNL     1       7.279   5.777  16.020  0.00  0.00    +0.000 OA
ATOM     22  H   UNL     1       4.906   3.811  15.219  0.00  0.00    +0.000 HD
BRANCH  20  23
ATOM     23  C   UNL     1       7.105   4.282  14.161  0.00  0.00    +0.000 C 
ATOM     24  C   UNL     1       7.449   5.345  13.131  0.00  0.00    +0.000 C 
ATOM     25  C   UNL     1       7.440   4.555  11.850  0.00  0.00    +0.000 C 
ATOM     26  C   UNL     1       6.327   3.558  12.092  0.00  0.00    +0.000 C 
ATOM     27  O   UNL     1       6.193   3.385  13.515  0.00  0.00    +0.000 OA
ENDBRANCH  20  23
ENDBRANCH   4  19
TORSDOF 5
ENDMDL
MODEL 7
REMARK VINA RESULT:      -7.4      1.763      2.584
REMARK  Name = 
REMARK  6 active torsions:
REMARK  status: ('A' for Active; 'I' for Inactive)
REMARK    1  A    between atoms: C_1  and  C_2
REMARK    2  A    between atoms: C_5  and  C_6
REMARK    3  A    between atoms: C_6  and  N_7
REMARK    4  A    between atoms: C_8  and  C_10
REMARK    5  A    between atoms: C_13  and  N_14
REMARK    6  A    between atoms: C_15  and  C_17
REMARK                            x       y       z     vdW  Elec       q    Type
REMARK                         _______ _______ _______ _____ _____    ______ ____
ROOT
ATOM      1  C   UNL     1       1.084   9.844  19.110  0.00  0.00    +0.000 A 
ATOM      2  C   UNL     1       1.678   9.509  17.892  0.00  0.00    +0.000 A 
ATOM      3  C   UNL     1       2.366   8.300  17.745  0.00  0.00    +0.000 A 
ATOM      4  C   UNL     1       2.475   7.388  18.793  0.00  0.00    +0.000 A 
ATOM      5  C   UNL     1       1.870   7.712  20.013  0.00  0.00    +0.000 A 
ATOM      6  C   UNL     1       1.181   8.928  20.171  0.00  0.00    +0.000 A 
ENDROOT
BRANCH   1   8
ATOM      7  N   UNL     1      -0.762  11.095  20.166  0.00  0.00    +0.000 N 
ATOM      8  C   UNL     1       0.325  11.122  19.311  0.00  0.00    +0.000 C 
ATOM      9  O   UNL     1       0.679  12.139  18.723  0.00  0.00    +0.000 OA
ATOM     10  H   UNL     1      -1.152  10.220  20.473  0.00  0.00    +0.000 HD
BRANCH   7  11
ATOM     11  C   UNL     1      -1.565  12.272  20.426  0.00  0.00    +0.000 C 
BRANCH  11  16
ATOM     12  C   UNL     1      -6.700  12.255  17.645  0.00  0.00    +0.000 C 
ATOM     13  C   UNL     1      -5.398  12.216  18.390  0.00  0.00    +0.000 A 
ATOM     14  C   UNL     1      -5.264  12.820  19.645  0.00  0.00    +0.000 A 
ATOM     15  C   UNL     1      -4.034  12.812  20.311  0.00  0.00    +0.000 A 
ATOM     16  C   UNL     1      -2.910  12.199  19.739  0.00  0.00    +0.000 A 
ATOM     17  C   UNL     1      -3.051  11.579  18.489  0.00  0.00    +0.000 A 
ATOM     18  C   UNL     1      -4.283  11.588  17.821  0.00  0.00    +0.000 A 
ENDBRANCH  11  16
ENDBRANCH   7  11
ENDBRANCH   1   8
BRANCH   4  19
ATOM     19  N   UNL     1       3.148   6.150  18.670  0.00  0.00    +0.000 N 
ATOM     20  C   UNL     1       2.637   4.983  18.124  0.00  0.00    +0.000 C 
ATOM     21  O   UNL     1       1.529   4.838  17.611  0.00  0.00    +0.000 OA
ATOM     22  H   UNL     1       4.107   6.086  19.003  0.00  0.00    +0.000 HD
BRANCH  20  23
ATOM     23  C   UNL     1       3.585   3.783  18.228  0.00  0.00    +0.000 C 
ATOM     24  C   UNL     1       2.838   2.506  17.879  0.00  0.00    +0.000 C 
ATOM     25  C   UNL     1       3.709   1.452  18.505  0.00  0.00    +0.000 C 
ATOM     26  C   UNL     1       4.207   2.144  19.756  0.00  0.00    +0.000 C 
ATOM     27  O   UNL     1       4.161   3.563  19.522  0.00  0.00    +0.000 OA
ENDBRANCH  20  23
ENDBRANCH   4  19
TORSDOF 5
ENDMDL
MODEL 8
REMARK VINA RESULT:      -7.4      2.183      3.121
REMARK  Name = 
REMARK  6 active torsions:
REMARK  status: ('A' for Active; 'I' for Inactive)
REMARK    1  A    between atoms: C_1  and  C_2
REMARK    2  A    between atoms: C_5  and  C_6
REMARK    3  A    between atoms: C_6  and  N_7
REMARK    4  A    between atoms: C_8  and  C_10
REMARK    5  A    between atoms: C_13  and  N_14
REMARK    6  A    between atoms: C_15  and  C_17
REMARK                            x       y       z     vdW  Elec       q    Type
REMARK                         _______ _______ _______ _____ _____    ______ ____
ROOT
ATOM      1  C   UNL     1       1.009   9.294  19.530  0.00  0.00    +0.000 A 
ATOM      2  C   UNL     1       1.446   9.406  18.208  0.00  0.00    +0.000 A 
ATOM      3  C   UNL     1       2.358   8.485  17.681  0.00  0.00    +0.000 A 
ATOM      4  C   UNL     1       2.850   7.426  18.440  0.00  0.00    +0.000 A 
ATOM      5  C   UNL     1       2.404   7.300  19.761  0.00  0.00    +0.000 A 
ATOM      6  C   UNL     1       1.492   8.225  20.301  0.00  0.00    +0.000 A 
ENDROOT
BRANCH   1   8
ATOM      7  N   UNL     1      -0.265  11.404  19.430  0.00  0.00    +0.000 N 
ATOM      8  C   UNL     1       0.023  10.250  20.134  0.00  0.00    +0.000 C 
ATOM      9  O   UNL     1      -0.492   9.988  21.217  0.00  0.00    +0.000 OA
ATOM     10  H   UNL     1       0.310  11.692  18.658  0.00  0.00    +0.000 HD
BRANCH   7  11
ATOM     11  C   UNL     1      -1.199  12.394  19.926  0.00  0.00    +0.000 C 
BRANCH  11  16
ATOM     12  C   UNL     1      -6.614  11.706  17.852  0.00  0.00    +0.000 C 
ATOM     13  C   UNL     1      -5.230  11.838  18.418  0.00  0.00    +0.000 A 
ATOM     14  C   UNL     1      -5.008  12.475  19.644  0.00  0.00    +0.000 A 
ATOM     15  C   UNL     1      -3.709  12.627  20.140  0.00  0.00    +0.000 A 
ATOM     16  C   UNL     1      -2.603  12.147  19.424  0.00  0.00    +0.000 A 
ATOM     17  C   UNL     1      -2.831  11.494  18.205  0.00  0.00    +0.000 A 
ATOM     18  C   UNL     1      -4.131  11.342  17.706  0.00  0.00    +0.000 A 
ENDBRANCH  11  16
ENDBRANCH   7  11
ENDBRANCH   1   8
BRANCH   4  19
ATOM     19  N   UNL     1       3.757   6.468  17.929  0.00  0.00    +0.000 N 
ATOM     20  C   UNL     1       3.471   5.152  17.602  0.00  0.00    +0.000 C 
ATOM     21  O   UNL     1       2.370   4.607  17.655  0.00  0.00    +0.000 OA
ATOM     22  H   UNL     1       4.721   6.751  17.772  0.00  0.00    +0.000 HD
BRANCH  20  23
ATOM     23  C   UNL     1       4.696   4.341  17.167  0.00  0.00    +0.000 C 
ATOM     24  C   UNL     1       5.965   5.037  17.632  0.00  0.00    +0.000 C 
ATOM     25  C   UNL     1       7.004   4.435  16.727  0.00  0.00    +0.000 C 
ATOM     26  C   UNL     1       6.242   4.258  15.431  0.00  0.00    +0.000 C 
ATOM     27  O   UNL     1       4.843   4.154  15.753  0.00  0.00    +0.000 OA
ENDBRANCH  20  23
ENDBRANCH   4  19
TORSDOF 5
ENDMDL
MODEL 9
REMARK VINA RESULT:      -7.4      3.658      9.955
REMARK  Name = 
REMARK  6 active torsions:
REMARK  status: ('A' for Active; 'I' for Inactive)
REMARK    1  A    between atoms: C_1  and  C_2
REMARK    2  A    between atoms: C_5  and  C_6
REMARK    3  A    between atoms: C_6  and  N_7
REMARK    4  A    between atoms: C_8  and  C_10
REMARK    5  A    between atoms: C_13  and  N_14
REMARK    6  A    between atoms: C_15  and  C_17
REMARK                            x       y       z     vdW  Elec       q    Type
REMARK                         _______ _______ _______ _____ _____    ______ ____
ROOT
ATOM      1  C   UNL     1      -0.597  10.305  18.741  0.00  0.00    +0.000 A 
ATOM      2  C   UNL     1      -1.381   9.999  17.626  0.00  0.00    +0.000 A 
ATOM      3  C   UNL     1      -2.613  10.631  17.429  0.00  0.00    +0.000 A 
ATOM      4  C   UNL     1      -3.096  11.588  18.319  0.00  0.00    +0.000 A 
ATOM      5  C   UNL     1      -2.308  11.909  19.431  0.00  0.00    +0.000 A 
ATOM      6  C   UNL     1      -1.071  11.274  19.640  0.00  0.00    +0.000 A 
ENDROOT
BRANCH   1   8
ATOM      7  N   UNL     1       1.219   8.798  18.022  0.00  0.00    +0.000 N 
ATOM      8  C   UNL     1       0.736   9.663  18.987  0.00  0.00    +0.000 C 
ATOM      9  O   UNL     1       1.352   9.916  20.018  0.00  0.00    +0.000 OA
ATOM     10  H   UNL     1       0.617   8.453  17.294  0.00  0.00    +0.000 HD
BRANCH   7  11
ATOM     11  C   UNL     1       2.492   8.123  18.164  0.00  0.00    +0.000 C 
BRANCH  11  16
ATOM     12  C   UNL     1       1.578   2.789  20.357  0.00  0.00    +0.000 C 
ATOM     13  C   UNL     1       1.867   4.155  19.806  0.00  0.00    +0.000 A 
ATOM     14  C   UNL     1       1.963   5.269  20.647  0.00  0.00    +0.000 A 
ATOM     15  C   UNL     1       2.193   6.542  20.117  0.00  0.00    +0.000 A 
ATOM     16  C   UNL     1       2.332   6.732  18.734  0.00  0.00    +0.000 A 
ATOM     17  C   UNL     1       2.253   5.611  17.896  0.00  0.00    +0.000 A 
ATOM     18  C   UNL     1       2.022   4.335  18.426  0.00  0.00    +0.000 A 
ENDBRANCH  11  16
ENDBRANCH   7  11
ENDBRANCH   1   8
BRANCH   4  19
ATOM     19  N   UNL     1      -4.328  12.258  18.137  0.00  0.00    +0.000 N 
ATOM     20  C   UNL     1      -5.594  11.702  18.244  0.00  0.00    +0.000 C 
ATOM     21  O   UNL     1      -5.861  10.546  18.561  0.00  0.00    +0.000 OA
ATOM     22  H   UNL     1      -4.311  13.249  17.910  0.00  0.00    +0.000 HD
BRANCH  20  23
ATOM     23  C   UNL     1      -6.727  12.671  17.889  0.00  0.00    +0.000 C 
ATOM     24  C   UNL     1      -6.420  13.360  16.569  0.00  0.00    +0.000 C 
ATOM     25  C   UNL     1      -7.306  14.574  16.636  0.00  0.00    +0.000 C 
ATOM     26  C   UNL     1      -7.269  14.922  18.108  0.00  0.00    +0.000 C 
ATOM     27  O   UNL     1      -6.963  13.720  18.837  0.00  0.00    +0.000 OA
ENDBRANCH  20  23
ENDBRANCH   4  19
TORSDOF 5
ENDMDL
