MODEL 1
REMARK VINA RESULT:      -7.6      0.000      0.000
REMARK  Name = 
REMARK  10 active torsions:
REMARK  status: ('A' for Active; 'I' for Inactive)
REMARK    1  A    between atoms: C_1  and  C_2
REMARK    2  A    between atoms: C_2  and  C_3
REMARK    3  A    between atoms: C_5  and  C_6
REMARK    4  A    between atoms: C_11  and  C_12
REMARK    5  A    between atoms: C_12  and  C_13
REMARK    6  A    between atoms: C_16  and  S_17
REMARK    7  A    between atoms: S_17  and  C_18
REMARK    8  A    between atoms: C_22  and  O_23
REMARK    9  A    between atoms: C_24  and  O_25
REMARK   10  A    between atoms: C_26  and  O_27
REMARK                            x       y       z     vdW  Elec       q    Type
REMARK                         _______ _______ _______ _____ _____    ______ ____
ROOT
ATOM      1  C   UNL     1       2.595   6.225  19.515  0.00  0.00    +0.000 A 
ATOM      2  C   UNL     1       1.643   5.202  19.567  0.00  0.00    +0.000 A 
ATOM      3  C   UNL     1       2.035   3.876  19.396  0.00  0.00    +0.000 A 
ATOM      4  C   UNL     1       3.378   3.551  19.156  0.00  0.00    +0.000 A 
ATOM      5 CL   UNL     1       3.778   1.877  19.047  0.00  0.00    +0.000 Cl
ATOM      6  C   UNL     1       4.343   4.563  19.030  0.00  0.00    +0.000 A 
ATOM      7  C   UNL     1       3.933   5.892  19.238  0.00  0.00    +0.000 A 
ENDROOT
BRANCH   1  10
ATOM      8  C   UNL     1       0.648   8.904  21.147  0.00  0.00    +0.000 C 
ATOM      9  O   UNL     1       1.148   7.624  20.773  0.00  0.00    +0.000 OA
ATOM     10  C   UNL     1       2.186   7.661  19.793  0.00  0.00    +0.000 C 
ATOM     11  C   UNL     1       1.720   8.366  18.496  0.00  0.00    +0.000 C 
ATOM     12  C   UNL     1       1.078   9.729  18.832  0.00  0.00    +0.000 C 
ATOM     13  C   UNL     1       0.015   9.590  19.929  0.00  0.00    +0.000 C 
BRANCH   8  15
ATOM     14  C   UNL     1      -0.073   9.620  23.460  0.00  0.00    +0.000 C 
ATOM     15  C   UNL     1      -0.361   8.696  22.284  0.00  0.00    +0.000 C 
ENDBRANCH   8  15
BRANCH  11  16
ATOM     16  O   UNL     1       2.812   8.544  17.580  0.00  0.00    +0.000 OA
ATOM     17  H   UNL     1       2.918   7.736  17.051  0.00  0.00    +0.000 HD
ENDBRANCH  11  16
BRANCH  12  18
ATOM     18  O   UNL     1       0.517  10.327  17.653  0.00  0.00    +0.000 OA
ATOM     19  H   UNL     1       0.680  11.276  17.683  0.00  0.00    +0.000 HD
ENDBRANCH  12  18
BRANCH  13  20
ATOM     20  O   UNL     1      -0.526  10.862  20.293  0.00  0.00    +0.000 OA
ATOM     21  H   UNL     1      -0.835  11.314  19.490  0.00  0.00    +0.000 HD
ENDBRANCH  13  20
ENDBRANCH   1  10
BRANCH   6  22
ATOM     22  C   UNL     1       5.792   4.310  18.654  0.00  0.00    +0.000 C 
BRANCH  22  23
ATOM     23  C   UNL     1       6.116   4.534  17.209  0.00  0.00    +0.000 A 
ATOM     24  C   UNL     1       5.367   3.972  16.197  0.00  0.00    +0.000 A 
ATOM     25  N   UNL     1       5.674   4.071  14.892  0.00  0.00    +0.000 NA
ATOM     26  C   UNL     1       6.777   4.767  14.582  0.00  0.00    +0.000 A 
ATOM     27  N   UNL     1       7.544   5.420  15.476  0.00  0.00    +0.000 NA
ATOM     28  C   UNL     1       7.188   5.287  16.772  0.00  0.00    +0.000 A 
BRANCH  26  29
ATOM     29  S   UNL     1       7.298   4.666  12.887  0.00  0.00    +0.000 S 
ATOM     30  C   UNL     1       6.211   3.360  12.284  0.00  0.00    +0.000 C 
ENDBRANCH  26  29
ENDBRANCH  22  23
ENDBRANCH   6  22
TORSDOF 8
ENDMDL
MODEL 2
REMARK VINA RESULT:      -7.6      5.291      8.409
REMARK  Name = 
REMARK  10 active torsions:
REMARK  status: ('A' for Active; 'I' for Inactive)
REMARK    1  A    between atoms: C_1  and  C_2
REMARK    2  A    between atoms: C_2  and  C_3
REMARK    3  A    between atoms: C_5  and  C_6
REMARK    4  A    between atoms: C_11  and  C_12
REMARK    5  A    between atoms: C_12  and  C_13
REMARK    6  A    between atoms: C_16  and  S_17
REMARK    7  A    between atoms: S_17  and  C_18
REMARK    8  A    between atoms: C_22  and  O_23
REMARK    9  A    between atoms: C_24  and  O_25
REMARK   10  A    between atoms: C_26  and  O_27
REMARK                            x       y       z     vdW  Elec       q    Type
REMARK                         _______ _______ _______ _____ _____    ______ ____
ROOT
ATOM      1  C   UNL     1       2.213   6.998  18.953  0.00  0.00    +0.000 A 
ATOM      2  C   UNL     1       2.144   6.881  20.345  0.00  0.00    +0.000 A 
ATOM      3  C   UNL     1       1.578   7.903  21.103  0.00  0.00    +0.000 A 
ATOM      4  C   UNL     1       1.086   9.063  20.488  0.00  0.00    +0.000 A 
ATOM      5 CL   UNL     1       0.323  10.232  21.502  0.00  0.00    +0.000 Cl
ATOM      6  C   UNL     1       1.205   9.238  19.100  0.00  0.00    +0.000 A 
ATOM      7  C   UNL     1       1.749   8.181  18.349  0.00  0.00    +0.000 A 
ENDROOT
BRANCH   1  10
ATOM      8  C   UNL     1       2.475   3.479  17.868  0.00  0.00    +0.000 C 
ATOM      9  O   UNL     1       2.083   4.661  18.560  0.00  0.00    +0.000 OA
ATOM     10  C   UNL     1       2.744   5.848  18.117  0.00  0.00    +0.000 C 
ATOM     11  C   UNL     1       4.282   5.727  18.251  0.00  0.00    +0.000 C 
ATOM     12  C   UNL     1       4.772   4.415  17.602  0.00  0.00    +0.000 C 
ATOM     13  C   UNL     1       3.967   3.209  18.104  0.00  0.00    +0.000 C 
BRANCH   8  15
ATOM     14  C   UNL     1       0.792   2.744  19.603  0.00  0.00    +0.000 C 
ATOM     15  C   UNL     1       1.593   2.330  18.374  0.00  0.00    +0.000 C 
ENDBRANCH   8  15
BRANCH  11  16
ATOM     16  O   UNL     1       4.945   6.853  17.655  0.00  0.00    +0.000 OA
ATOM     17  H   UNL     1       5.700   6.537  17.131  0.00  0.00    +0.000 HD
ENDBRANCH  11  16
BRANCH  12  18
ATOM     18  O   UNL     1       6.175   4.226  17.844  0.00  0.00    +0.000 OA
ATOM     19  H   UNL     1       6.570   3.825  17.062  0.00  0.00    +0.000 HD
ENDBRANCH  12  18
BRANCH  13  20
ATOM     20  O   UNL     1       4.371   2.005  17.448  0.00  0.00    +0.000 OA
ATOM     21  H   UNL     1       4.643   2.219  16.539  0.00  0.00    +0.000 HD
ENDBRANCH  13  20
ENDBRANCH   1  10
BRANCH   6  22
ATOM     22  C   UNL     1       0.809  10.508  18.368  0.00  0.00    +0.000 C 
BRANCH  22  23
ATOM     23  C   UNL     1      -0.666  10.697  18.188  0.00  0.00    +0.000 A 
ATOM     24  C   UNL     1      -1.407   9.896  17.344  0.00  0.00    +0.000 A 
ATOM     25  N   UNL     1      -2.712  10.087  17.083  0.00  0.00    +0.000 NA
ATOM     26  C   UNL     1      -3.306  11.121  17.696  0.00  0.00    +0.000 A 
ATOM     27  N   UNL     1      -2.704  11.924  18.594  0.00  0.00    +0.000 NA
ATOM     28  C   UNL     1      -1.394  11.686  18.819  0.00  0.00    +0.000 A 
BRANCH  26  29
ATOM     29  S   UNL     1      -4.949  11.503  17.139  0.00  0.00    +0.000 S 
ATOM     30  C   UNL     1      -5.921  10.870  18.520  0.00  0.00    +0.000 C 
ENDBRANCH  26  29
ENDBRANCH  22  23
ENDBRANCH   6  22
TORSDOF 8
ENDMDL
MODEL 3
REMARK VINA RESULT:      -7.5      5.303      8.491
REMARK  Name = 
REMARK  10 active torsions:
REMARK  status: ('A' for Active; 'I' for Inactive)
REMARK    1  A    between atoms: C_1  and  C_2
REMARK    2  A    between atoms: C_2  and  C_3
REMARK    3  A    between atoms: C_5  and  C_6
REMARK    4  A    between atoms: C_11  and  C_12
REMARK    5  A    between atoms: C_12  and  C_13
REMARK    6  A    between atoms: C_16  and  S_17
REMARK    7  A    between atoms: S_17  and  C_18
REMARK    8  A    between atoms: C_22  and  O_23
REMARK    9  A    between atoms: C_24  and  O_25
REMARK   10  A    between atoms: C_26  and  O_27
REMARK                            x       y       z     vdW  Elec       q    Type
REMARK                         _______ _______ _______ _____ _____    ______ ____
ROOT
ATOM      1  C   UNL     1       2.226   6.987  19.053  0.00  0.00    +0.000 A 
ATOM      2  C   UNL     1       2.129   6.929  20.446  0.00  0.00    +0.000 A 
ATOM      3  C   UNL     1       1.559   7.987  21.150  0.00  0.00    +0.000 A 
ATOM      4  C   UNL     1       1.091   9.125  20.478  0.00  0.00    +0.000 A 
ATOM      5 CL   UNL     1       0.322  10.344  21.426  0.00  0.00    +0.000 Cl
ATOM      6  C   UNL     1       1.239   9.241  19.086  0.00  0.00    +0.000 A 
ATOM      7  C   UNL     1       1.786   8.149  18.391  0.00  0.00    +0.000 A 
ENDROOT
BRANCH   1  10
ATOM      8  C   UNL     1       2.392   3.441  18.039  0.00  0.00    +0.000 C 
ATOM      9  O   UNL     1       2.008   4.653  18.682  0.00  0.00    +0.000 OA
ATOM     10  C   UNL     1       2.761   5.797  18.276  0.00  0.00    +0.000 C 
ATOM     11  C   UNL     1       4.276   5.603  18.530  0.00  0.00    +0.000 C 
ATOM     12  C   UNL     1       4.747   4.258  17.940  0.00  0.00    +0.000 C 
ATOM     13  C   UNL     1       3.845   3.102  18.394  0.00  0.00    +0.000 C 
BRANCH   8  15
ATOM     14  C   UNL     1       1.017   2.524  19.950  0.00  0.00    +0.000 C 
ATOM     15  C   UNL     1       1.416   2.346  18.491  0.00  0.00    +0.000 C 
ENDBRANCH   8  15
BRANCH  11  16
ATOM     16  O   UNL     1       5.039   6.684  17.973  0.00  0.00    +0.000 OA
ATOM     17  H   UNL     1       5.934   6.369  17.768  0.00  0.00    +0.000 HD
ENDBRANCH  11  16
BRANCH  12  18
ATOM     18  O   UNL     1       6.115   4.003  18.292  0.00  0.00    +0.000 OA
ATOM     19  H   UNL     1       6.170   3.887  19.247  0.00  0.00    +0.000 HD
ENDBRANCH  12  18
BRANCH  13  20
ATOM     20  O   UNL     1       4.237   1.868  17.787  0.00  0.00    +0.000 OA
ATOM     21  H   UNL     1       4.258   1.175  18.468  0.00  0.00    +0.000 HD
ENDBRANCH  13  20
ENDBRANCH   1  10
BRANCH   6  22
ATOM     22  C   UNL     1       0.871  10.483  18.295  0.00  0.00    +0.000 C 
BRANCH  22  23
ATOM     23  C   UNL     1      -0.599  10.693  18.100  0.00  0.00    +0.000 A 
ATOM     24  C   UNL     1      -1.258  11.783  18.627  0.00  0.00    +0.000 A 
ATOM     25  N   UNL     1      -2.588  11.963  18.555  0.00  0.00    +0.000 NA
ATOM     26  C   UNL     1      -3.293  11.013  17.922  0.00  0.00    +0.000 A 
ATOM     27  N   UNL     1      -2.752   9.946  17.305  0.00  0.00    +0.000 NA
ATOM     28  C   UNL     1      -1.412   9.816  17.409  0.00  0.00    +0.000 A 
BRANCH  26  29
ATOM     29  S   UNL     1      -5.058  11.145  18.064  0.00  0.00    +0.000 S 
ATOM     30  C   UNL     1      -5.194  12.353  19.396  0.00  0.00    +0.000 C 
ENDBRANCH  26  29
ENDBRANCH  22  23
ENDBRANCH   6  22
TORSDOF 8
ENDMDL
MODEL 4
REMARK VINA RESULT:      -7.1      2.187      2.930
REMARK  Name = 
REMARK  10 active torsions:
REMARK  status: ('A' for Active; 'I' for Inactive)
REMARK    1  A    between atoms: C_1  and  C_2
REMARK    2  A    between atoms: C_2  and  C_3
REMARK    3  A    between atoms: C_5  and  C_6
REMARK    4  A    between atoms: C_11  and  C_12
REMARK    5  A    between atoms: C_12  and  C_13
REMARK    6  A    between atoms: C_16  and  S_17
REMARK    7  A    between atoms: S_17  and  C_18
REMARK    8  A    between atoms: C_22  and  O_23
REMARK    9  A    between atoms: C_24  and  O_25
REMARK   10  A    between atoms: C_26  and  O_27
REMARK                            x       y       z     vdW  Elec       q    Type
REMARK                         _______ _______ _______ _____ _____    ______ ____
ROOT
ATOM      1  C   UNL     1       2.646   6.242  19.795  0.00  0.00    +0.000 A 
ATOM      2  C   UNL     1       1.823   5.185  20.198  0.00  0.00    +0.000 A 
ATOM      3  C   UNL     1       2.283   3.873  20.114  0.00  0.00    +0.000 A 
ATOM      4  C   UNL     1       3.562   3.593  19.614  0.00  0.00    +0.000 A 
ATOM      5 CL   UNL     1       4.075   1.946  19.632  0.00  0.00    +0.000 Cl
ATOM      6  C   UNL     1       4.383   4.628  19.137  0.00  0.00    +0.000 A 
ATOM      7  C   UNL     1       3.914   5.948  19.261  0.00  0.00    +0.000 A 
ENDROOT
BRANCH   1  10
ATOM      8  C   UNL     1       0.556   8.947  21.189  0.00  0.00    +0.000 C 
ATOM      9  O   UNL     1       1.108   7.664  20.911  0.00  0.00    +0.000 OA
ATOM     10  C   UNL     1       2.183   7.677  19.971  0.00  0.00    +0.000 C 
ATOM     11  C   UNL     1       1.750   8.292  18.618  0.00  0.00    +0.000 C 
ATOM     12  C   UNL     1       1.054   9.650  18.848  0.00  0.00    +0.000 C 
ATOM     13  C   UNL     1      -0.048   9.541  19.910  0.00  0.00    +0.000 C 
BRANCH   8  15
ATOM     14  C   UNL     1      -0.306   9.799  23.407  0.00  0.00    +0.000 C 
ATOM     15  C   UNL     1      -0.492   8.773  22.296  0.00  0.00    +0.000 C 
ENDBRANCH   8  15
BRANCH  11  16
ATOM     16  O   UNL     1       2.872   8.452  17.737  0.00  0.00    +0.000 OA
ATOM     17  H   UNL     1       2.591   8.262  16.826  0.00  0.00    +0.000 HD
ENDBRANCH  11  16
BRANCH  12  18
ATOM     18  O   UNL     1       0.524  10.161  17.615  0.00  0.00    +0.000 OA
ATOM     19  H   UNL     1       1.201  10.083  16.934  0.00  0.00    +0.000 HD
ENDBRANCH  12  18
BRANCH  13  20
ATOM     20  O   UNL     1      -0.640  10.814  20.177  0.00  0.00    +0.000 OA
ATOM     21  H   UNL     1      -0.010  11.512  19.930  0.00  0.00    +0.000 HD
ENDBRANCH  13  20
ENDBRANCH   1  10
BRANCH   6  22
ATOM     22  C   UNL     1       5.729   4.405  18.471  0.00  0.00    +0.000 C 
BRANCH  22  23
ATOM     23  C   UNL     1       6.488   5.656  18.152  0.00  0.00    +0.000 A 
ATOM     24  C   UNL     1       7.561   6.073  18.910  0.00  0.00    +0.000 A 
ATOM     25  N   UNL     1       8.212   7.233  18.715  0.00  0.00    +0.000 NA
ATOM     26  C   UNL     1       7.775   8.010  17.714  0.00  0.00    +0.000 A 
ATOM     27  N   UNL     1       6.786   7.675  16.863  0.00  0.00    +0.000 NA
ATOM     28  C   UNL     1       6.169   6.499  17.105  0.00  0.00    +0.000 A 
BRANCH  26  29
ATOM     29  S   UNL     1       8.479   9.639  17.642  0.00  0.00    +0.000 S 
ATOM     30  C   UNL     1       9.115   9.799  19.322  0.00  0.00    +0.000 C 
ENDBRANCH  26  29
ENDBRANCH  22  23
ENDBRANCH   6  22
TORSDOF 8
ENDMDL
MODEL 5
REMARK VINA RESULT:      -7.0      5.136      8.363
REMARK  Name = 
REMARK  10 active torsions:
REMARK  status: ('A' for Active; 'I' for Inactive)
REMARK    1  A    between atoms: C_1  and  C_2
REMARK    2  A    between atoms: C_2  and  C_3
REMARK    3  A    between atoms: C_5  and  C_6
REMARK    4  A    between atoms: C_11  and  C_12
REMARK    5  A    between atoms: C_12  and  C_13
REMARK    6  A    between atoms: C_16  and  S_17
REMARK    7  A    between atoms: S_17  and  C_18
REMARK    8  A    between atoms: C_22  and  O_23
REMARK    9  A    between atoms: C_24  and  O_25
REMARK   10  A    between atoms: C_26  and  O_27
REMARK                            x       y       z     vdW  Elec       q    Type
REMARK                         _______ _______ _______ _____ _____    ______ ____
ROOT
ATOM      1  C   UNL     1       2.480   6.932  18.585  0.00  0.00    +0.000 A 
ATOM      2  C   UNL     1       2.315   6.526  19.913  0.00  0.00    +0.000 A 
ATOM      3  C   UNL     1       1.666   7.358  20.821  0.00  0.00    +0.000 A 
ATOM      4  C   UNL     1       1.185   8.614  20.425  0.00  0.00    +0.000 A 
ATOM      5 CL   UNL     1       0.318   9.535  21.598  0.00  0.00    +0.000 Cl
ATOM      6  C   UNL     1       1.398   9.077  19.116  0.00  0.00    +0.000 A 
ATOM      7  C   UNL     1       2.025   8.209  18.206  0.00  0.00    +0.000 A 
ENDROOT
BRANCH   1  10
ATOM      8  C   UNL     1       3.814   3.708  17.377  0.00  0.00    +0.000 C 
ATOM      9  O   UNL     1       3.238   4.715  18.203  0.00  0.00    +0.000 OA
ATOM     10  C   UNL     1       3.103   5.989  17.571  0.00  0.00    +0.000 C 
ATOM     11  C   UNL     1       4.469   6.528  17.078  0.00  0.00    +0.000 C 
ATOM     12  C   UNL     1       5.198   5.450  16.248  0.00  0.00    +0.000 C 
ATOM     13  C   UNL     1       5.244   4.109  16.991  0.00  0.00    +0.000 C 
BRANCH   8  15
ATOM     14  C   UNL     1       4.011   2.613  19.645  0.00  0.00    +0.000 C 
ATOM     15  C   UNL     1       3.774   2.388  18.157  0.00  0.00    +0.000 C 
ENDBRANCH   8  15
BRANCH  11  16
ATOM     16  O   UNL     1       4.305   7.725  16.302  0.00  0.00    +0.000 OA
ATOM     17  H   UNL     1       3.540   8.220  16.640  0.00  0.00    +0.000 HD
ENDBRANCH  11  16
BRANCH  12  18
ATOM     18  O   UNL     1       6.522   5.888  15.905  0.00  0.00    +0.000 OA
ATOM     19  H   UNL     1       6.948   5.198  15.384  0.00  0.00    +0.000 HD
ENDBRANCH  12  18
BRANCH  13  20
ATOM     20  O   UNL     1       5.852   3.092  16.191  0.00  0.00    +0.000 OA
ATOM     21  H   UNL     1       6.818   3.188  16.242  0.00  0.00    +0.000 HD
ENDBRANCH  13  20
ENDBRANCH   1  10
BRANCH   6  22
ATOM     22  C   UNL     1       1.018  10.467  18.636  0.00  0.00    +0.000 C 
BRANCH  22  23
ATOM     23  C   UNL     1      -0.444  10.665  18.377  0.00  0.00    +0.000 A 
ATOM     24  C   UNL     1      -1.152   9.848  17.521  0.00  0.00    +0.000 A 
ATOM     25  N   UNL     1      -2.439  10.044  17.190  0.00  0.00    +0.000 NA
ATOM     26  C   UNL     1      -3.051  11.102  17.742  0.00  0.00    +0.000 A 
ATOM     27  N   UNL     1      -2.486  11.925  18.645  0.00  0.00    +0.000 NA
ATOM     28  C   UNL     1      -1.191  11.680  18.942  0.00  0.00    +0.000 A 
BRANCH  26  29
ATOM     29  S   UNL     1      -4.660  11.483  17.093  0.00  0.00    +0.000 S 
ATOM     30  C   UNL     1      -5.709  10.848  18.415  0.00  0.00    +0.000 C 
ENDBRANCH  26  29
ENDBRANCH  22  23
ENDBRANCH   6  22
TORSDOF 8
ENDMDL
MODEL 6
REMARK VINA RESULT:      -7.0      5.370      8.520
REMARK  Name = 
REMARK  10 active torsions:
REMARK  status: ('A' for Active; 'I' for Inactive)
REMARK    1  A    between atoms: C_1  and  C_2
REMARK    2  A    between atoms: C_2  and  C_3
REMARK    3  A    between atoms: C_5  and  C_6
REMARK    4  A    between atoms: C_11  and  C_12
REMARK    5  A    between atoms: C_12  and  C_13
REMARK    6  A    between atoms: C_16  and  S_17
REMARK    7  A    between atoms: S_17  and  C_18
REMARK    8  A    between atoms: C_22  and  O_23
REMARK    9  A    between atoms: C_24  and  O_25
REMARK   10  A    between atoms: C_26  and  O_27
REMARK                            x       y       z     vdW  Elec       q    Type
REMARK                         _______ _______ _______ _____ _____    ______ ____
ROOT
ATOM      1  C   UNL     1       1.962   7.403  19.711  0.00  0.00    +0.000 A 
ATOM      2  C   UNL     1       1.850   7.509  21.100  0.00  0.00    +0.000 A 
ATOM      3  C   UNL     1       1.232   8.621  21.668  0.00  0.00    +0.000 A 
ATOM      4  C   UNL     1       0.731   9.651  20.859  0.00  0.00    +0.000 A 
ATOM      5 CL   UNL     1      -0.095  10.944  21.648  0.00  0.00    +0.000 Cl
ATOM      6  C   UNL     1       0.892   9.605  19.465  0.00  0.00    +0.000 A 
ATOM      7  C   UNL     1       1.489   8.459  18.911  0.00  0.00    +0.000 A 
ENDROOT
BRANCH   1  10
ATOM      8  C   UNL     1       3.025   3.868  19.645  0.00  0.00    +0.000 C 
ATOM      9  O   UNL     1       2.503   5.121  20.077  0.00  0.00    +0.000 OA
ATOM     10  C   UNL     1       2.551   6.150  19.087  0.00  0.00    +0.000 C 
ATOM     11  C   UNL     1       3.998   6.401  18.596  0.00  0.00    +0.000 C 
ATOM     12  C   UNL     1       4.664   5.068  18.197  0.00  0.00    +0.000 C 
ATOM     13  C   UNL     1       4.513   4.015  19.303  0.00  0.00    +0.000 C 
BRANCH   8  15
ATOM     14  C   UNL     1       1.358   2.923  21.292  0.00  0.00    +0.000 C 
ATOM     15  C   UNL     1       2.788   2.853  20.772  0.00  0.00    +0.000 C 
ENDBRANCH   8  15
BRANCH  11  16
ATOM     16  O   UNL     1       4.019   7.317  17.490  0.00  0.00    +0.000 OA
ATOM     17  H   UNL     1       4.191   6.823  16.671  0.00  0.00    +0.000 HD
ENDBRANCH  11  16
BRANCH  12  18
ATOM     18  O   UNL     1       6.048   5.271  17.874  0.00  0.00    +0.000 OA
ATOM     19  H   UNL     1       6.103   5.850  17.106  0.00  0.00    +0.000 HD
ENDBRANCH  12  18
BRANCH  13  20
ATOM     20  O   UNL     1       5.064   2.758  18.903  0.00  0.00    +0.000 OA
ATOM     21  H   UNL     1       5.006   2.137  19.649  0.00  0.00    +0.000 HD
ENDBRANCH  13  20
ENDBRANCH   1  10
BRANCH   6  22
ATOM     22  C   UNL     1       0.488  10.728  18.527  0.00  0.00    +0.000 C 
BRANCH  22  23
ATOM     23  C   UNL     1      -0.983  10.829  18.263  0.00  0.00    +0.000 A 
ATOM     24  C   UNL     1      -1.753  11.841  18.796  0.00  0.00    +0.000 A 
ATOM     25  N   UNL     1      -3.088  11.919  18.660  0.00  0.00    +0.000 NA
ATOM     26  C   UNL     1      -3.681  10.944  17.956  0.00  0.00    +0.000 A 
ATOM     27  N   UNL     1      -3.027   9.949  17.328  0.00  0.00    +0.000 NA
ATOM     28  C   UNL     1      -1.687   9.921  17.498  0.00  0.00    +0.000 A 
BRANCH  26  29
ATOM     29  S   UNL     1      -5.456  10.930  18.009  0.00  0.00    +0.000 S 
ATOM     30  C   UNL     1      -5.786  12.634  18.499  0.00  0.00    +0.000 C 
ENDBRANCH  26  29
ENDBRANCH  22  23
ENDBRANCH   6  22
TORSDOF 8
ENDMDL
MODEL 7
REMARK VINA RESULT:      -6.9      5.255      8.571
REMARK  Name = 
REMARK  10 active torsions:
REMARK  status: ('A' for Active; 'I' for Inactive)
REMARK    1  A    between atoms: C_1  and  C_2
REMARK    2  A    between atoms: C_2  and  C_3
REMARK    3  A    between atoms: C_5  and  C_6
REMARK    4  A    between atoms: C_11  and  C_12
REMARK    5  A    between atoms: C_12  and  C_13
REMARK    6  A    between atoms: C_16  and  S_17
REMARK    7  A    between atoms: S_17  and  C_18
REMARK    8  A    between atoms: C_22  and  O_23
REMARK    9  A    between atoms: C_24  and  O_25
REMARK   10  A    between atoms: C_26  and  O_27
REMARK                            x       y       z     vdW  Elec       q    Type
REMARK                         _______ _______ _______ _____ _____    ______ ____
ROOT
ATOM      1  C   UNL     1       2.261   7.278  19.688  0.00  0.00    +0.000 A 
ATOM      2  C   UNL     1       1.820   7.251  21.015  0.00  0.00    +0.000 A 
ATOM      3  C   UNL     1       0.974   8.251  21.490  0.00  0.00    +0.000 A 
ATOM      4  C   UNL     1       0.568   9.301  20.654  0.00  0.00    +0.000 A 
ATOM      5 CL   UNL     1      -0.550  10.442  21.306  0.00  0.00    +0.000 Cl
ATOM      6  C   UNL     1       1.050   9.392  19.339  0.00  0.00    +0.000 A 
ATOM      7  C   UNL     1       1.876   8.355  18.869  0.00  0.00    +0.000 A 
ENDROOT
BRANCH   1  10
ATOM      8  C   UNL     1       4.939   5.770  17.643  0.00  0.00    +0.000 C 
ATOM      9  O   UNL     1       4.060   6.715  18.247  0.00  0.00    +0.000 OA
ATOM     10  C   UNL     1       3.106   6.141  19.143  0.00  0.00    +0.000 C 
ATOM     11  C   UNL     1       2.225   5.082  18.436  0.00  0.00    +0.000 C 
ATOM     12  C   UNL     1       3.111   4.072  17.678  0.00  0.00    +0.000 C 
ATOM     13  C   UNL     1       4.133   4.786  16.784  0.00  0.00    +0.000 C 
BRANCH   8  15
ATOM     14  C   UNL     1       7.311   6.631  17.527  0.00  0.00    +0.000 C 
ATOM     15  C   UNL     1       5.966   6.553  16.816  0.00  0.00    +0.000 C 
ENDBRANCH   8  15
BRANCH  11  16
ATOM     16  O   UNL     1       1.383   4.397  19.376  0.00  0.00    +0.000 OA
ATOM     17  H   UNL     1       1.860   3.627  19.727  0.00  0.00    +0.000 HD
ENDBRANCH  11  16
BRANCH  12  18
ATOM     18  O   UNL     1       2.302   3.171  16.906  0.00  0.00    +0.000 OA
ATOM     19  H   UNL     1       1.899   2.531  17.503  0.00  0.00    +0.000 HD
ENDBRANCH  12  18
BRANCH  13  20
ATOM     20  O   UNL     1       5.003   3.852  16.140  0.00  0.00    +0.000 OA
ATOM     21  H   UNL     1       4.466   3.223  15.630  0.00  0.00    +0.000 HD
ENDBRANCH  13  20
ENDBRANCH   1  10
BRANCH   6  22
ATOM     22  C   UNL     1       0.758  10.554  18.406  0.00  0.00    +0.000 C 
BRANCH  22  23
ATOM     23  C   UNL     1      -0.688  10.738  18.064  0.00  0.00    +0.000 A 
ATOM     24  C   UNL     1      -1.361  11.909  18.339  0.00  0.00    +0.000 A 
ATOM     25  N   UNL     1      -2.678  12.085  18.133  0.00  0.00    +0.000 NA
ATOM     26  C   UNL     1      -3.353  11.044  17.624  0.00  0.00    +0.000 A 
ATOM     27  N   UNL     1      -2.792   9.880  17.248  0.00  0.00    +0.000 NA
ATOM     28  C   UNL     1      -1.466   9.760  17.477  0.00  0.00    +0.000 A 
BRANCH  26  29
ATOM     29  S   UNL     1      -5.121  11.213  17.603  0.00  0.00    +0.000 S 
ATOM     30  C   UNL     1      -5.400  11.979  19.212  0.00  0.00    +0.000 C 
ENDBRANCH  26  29
ENDBRANCH  22  23
ENDBRANCH   6  22
TORSDOF 8
ENDMDL
MODEL 8
REMARK VINA RESULT:      -6.8      5.183      8.404
REMARK  Name = 
REMARK  10 active torsions:
REMARK  status: ('A' for Active; 'I' for Inactive)
REMARK    1  A    between atoms: C_1  and  C_2
REMARK    2  A    between atoms: C_2  and  C_3
REMARK    3  A    between atoms: C_5  and  C_6
REMARK    4  A    between atoms: C_11  and  C_12
REMARK    5  A    between atoms: C_12  and  C_13
REMARK    6  A    between atoms: C_16  and  S_17
REMARK    7  A    between atoms: S_17  and  C_18
REMARK    8  A    between atoms: C_22  and  O_23
REMARK    9  A    between atoms: C_24  and  O_25
REMARK   10  A    between atoms: C_26  and  O_27
REMARK                            x       y       z     vdW  Elec       q    Type
REMARK                         _______ _______ _______ _____ _____    ______ ____
ROOT
ATOM      1  C   UNL     1       2.411   7.020  19.667  0.00  0.00    +0.000 A 
ATOM      2  C   UNL     1       1.963   7.027  20.991  0.00  0.00    +0.000 A 
ATOM      3  C   UNL     1       1.131   8.050  21.441  0.00  0.00    +0.000 A 
ATOM      4  C   UNL     1       0.746   9.089  20.581  0.00  0.00    +0.000 A 
ATOM      5 CL   UNL     1      -0.356  10.261  21.203  0.00  0.00    +0.000 Cl
ATOM      6  C   UNL     1       1.237   9.146  19.267  0.00  0.00    +0.000 A 
ATOM      7  C   UNL     1       2.049   8.086  18.823  0.00  0.00    +0.000 A 
ENDROOT
BRANCH   1  10
ATOM      8  C   UNL     1       5.170   5.441  17.789  0.00  0.00    +0.000 C 
ATOM      9  O   UNL     1       4.293   6.410  18.355  0.00  0.00    +0.000 OA
ATOM     10  C   UNL     1       3.241   5.859  19.149  0.00  0.00    +0.000 C 
ATOM     11  C   UNL     1       2.369   4.872  18.336  0.00  0.00    +0.000 C 
ATOM     12  C   UNL     1       3.263   3.841  17.614  0.00  0.00    +0.000 C 
ATOM     13  C   UNL     1       4.390   4.530  16.832  0.00  0.00    +0.000 C 
BRANCH   8  15
ATOM     14  C   UNL     1       7.389   6.621  18.054  0.00  0.00    +0.000 C 
ATOM     15  C   UNL     1       6.300   6.196  17.077  0.00  0.00    +0.000 C 
ENDBRANCH   8  15
BRANCH  11  16
ATOM     16  O   UNL     1       1.420   4.201  19.178  0.00  0.00    +0.000 OA
ATOM     17  H   UNL     1       0.878   4.864  19.637  0.00  0.00    +0.000 HD
ENDBRANCH  11  16
BRANCH  12  18
ATOM     18  O   UNL     1       2.477   3.011  16.746  0.00  0.00    +0.000 OA
ATOM     19  H   UNL     1       3.060   2.374  16.319  0.00  0.00    +0.000 HD
ENDBRANCH  12  18
BRANCH  13  20
ATOM     20  O   UNL     1       5.262   3.573  16.226  0.00  0.00    +0.000 OA
ATOM     21  H   UNL     1       5.430   3.839  15.306  0.00  0.00    +0.000 HD
ENDBRANCH  13  20
ENDBRANCH   1  10
BRANCH   6  22
ATOM     22  C   UNL     1       0.969  10.293  18.310  0.00  0.00    +0.000 C 
BRANCH  22  23
ATOM     23  C   UNL     1      -0.480  10.585  18.068  0.00  0.00    +0.000 A 
ATOM     24  C   UNL     1      -1.330   9.654  17.510  0.00  0.00    +0.000 A 
ATOM     25  N   UNL     1      -2.612   9.904  17.193  0.00  0.00    +0.000 NA
ATOM     26  C   UNL     1      -3.068  11.139  17.448  0.00  0.00    +0.000 A 
ATOM     27  N   UNL     1      -2.355  12.105  18.056  0.00  0.00    +0.000 NA
ATOM     28  C   UNL     1      -1.074  11.799  18.354  0.00  0.00    +0.000 A 
BRANCH  26  29
ATOM     29  S   UNL     1      -4.673  11.516  16.788  0.00  0.00    +0.000 S 
ATOM     30  C   UNL     1      -5.717  11.099  18.198  0.00  0.00    +0.000 C 
ENDBRANCH  26  29
ENDBRANCH  22  23
ENDBRANCH   6  22
TORSDOF 8
ENDMDL
MODEL 9
REMARK VINA RESULT:      -6.7      5.411      8.519
REMARK  Name = 
REMARK  10 active torsions:
REMARK  status: ('A' for Active; 'I' for Inactive)
REMARK    1  A    between atoms: C_1  and  C_2
REMARK    2  A    between atoms: C_2  and  C_3
REMARK    3  A    between atoms: C_5  and  C_6
REMARK    4  A    between atoms: C_11  and  C_12
REMARK    5  A    between atoms: C_12  and  C_13
REMARK    6  A    between atoms: C_16  and  S_17
REMARK    7  A    between atoms: S_17  and  C_18
REMARK    8  A    between atoms: C_22  and  O_23
REMARK    9  A    between atoms: C_24  and  O_25
REMARK   10  A    between atoms: C_26  and  O_27
REMARK                            x       y       z     vdW  Elec       q    Type
REMARK                         _______ _______ _______ _____ _____    ______ ____
ROOT
ATOM      1  C   UNL     1       1.885   7.604  19.587  0.00  0.00    +0.000 A 
ATOM      2  C   UNL     1       1.855   7.627  20.985  0.00  0.00    +0.000 A 
ATOM      3  C   UNL     1       1.282   8.706  21.653  0.00  0.00    +0.000 A 
ATOM      4  C   UNL     1       0.744   9.786  20.938  0.00  0.00    +0.000 A 
ATOM      5 CL   UNL     1      -0.023  11.034  21.850  0.00  0.00    +0.000 Cl
ATOM      6  C   UNL     1       0.823   9.823  19.537  0.00  0.00    +0.000 A 
ATOM      7  C   UNL     1       1.375   8.709  18.881  0.00  0.00    +0.000 A 
ENDROOT
BRANCH   1  10
ATOM      8  C   UNL     1       3.001   4.098  19.275  0.00  0.00    +0.000 C 
ATOM      9  O   UNL     1       2.507   5.324  19.807  0.00  0.00    +0.000 OA
ATOM     10  C   UNL     1       2.425   6.387  18.857  0.00  0.00    +0.000 C 
ATOM     11  C   UNL     1       3.802   6.689  18.218  0.00  0.00    +0.000 C 
ATOM     12  C   UNL     1       4.446   5.385  17.699  0.00  0.00    +0.000 C 
ATOM     13  C   UNL     1       4.439   4.292  18.776  0.00  0.00    +0.000 C 
BRANCH   8  15
ATOM     14  C   UNL     1       2.025   3.510  21.530  0.00  0.00    +0.000 C 
ATOM     15  C   UNL     1       2.911   3.041  20.382  0.00  0.00    +0.000 C 
ENDBRANCH   8  15
BRANCH  11  16
ATOM     16  O   UNL     1       3.683   7.642  17.151  0.00  0.00    +0.000 OA
ATOM     17  H   UNL     1       4.570   7.872  16.829  0.00  0.00    +0.000 HD
ENDBRANCH  11  16
BRANCH  12  18
ATOM     18  O   UNL     1       5.781   5.632  17.233  0.00  0.00    +0.000 OA
ATOM     19  H   UNL     1       6.289   6.027  17.950  0.00  0.00    +0.000 HD
ENDBRANCH  12  18
BRANCH  13  20
ATOM     20  O   UNL     1       4.966   3.062  18.271  0.00  0.00    +0.000 OA
ATOM     21  H   UNL     1       4.234   2.524  17.927  0.00  0.00    +0.000 HD
ENDBRANCH  13  20
ENDBRANCH   1  10
BRANCH   6  22
ATOM     22  C   UNL     1       0.375  11.003  18.692  0.00  0.00    +0.000 C 
BRANCH  22  23
ATOM     23  C   UNL     1      -1.103  11.093  18.470  0.00  0.00    +0.000 A 
ATOM     24  C   UNL     1      -1.734  10.395  17.462  0.00  0.00    +0.000 A 
ATOM     25  N   UNL     1      -3.041  10.516  17.170  0.00  0.00    +0.000 NA
ATOM     26  C   UNL     1      -3.751  11.370  17.921  0.00  0.00    +0.000 A 
ATOM     27  N   UNL     1      -3.261  12.048  18.976  0.00  0.00    +0.000 NA
ATOM     28  C   UNL     1      -1.943  11.887  19.224  0.00  0.00    +0.000 A 
BRANCH  26  29
ATOM     29  S   UNL     1      -5.401  11.701  17.354  0.00  0.00    +0.000 S 
ATOM     30  C   UNL     1      -6.361  10.764  18.561  0.00  0.00    +0.000 C 
ENDBRANCH  26  29
ENDBRANCH  22  23
ENDBRANCH   6  22
TORSDOF 8
ENDMDL
