MODEL 1
REMARK VINA RESULT:      -6.8      0.000      0.000
REMARK  Name = 
REMARK  14 active torsions:
REMARK  status: ('A' for Active; 'I' for Inactive)
REMARK    1  A    between atoms: C_1  and  C_2
REMARK    2  A    between atoms: C_2  and  C_3
REMARK    3  A    between atoms: C_3  and  C_4
REMARK    4  A    between atoms: C_3  and  N_5
REMARK    5  A    between atoms: N_5  and  C_6
REMARK    6  A    between atoms: N_5  and  C_23
REMARK    7  A    between atoms: C_6  and  C_7
REMARK    8  A    between atoms: C_7  and  O_8
REMARK    9  A    between atoms: C_7  and  C_9
REMARK   10  A    between atoms: N_14  and  C_15
REMARK   11  A    between atoms: C_15  and  C_16
REMARK   12  A    between atoms: C_23  and  C_24
REMARK   13  A    between atoms: C_23  and  C_25
REMARK   14  A    between atoms: C_25  and  C_26
REMARK                            x       y       z     vdW  Elec       q    Type
REMARK                         _______ _______ _______ _____ _____    ______ ____
ROOT
ATOM      1  C   UNL     1       1.483   4.551  19.298  0.00  0.00    +0.000 C 
ATOM      2  C   UNL     1       0.998   3.262  19.991  0.00  0.00    +0.000 C 
ATOM      3  C   UNL     1       1.498   2.094  19.159  0.00  0.00    +0.000 C 
ATOM      4  C   UNL     1       2.610   2.669  18.344  0.00  0.00    +0.000 C 
ATOM      5  O   UNL     1       3.363   2.010  17.642  0.00  0.00    +0.000 OA
ATOM      6  N   UNL     1       2.616   4.063  18.478  0.00  0.00    +0.000 N 
ENDROOT
BRANCH   1   7
ATOM      7  C   UNL     1       1.772   5.596  20.423  0.00  0.00    +0.000 C 
BRANCH   7   8
ATOM      8  O   UNL     1       2.839   5.128  21.269  0.00  0.00    +0.000 OA
ATOM      9  H   UNL     1       2.436   4.520  21.919  0.00  0.00    +0.000 HD
ENDBRANCH   7   8
BRANCH   7  10
ATOM     10  C   UNL     1       2.078   7.064  20.025  0.00  0.00    +0.000 C 
BRANCH  10  11
ATOM     11  N   UNL     1       1.030   8.096  20.201  0.00  0.00    +0.000 NA
BRANCH  11  12
ATOM     12  C   UNL     1       0.771   8.458  21.620  0.00  0.00    +0.000 C 
ATOM     13  C   UNL     1       1.838   9.351  22.282  0.00  0.00    +0.000 C 
BRANCH  12  15
ATOM     14  C   UNL     1      -0.630  10.048  23.118  0.00  0.00    +0.000 C 
ATOM     15  C   UNL     1      -0.623   9.031  21.985  0.00  0.00    +0.000 C 
ENDBRANCH  12  15
ENDBRANCH  11  12
BRANCH  11  16
ATOM     16  C   UNL     1       1.076   9.205  19.207  0.00  0.00    +0.000 C 
ATOM     17  C   UNL     1       2.133   8.970  18.104  0.00  0.00    +0.000 C 
BRANCH  16  18
ATOM     18  C   UNL     1       1.160  10.687  19.668  0.00  0.00    +0.000 C 
ATOM     19  C   UNL     1      -0.008  11.608  19.342  0.00  0.00    +0.000 C 
ENDBRANCH  16  18
ENDBRANCH  11  16
ENDBRANCH  10  11
ENDBRANCH   7  10
ENDBRANCH   1   7
BRANCH   6  20
ATOM     20  C   UNL     1       3.439   4.858  17.575  0.00  0.00    +0.000 C 
BRANCH  20  21
ATOM     21  C   UNL     1       4.926   4.980  17.856  0.00  0.00    +0.000 A 
ATOM     22  C   UNL     1       5.450   5.419  19.083  0.00  0.00    +0.000 A 
ATOM     23  C   UNL     1       6.833   5.452  19.311  0.00  0.00    +0.000 A 
ATOM     24  C   UNL     1       7.726   5.072  18.313  0.00  0.00    +0.000 A 
ATOM     25  C   UNL     1       7.234   4.689  17.070  0.00  0.00    +0.000 A 
ATOM     26  C   UNL     1       5.852   4.653  16.841  0.00  0.00    +0.000 A 
ATOM     27 CL   UNL     1       5.337   4.202  15.250  0.00  0.00    +0.000 Cl
ENDBRANCH  20  21
ENDBRANCH   6  20
TORSDOF 10
ENDMDL
MODEL 2
REMARK VINA RESULT:      -6.7      3.537      8.165
REMARK  Name = 
REMARK  14 active torsions:
REMARK  status: ('A' for Active; 'I' for Inactive)
REMARK    1  A    between atoms: C_1  and  C_2
REMARK    2  A    between atoms: C_2  and  C_3
REMARK    3  A    between atoms: C_3  and  C_4
REMARK    4  A    between atoms: C_3  and  N_5
REMARK    5  A    between atoms: N_5  and  C_6
REMARK    6  A    between atoms: N_5  and  C_23
REMARK    7  A    between atoms: C_6  and  C_7
REMARK    8  A    between atoms: C_7  and  O_8
REMARK    9  A    between atoms: C_7  and  C_9
REMARK   10  A    between atoms: N_14  and  C_15
REMARK   11  A    between atoms: C_15  and  C_16
REMARK   12  A    between atoms: C_23  and  C_24
REMARK   13  A    between atoms: C_23  and  C_25
REMARK   14  A    between atoms: C_25  and  C_26
REMARK                            x       y       z     vdW  Elec       q    Type
REMARK                         _______ _______ _______ _____ _____    ______ ____
ROOT
ATOM      1  C   UNL     1       1.602   9.125  20.103  0.00  0.00    +0.000 C 
ATOM      2  C   UNL     1       1.470   8.302  21.399  0.00  0.00    +0.000 C 
ATOM      3  C   UNL     1       0.571   9.089  22.336  0.00  0.00    +0.000 C 
ATOM      4  C   UNL     1      -0.157  10.038  21.441  0.00  0.00    +0.000 C 
ATOM      5  O   UNL     1      -1.080  10.755  21.800  0.00  0.00    +0.000 OA
ATOM      6  N   UNL     1       0.412  10.005  20.162  0.00  0.00    +0.000 N 
ENDROOT
BRANCH   1   7
ATOM      7  C   UNL     1       1.720   8.107  18.922  0.00  0.00    +0.000 C 
BRANCH   7   8
ATOM      8  O   UNL     1       2.162   8.784  17.731  0.00  0.00    +0.000 OA
ATOM      9  H   UNL     1       2.941   9.315  17.982  0.00  0.00    +0.000 HD
ENDBRANCH   7   8
BRANCH   7  10
ATOM     10  C   UNL     1       2.590   6.836  19.110  0.00  0.00    +0.000 C 
BRANCH  10  11
ATOM     11  N   UNL     1       2.753   5.897  17.976  0.00  0.00    +0.000 NA
BRANCH  11  12
ATOM     12  C   UNL     1       4.166   5.706  17.550  0.00  0.00    +0.000 C 
ATOM     13  C   UNL     1       4.678   6.697  16.488  0.00  0.00    +0.000 C 
BRANCH  12  15
ATOM     14  C   UNL     1       5.508   4.173  19.158  0.00  0.00    +0.000 C 
ATOM     15  C   UNL     1       5.251   5.585  18.652  0.00  0.00    +0.000 C 
ENDBRANCH  12  15
ENDBRANCH  11  12
BRANCH  11  16
ATOM     16  C   UNL     1       1.885   4.687  18.041  0.00  0.00    +0.000 C 
ATOM     17  C   UNL     1       1.545   4.278  19.492  0.00  0.00    +0.000 C 
BRANCH  16  18
ATOM     18  C   UNL     1       2.238   3.408  17.233  0.00  0.00    +0.000 C 
ATOM     19  C   UNL     1       2.696   2.176  18.002  0.00  0.00    +0.000 C 
ENDBRANCH  16  18
ENDBRANCH  11  16
ENDBRANCH  10  11
ENDBRANCH   7  10
ENDBRANCH   1   7
BRANCH   6  20
ATOM     20  C   UNL     1       0.044  11.032  19.196  0.00  0.00    +0.000 C 
BRANCH  20  21
ATOM     21  C   UNL     1      -1.240  10.863  18.402  0.00  0.00    +0.000 A 
ATOM     22  C   UNL     1      -1.408   9.900  17.394  0.00  0.00    +0.000 A 
ATOM     23  C   UNL     1      -2.636   9.745  16.736  0.00  0.00    +0.000 A 
ATOM     24  C   UNL     1      -3.718  10.561  17.052  0.00  0.00    +0.000 A 
ATOM     25  C   UNL     1      -3.560  11.561  18.005  0.00  0.00    +0.000 A 
ATOM     26  C   UNL     1      -2.334  11.716  18.665  0.00  0.00    +0.000 A 
ATOM     27 CL   UNL     1      -2.223  13.013  19.808  0.00  0.00    +0.000 Cl
ENDBRANCH  20  21
ENDBRANCH   6  20
TORSDOF 10
ENDMDL
MODEL 3
REMARK VINA RESULT:      -6.6      0.728      2.133
REMARK  Name = 
REMARK  14 active torsions:
REMARK  status: ('A' for Active; 'I' for Inactive)
REMARK    1  A    between atoms: C_1  and  C_2
REMARK    2  A    between atoms: C_2  and  C_3
REMARK    3  A    between atoms: C_3  and  C_4
REMARK    4  A    between atoms: C_3  and  N_5
REMARK    5  A    between atoms: N_5  and  C_6
REMARK    6  A    between atoms: N_5  and  C_23
REMARK    7  A    between atoms: C_6  and  C_7
REMARK    8  A    between atoms: C_7  and  O_8
REMARK    9  A    between atoms: C_7  and  C_9
REMARK   10  A    between atoms: N_14  and  C_15
REMARK   11  A    between atoms: C_15  and  C_16
REMARK   12  A    between atoms: C_23  and  C_24
REMARK   13  A    between atoms: C_23  and  C_25
REMARK   14  A    between atoms: C_25  and  C_26
REMARK                            x       y       z     vdW  Elec       q    Type
REMARK                         _______ _______ _______ _____ _____    ______ ____
ROOT
ATOM      1  C   UNL     1       1.574   4.504  19.147  0.00  0.00    +0.000 C 
ATOM      2  C   UNL     1       1.089   3.403  20.110  0.00  0.00    +0.000 C 
ATOM      3  C   UNL     1       1.641   2.085  19.593  0.00  0.00    +0.000 C 
ATOM      4  C   UNL     1       2.769   2.482  18.698  0.00  0.00    +0.000 C 
ATOM      5  O   UNL     1       3.559   1.696  18.195  0.00  0.00    +0.000 OA
ATOM      6  N   UNL     1       2.744   3.867  18.500  0.00  0.00    +0.000 N 
ENDROOT
BRANCH   1   7
ATOM      7  C   UNL     1       1.803   5.793  20.002  0.00  0.00    +0.000 C 
BRANCH   7   8
ATOM      8  O   UNL     1       2.995   5.651  20.797  0.00  0.00    +0.000 OA
ATOM      9  H   UNL     1       3.679   5.273  20.213  0.00  0.00    +0.000 HD
ENDBRANCH   7   8
BRANCH   7  10
ATOM     10  C   UNL     1       1.857   7.169  19.287  0.00  0.00    +0.000 C 
BRANCH  10  11
ATOM     11  N   UNL     1       1.724   8.407  20.088  0.00  0.00    +0.000 NA
BRANCH  11  12
ATOM     12  C   UNL     1       1.441   9.623  19.279  0.00  0.00    +0.000 C 
ATOM     13  C   UNL     1       1.893   9.560  17.808  0.00  0.00    +0.000 C 
BRANCH  12  15
ATOM     14  C   UNL     1      -0.788  10.046  18.020  0.00  0.00    +0.000 C 
ATOM     15  C   UNL     1       0.002  10.202  19.311  0.00  0.00    +0.000 C 
ENDBRANCH  12  15
ENDBRANCH  11  12
BRANCH  11  16
ATOM     16  C   UNL     1       0.974   8.243  21.366  0.00  0.00    +0.000 C 
ATOM     17  C   UNL     1      -0.531   7.970  21.140  0.00  0.00    +0.000 C 
BRANCH  16  18
ATOM     18  C   UNL     1       1.125   9.274  22.518  0.00  0.00    +0.000 C 
ATOM     19  C   UNL     1      -0.120   9.656  23.308  0.00  0.00    +0.000 C 
ENDBRANCH  16  18
ENDBRANCH  11  16
ENDBRANCH  10  11
ENDBRANCH   7  10
ENDBRANCH   1   7
BRANCH   6  20
ATOM     20  C   UNL     1       3.582   4.449  17.459  0.00  0.00    +0.000 C 
BRANCH  20  21
ATOM     21  C   UNL     1       5.040   4.741  17.771  0.00  0.00    +0.000 A 
ATOM     22  C   UNL     1       5.480   5.275  18.993  0.00  0.00    +0.000 A 
ATOM     23  C   UNL     1       6.844   5.466  19.252  0.00  0.00    +0.000 A 
ATOM     24  C   UNL     1       7.800   5.148  18.291  0.00  0.00    +0.000 A 
ATOM     25  C   UNL     1       7.387   4.672  17.052  0.00  0.00    +0.000 A 
ATOM     26  C   UNL     1       6.023   4.480  16.792  0.00  0.00    +0.000 A 
ATOM     27 CL   UNL     1       5.604   3.920  15.207  0.00  0.00    +0.000 Cl
ENDBRANCH  20  21
ENDBRANCH   6  20
TORSDOF 10
ENDMDL
MODEL 4
REMARK VINA RESULT:      -6.6      2.933      5.523
REMARK  Name = 
REMARK  14 active torsions:
REMARK  status: ('A' for Active; 'I' for Inactive)
REMARK    1  A    between atoms: C_1  and  C_2
REMARK    2  A    between atoms: C_2  and  C_3
REMARK    3  A    between atoms: C_3  and  C_4
REMARK    4  A    between atoms: C_3  and  N_5
REMARK    5  A    between atoms: N_5  and  C_6
REMARK    6  A    between atoms: N_5  and  C_23
REMARK    7  A    between atoms: C_6  and  C_7
REMARK    8  A    between atoms: C_7  and  O_8
REMARK    9  A    between atoms: C_7  and  C_9
REMARK   10  A    between atoms: N_14  and  C_15
REMARK   11  A    between atoms: C_15  and  C_16
REMARK   12  A    between atoms: C_23  and  C_24
REMARK   13  A    between atoms: C_23  and  C_25
REMARK   14  A    between atoms: C_25  and  C_26
REMARK                            x       y       z     vdW  Elec       q    Type
REMARK                         _______ _______ _______ _____ _____    ______ ____
ROOT
ATOM      1  C   UNL     1       6.168   4.325  17.064  0.00  0.00    +0.000 C 
ATOM      2  C   UNL     1       6.741   4.572  18.473  0.00  0.00    +0.000 C 
ATOM      3  C   UNL     1       7.641   5.792  18.381  0.00  0.00    +0.000 C 
ATOM      4  C   UNL     1       7.205   6.479  17.128  0.00  0.00    +0.000 C 
ATOM      5  O   UNL     1       7.598   7.581  16.774  0.00  0.00    +0.000 OA
ATOM      6  N   UNL     1       6.328   5.650  16.420  0.00  0.00    +0.000 N 
ENDROOT
BRANCH   1   7
ATOM      7  C   UNL     1       4.725   3.754  17.248  0.00  0.00    +0.000 C 
BRANCH   7   8
ATOM      8  O   UNL     1       4.692   2.852  18.370  0.00  0.00    +0.000 OA
ATOM      9  H   UNL     1       4.877   3.386  19.166  0.00  0.00    +0.000 HD
ENDBRANCH   7   8
BRANCH   7  10
ATOM     10  C   UNL     1       3.537   4.743  17.385  0.00  0.00    +0.000 C 
BRANCH  10  11
ATOM     11  N   UNL     1       3.166   5.249  18.726  0.00  0.00    +0.000 NA
BRANCH  11  12
ATOM     12  C   UNL     1       3.292   6.724  18.871  0.00  0.00    +0.000 C 
ATOM     13  C   UNL     1       3.660   7.488  17.584  0.00  0.00    +0.000 C 
BRANCH  12  15
ATOM     14  C   UNL     1       1.653   8.735  18.836  0.00  0.00    +0.000 C 
ATOM     15  C   UNL     1       2.136   7.490  19.565  0.00  0.00    +0.000 C 
ENDBRANCH  12  15
ENDBRANCH  11  12
BRANCH  11  16
ATOM     16  C   UNL     1       1.966   4.600  19.326  0.00  0.00    +0.000 C 
ATOM     17  C   UNL     1       2.264   3.955  20.699  0.00  0.00    +0.000 C 
BRANCH  16  18
ATOM     18  C   UNL     1       1.090   3.621  18.497  0.00  0.00    +0.000 C 
ATOM     19  C   UNL     1       1.055   2.157  18.915  0.00  0.00    +0.000 C 
ENDBRANCH  16  18
ENDBRANCH  11  16
ENDBRANCH  10  11
ENDBRANCH   7  10
ENDBRANCH   1   7
BRANCH   6  20
ATOM     20  C   UNL     1       5.980   5.993  15.047  0.00  0.00    +0.000 C 
BRANCH  20  21
ATOM     21  C   UNL     1       6.076   4.920  13.977  0.00  0.00    +0.000 A 
ATOM     22  C   UNL     1       5.075   3.962  13.747  0.00  0.00    +0.000 A 
ATOM     23  C   UNL     1       5.187   3.032  12.704  0.00  0.00    +0.000 A 
ATOM     24  C   UNL     1       6.310   3.021  11.881  0.00  0.00    +0.000 A 
ATOM     25  C   UNL     1       7.341   3.921  12.125  0.00  0.00    +0.000 A 
ATOM     26  C   UNL     1       7.230   4.852  13.166  0.00  0.00    +0.000 A 
ATOM     27 CL   UNL     1       8.582   5.905  13.416  0.00  0.00    +0.000 Cl
ENDBRANCH  20  21
ENDBRANCH   6  20
TORSDOF 10
ENDMDL
MODEL 5
REMARK VINA RESULT:      -6.6      2.611      4.948
REMARK  Name = 
REMARK  14 active torsions:
REMARK  status: ('A' for Active; 'I' for Inactive)
REMARK    1  A    between atoms: C_1  and  C_2
REMARK    2  A    between atoms: C_2  and  C_3
REMARK    3  A    between atoms: C_3  and  C_4
REMARK    4  A    between atoms: C_3  and  N_5
REMARK    5  A    between atoms: N_5  and  C_6
REMARK    6  A    between atoms: N_5  and  C_23
REMARK    7  A    between atoms: C_6  and  C_7
REMARK    8  A    between atoms: C_7  and  O_8
REMARK    9  A    between atoms: C_7  and  C_9
REMARK   10  A    between atoms: N_14  and  C_15
REMARK   11  A    between atoms: C_15  and  C_16
REMARK   12  A    between atoms: C_23  and  C_24
REMARK   13  A    between atoms: C_23  and  C_25
REMARK   14  A    between atoms: C_25  and  C_26
REMARK                            x       y       z     vdW  Elec       q    Type
REMARK                         _______ _______ _______ _____ _____    ______ ____
ROOT
ATOM      1  C   UNL     1       6.344   4.863  18.145  0.00  0.00    +0.000 C 
ATOM      2  C   UNL     1       7.230   5.250  19.345  0.00  0.00    +0.000 C 
ATOM      3  C   UNL     1       8.080   6.431  18.908  0.00  0.00    +0.000 C 
ATOM      4  C   UNL     1       7.360   6.985  17.722  0.00  0.00    +0.000 C 
ATOM      5  O   UNL     1       7.656   8.032  17.163  0.00  0.00    +0.000 OA
ATOM      6  N   UNL     1       6.344   6.103  17.336  0.00  0.00    +0.000 N 
ENDROOT
BRANCH   1   7
ATOM      7  C   UNL     1       4.986   4.349  18.724  0.00  0.00    +0.000 C 
BRANCH   7   8
ATOM      8  O   UNL     1       5.208   3.185  19.542  0.00  0.00    +0.000 OA
ATOM      9  H   UNL     1       4.807   2.430  19.071  0.00  0.00    +0.000 HD
ENDBRANCH   7   8
BRANCH   7  10
ATOM     10  C   UNL     1       4.086   5.334  19.516  0.00  0.00    +0.000 C 
BRANCH  10  11
ATOM     11  N   UNL     1       2.666   5.491  19.125  0.00  0.00    +0.000 NA
BRANCH  11  12
ATOM     12  C   UNL     1       1.747   4.528  19.789  0.00  0.00    +0.000 C 
ATOM     13  C   UNL     1       1.336   3.310  18.939  0.00  0.00    +0.000 C 
BRANCH  12  15
ATOM     14  C   UNL     1       1.492   2.690  21.603  0.00  0.00    +0.000 C 
ATOM     15  C   UNL     1       2.124   4.015  21.204  0.00  0.00    +0.000 C 
ENDBRANCH  12  15
ENDBRANCH  11  12
BRANCH  11  16
ATOM     16  C   UNL     1       2.208   6.905  19.004  0.00  0.00    +0.000 C 
ATOM     17  C   UNL     1       2.957   7.677  17.893  0.00  0.00    +0.000 C 
BRANCH  16  18
ATOM     18  C   UNL     1       2.095   7.818  20.255  0.00  0.00    +0.000 C 
ATOM     19  C   UNL     1       0.802   7.778  21.059  0.00  0.00    +0.000 C 
ENDBRANCH  16  18
ENDBRANCH  11  16
ENDBRANCH  10  11
ENDBRANCH   7  10
ENDBRANCH   1   7
BRANCH   6  20
ATOM     20  C   UNL     1       5.683   6.301  16.052  0.00  0.00    +0.000 C 
BRANCH  20  21
ATOM     21  C   UNL     1       6.112   5.450  14.870  0.00  0.00    +0.000 A 
ATOM     22  C   UNL     1       7.180   5.783  14.021  0.00  0.00    +0.000 A 
ATOM     23  C   UNL     1       7.575   4.929  12.982  0.00  0.00    +0.000 A 
ATOM     24  C   UNL     1       6.898   3.734  12.750  0.00  0.00    +0.000 A 
ATOM     25  C   UNL     1       5.801   3.410  13.539  0.00  0.00    +0.000 A 
ATOM     26  C   UNL     1       5.406   4.262  14.580  0.00  0.00    +0.000 A 
ATOM     27 CL   UNL     1       4.005   3.792  15.483  0.00  0.00    +0.000 Cl
ENDBRANCH  20  21
ENDBRANCH   6  20
TORSDOF 10
ENDMDL
MODEL 6
REMARK VINA RESULT:      -6.6      2.724      6.516
REMARK  Name = 
REMARK  14 active torsions:
REMARK  status: ('A' for Active; 'I' for Inactive)
REMARK    1  A    between atoms: C_1  and  C_2
REMARK    2  A    between atoms: C_2  and  C_3
REMARK    3  A    between atoms: C_3  and  C_4
REMARK    4  A    between atoms: C_3  and  N_5
REMARK    5  A    between atoms: N_5  and  C_6
REMARK    6  A    between atoms: N_5  and  C_23
REMARK    7  A    between atoms: C_6  and  C_7
REMARK    8  A    between atoms: C_7  and  O_8
REMARK    9  A    between atoms: C_7  and  C_9
REMARK   10  A    between atoms: N_14  and  C_15
REMARK   11  A    between atoms: C_15  and  C_16
REMARK   12  A    between atoms: C_23  and  C_24
REMARK   13  A    between atoms: C_23  and  C_25
REMARK   14  A    between atoms: C_25  and  C_26
REMARK                            x       y       z     vdW  Elec       q    Type
REMARK                         _______ _______ _______ _____ _____    ______ ____
ROOT
ATOM      1  C   UNL     1       3.706   4.022  19.309  0.00  0.00    +0.000 C 
ATOM      2  C   UNL     1       3.962   3.056  18.135  0.00  0.00    +0.000 C 
ATOM      3  C   UNL     1       2.644   2.892  17.399  0.00  0.00    +0.000 C 
ATOM      4  C   UNL     1       1.833   4.073  17.823  0.00  0.00    +0.000 C 
ATOM      5  O   UNL     1       0.752   4.377  17.339  0.00  0.00    +0.000 OA
ATOM      6  N   UNL     1       2.480   4.731  18.875  0.00  0.00    +0.000 N 
ENDROOT
BRANCH   1   7
ATOM      7  C   UNL     1       5.015   4.851  19.515  0.00  0.00    +0.000 C 
BRANCH   7   8
ATOM      8  O   UNL     1       6.136   3.966  19.692  0.00  0.00    +0.000 OA
ATOM      9  H   UNL     1       6.935   4.527  19.729  0.00  0.00    +0.000 HD
ENDBRANCH   7   8
BRANCH   7  10
ATOM     10  C   UNL     1       5.402   5.920  18.458  0.00  0.00    +0.000 C 
BRANCH  10  11
ATOM     11  N   UNL     1       6.560   5.673  17.569  0.00  0.00    +0.000 NA
BRANCH  11  12
ATOM     12  C   UNL     1       6.185   5.282  16.184  0.00  0.00    +0.000 C 
ATOM     13  C   UNL     1       5.191   6.221  15.476  0.00  0.00    +0.000 C 
BRANCH  12  15
ATOM     14  C   UNL     1       6.893   4.814  13.731  0.00  0.00    +0.000 C 
ATOM     15  C   UNL     1       7.325   4.954  15.183  0.00  0.00    +0.000 C 
ENDBRANCH  12  15
ENDBRANCH  11  12
BRANCH  11  16
ATOM     16  C   UNL     1       7.685   6.638  17.730  0.00  0.00    +0.000 C 
ATOM     17  C   UNL     1       8.382   6.514  19.104  0.00  0.00    +0.000 C 
BRANCH  16  18
ATOM     18  C   UNL     1       7.495   8.145  17.402  0.00  0.00    +0.000 C 
ATOM     19  C   UNL     1       8.386   9.153  18.116  0.00  0.00    +0.000 C 
ENDBRANCH  16  18
ENDBRANCH  11  16
ENDBRANCH  10  11
ENDBRANCH   7  10
ENDBRANCH   1   7
BRANCH   6  20
ATOM     20  C   UNL     1       1.757   5.750  19.625  0.00  0.00    +0.000 C 
BRANCH  20  21
ATOM     21  C   UNL     1       1.809   7.189  19.142  0.00  0.00    +0.000 A 
ATOM     22  C   UNL     1       2.386   7.578  17.922  0.00  0.00    +0.000 A 
ATOM     23  C   UNL     1       2.351   8.913  17.495  0.00  0.00    +0.000 A 
ATOM     24  C   UNL     1       1.759   9.895  18.284  0.00  0.00    +0.000 A 
ATOM     25  C   UNL     1       1.231   9.545  19.522  0.00  0.00    +0.000 A 
ATOM     26  C   UNL     1       1.265   8.211  19.950  0.00  0.00    +0.000 A 
ATOM     27 CL   UNL     1       0.618   7.881  21.523  0.00  0.00    +0.000 Cl
ENDBRANCH  20  21
ENDBRANCH   6  20
TORSDOF 10
ENDMDL
MODEL 7
REMARK VINA RESULT:      -6.6      2.579      6.610
REMARK  Name = 
REMARK  14 active torsions:
REMARK  status: ('A' for Active; 'I' for Inactive)
REMARK    1  A    between atoms: C_1  and  C_2
REMARK    2  A    between atoms: C_2  and  C_3
REMARK    3  A    between atoms: C_3  and  C_4
REMARK    4  A    between atoms: C_3  and  N_5
REMARK    5  A    between atoms: N_5  and  C_6
REMARK    6  A    between atoms: N_5  and  C_23
REMARK    7  A    between atoms: C_6  and  C_7
REMARK    8  A    between atoms: C_7  and  O_8
REMARK    9  A    between atoms: C_7  and  C_9
REMARK   10  A    between atoms: N_14  and  C_15
REMARK   11  A    between atoms: C_15  and  C_16
REMARK   12  A    between atoms: C_23  and  C_24
REMARK   13  A    between atoms: C_23  and  C_25
REMARK   14  A    between atoms: C_25  and  C_26
REMARK                            x       y       z     vdW  Elec       q    Type
REMARK                         _______ _______ _______ _____ _____    ______ ____
ROOT
ATOM      1  C   UNL     1       3.311   3.186  18.536  0.00  0.00    +0.000 C 
ATOM      2  C   UNL     1       2.204   2.152  18.254  0.00  0.00    +0.000 C 
ATOM      3  C   UNL     1       1.085   2.416  19.246  0.00  0.00    +0.000 C 
ATOM      4  C   UNL     1       1.327   3.814  19.713  0.00  0.00    +0.000 C 
ATOM      5  O   UNL     1       0.557   4.448  20.421  0.00  0.00    +0.000 OA
ATOM      6  N   UNL     1       2.575   4.252  19.255  0.00  0.00    +0.000 N 
ENDROOT
BRANCH   1   7
ATOM      7  C   UNL     1       3.976   3.533  17.164  0.00  0.00    +0.000 C 
BRANCH   7   8
ATOM      8  O   UNL     1       3.403   4.742  16.631  0.00  0.00    +0.000 OA
ATOM      9  H   UNL     1       2.678   4.999  17.233  0.00  0.00    +0.000 HD
ENDBRANCH   7   8
BRANCH   7  10
ATOM     10  C   UNL     1       5.521   3.653  17.087  0.00  0.00    +0.000 C 
BRANCH  10  11
ATOM     11  N   UNL     1       6.124   4.687  16.214  0.00  0.00    +0.000 NA
BRANCH  11  12
ATOM     12  C   UNL     1       7.100   5.569  16.909  0.00  0.00    +0.000 C 
ATOM     13  C   UNL     1       6.591   6.983  17.249  0.00  0.00    +0.000 C 
BRANCH  12  15
ATOM     14  C   UNL     1       7.631   5.816  19.437  0.00  0.00    +0.000 C 
ATOM     15  C   UNL     1       7.827   5.011  18.160  0.00  0.00    +0.000 C 
ENDBRANCH  12  15
ENDBRANCH  11  12
BRANCH  11  16
ATOM     16  C   UNL     1       6.478   4.215  14.845  0.00  0.00    +0.000 C 
ATOM     17  C   UNL     1       7.507   5.134  14.148  0.00  0.00    +0.000 C 
BRANCH  16  18
ATOM     18  C   UNL     1       5.374   3.838  13.820  0.00  0.00    +0.000 C 
ATOM     19  C   UNL     1       5.806   3.396  12.428  0.00  0.00    +0.000 C 
ENDBRANCH  16  18
ENDBRANCH  11  16
ENDBRANCH  10  11
ENDBRANCH   7  10
ENDBRANCH   1   7
BRANCH   6  20
ATOM     20  C   UNL     1       3.140   5.479  19.801  0.00  0.00    +0.000 C 
BRANCH  20  21
ATOM     21  C   UNL     1       2.729   6.808  19.192  0.00  0.00    +0.000 A 
ATOM     22  C   UNL     1       3.157   7.247  17.928  0.00  0.00    +0.000 A 
ATOM     23  C   UNL     1       2.696   8.455  17.385  0.00  0.00    +0.000 A 
ATOM     24  C   UNL     1       1.817   9.264  18.100  0.00  0.00    +0.000 A 
ATOM     25  C   UNL     1       1.424   8.880  19.377  0.00  0.00    +0.000 A 
ATOM     26  C   UNL     1       1.882   7.672  19.920  0.00  0.00    +0.000 A 
ATOM     27 CL   UNL     1       1.370   7.299  21.532  0.00  0.00    +0.000 Cl
ENDBRANCH  20  21
ENDBRANCH   6  20
TORSDOF 10
ENDMDL
MODEL 8
REMARK VINA RESULT:      -6.6      1.269      1.719
REMARK  Name = 
REMARK  14 active torsions:
REMARK  status: ('A' for Active; 'I' for Inactive)
REMARK    1  A    between atoms: C_1  and  C_2
REMARK    2  A    between atoms: C_2  and  C_3
REMARK    3  A    between atoms: C_3  and  C_4
REMARK    4  A    between atoms: C_3  and  N_5
REMARK    5  A    between atoms: N_5  and  C_6
REMARK    6  A    between atoms: N_5  and  C_23
REMARK    7  A    between atoms: C_6  and  C_7
REMARK    8  A    between atoms: C_7  and  O_8
REMARK    9  A    between atoms: C_7  and  C_9
REMARK   10  A    between atoms: N_14  and  C_15
REMARK   11  A    between atoms: C_15  and  C_16
REMARK   12  A    between atoms: C_23  and  C_24
REMARK   13  A    between atoms: C_23  and  C_25
REMARK   14  A    between atoms: C_25  and  C_26
REMARK                            x       y       z     vdW  Elec       q    Type
REMARK                         _______ _______ _______ _____ _____    ______ ____
ROOT
ATOM      1  C   UNL     1       2.129   4.511  19.167  0.00  0.00    +0.000 C 
ATOM      2  C   UNL     1       1.037   3.432  19.309  0.00  0.00    +0.000 C 
ATOM      3  C   UNL     1       1.682   2.100  18.967  0.00  0.00    +0.000 C 
ATOM      4  C   UNL     1       3.147   2.348  19.117  0.00  0.00    +0.000 C 
ATOM      5  O   UNL     1       4.003   1.477  19.061  0.00  0.00    +0.000 OA
ATOM      6  N   UNL     1       3.375   3.719  19.281  0.00  0.00    +0.000 N 
ENDROOT
BRANCH   1   7
ATOM      7  C   UNL     1       1.837   5.605  20.245  0.00  0.00    +0.000 C 
BRANCH   7   8
ATOM      8  O   UNL     1       2.538   5.294  21.463  0.00  0.00    +0.000 OA
ATOM      9  H   UNL     1       2.879   4.384  21.368  0.00  0.00    +0.000 HD
ENDBRANCH   7   8
BRANCH   7  10
ATOM     10  C   UNL     1       2.103   7.093  19.897  0.00  0.00    +0.000 C 
BRANCH  10  11
ATOM     11  N   UNL     1       1.034   8.092  20.125  0.00  0.00    +0.000 NA
BRANCH  11  12
ATOM     12  C   UNL     1       0.807   8.416  21.560  0.00  0.00    +0.000 C 
ATOM     13  C   UNL     1       1.901   9.271  22.228  0.00  0.00    +0.000 C 
BRANCH  12  15
ATOM     14  C   UNL     1      -0.533  10.023  23.095  0.00  0.00    +0.000 C 
ATOM     15  C   UNL     1      -0.570   9.003  21.966  0.00  0.00    +0.000 C 
ENDBRANCH  12  15
ENDBRANCH  11  12
BRANCH  11  16
ATOM     16  C   UNL     1       1.025   9.225  19.156  0.00  0.00    +0.000 C 
ATOM     17  C   UNL     1       2.138   9.103  18.090  0.00  0.00    +0.000 C 
BRANCH  16  18
ATOM     18  C   UNL     1       0.967  10.697  19.649  0.00  0.00    +0.000 C 
ATOM     19  C   UNL     1       1.665  11.762  18.814  0.00  0.00    +0.000 C 
ENDBRANCH  16  18
ENDBRANCH  11  16
ENDBRANCH  10  11
ENDBRANCH   7  10
ENDBRANCH   1   7
BRANCH   6  20
ATOM     20  C   UNL     1       4.738   4.228  19.183  0.00  0.00    +0.000 C 
BRANCH  20  21
ATOM     21  C   UNL     1       5.331   4.468  17.805  0.00  0.00    +0.000 A 
ATOM     22  C   UNL     1       4.723   4.041  16.614  0.00  0.00    +0.000 A 
ATOM     23  C   UNL     1       5.282   4.344  15.364  0.00  0.00    +0.000 A 
ATOM     24  C   UNL     1       6.473   5.061  15.276  0.00  0.00    +0.000 A 
ATOM     25  C   UNL     1       7.124   5.445  16.442  0.00  0.00    +0.000 A 
ATOM     26  C   UNL     1       6.565   5.144  17.691  0.00  0.00    +0.000 A 
ATOM     27 CL   UNL     1       7.470   5.630  19.086  0.00  0.00    +0.000 Cl
ENDBRANCH  20  21
ENDBRANCH   6  20
TORSDOF 10
ENDMDL
MODEL 9
REMARK VINA RESULT:      -6.5      3.576      8.210
REMARK  Name = 
REMARK  14 active torsions:
REMARK  status: ('A' for Active; 'I' for Inactive)
REMARK    1  A    between atoms: C_1  and  C_2
REMARK    2  A    between atoms: C_2  and  C_3
REMARK    3  A    between atoms: C_3  and  C_4
REMARK    4  A    between atoms: C_3  and  N_5
REMARK    5  A    between atoms: N_5  and  C_6
REMARK    6  A    between atoms: N_5  and  C_23
REMARK    7  A    between atoms: C_6  and  C_7
REMARK    8  A    between atoms: C_7  and  O_8
REMARK    9  A    between atoms: C_7  and  C_9
REMARK   10  A    between atoms: N_14  and  C_15
REMARK   11  A    between atoms: C_15  and  C_16
REMARK   12  A    between atoms: C_23  and  C_24
REMARK   13  A    between atoms: C_23  and  C_25
REMARK   14  A    between atoms: C_25  and  C_26
REMARK                            x       y       z     vdW  Elec       q    Type
REMARK                         _______ _______ _______ _____ _____    ______ ____
ROOT
ATOM      1  C   UNL     1       1.771   9.080  19.598  0.00  0.00    +0.000 C 
ATOM      2  C   UNL     1       1.738   8.028  20.723  0.00  0.00    +0.000 C 
ATOM      3  C   UNL     1       0.775   8.538  21.781  0.00  0.00    +0.000 C 
ATOM      4  C   UNL     1      -0.056   9.553  21.066  0.00  0.00    +0.000 C 
ATOM      5  O   UNL     1      -1.042  10.097  21.543  0.00  0.00    +0.000 OA
ATOM      6  N   UNL     1       0.499   9.809  19.807  0.00  0.00    +0.000 N 
ENDROOT
BRANCH   1   7
ATOM      7  C   UNL     1       1.978   8.309  18.254  0.00  0.00    +0.000 C 
BRANCH   7   8
ATOM      8  O   UNL     1       1.727   9.185  17.140  0.00  0.00    +0.000 OA
ATOM      9  H   UNL     1       0.768   9.144  16.959  0.00  0.00    +0.000 HD
ENDBRANCH   7   8
BRANCH   7  10
ATOM     10  C   UNL     1       3.325   7.580  18.005  0.00  0.00    +0.000 C 
BRANCH  10  11
ATOM     11  N   UNL     1       3.319   6.128  17.714  0.00  0.00    +0.000 NA
BRANCH  11  12
ATOM     12  C   UNL     1       4.676   5.540  17.550  0.00  0.00    +0.000 C 
ATOM     13  C   UNL     1       4.811   4.485  16.435  0.00  0.00    +0.000 C 
BRANCH  12  15
ATOM     14  C   UNL     1       7.087   5.960  16.687  0.00  0.00    +0.000 C 
ATOM     15  C   UNL     1       5.883   6.508  17.438  0.00  0.00    +0.000 C 
ENDBRANCH  12  15
ENDBRANCH  11  12
BRANCH  11  16
ATOM     16  C   UNL     1       2.319   5.342  18.491  0.00  0.00    +0.000 C 
ATOM     17  C   UNL     1       2.905   4.770  19.803  0.00  0.00    +0.000 C 
BRANCH  16  18
ATOM     18  C   UNL     1       1.463   4.241  17.807  0.00  0.00    +0.000 C 
ATOM     19  C   UNL     1       1.629   2.803  18.281  0.00  0.00    +0.000 C 
ENDBRANCH  16  18
ENDBRANCH  11  16
ENDBRANCH  10  11
ENDBRANCH   7  10
ENDBRANCH   1   7
BRANCH   6  20
ATOM     20  C   UNL     1       0.018  10.951  19.039  0.00  0.00    +0.000 C 
BRANCH  20  21
ATOM     21  C   UNL     1      -1.334  10.854  18.354  0.00  0.00    +0.000 A 
ATOM     22  C   UNL     1      -1.619   9.941  17.325  0.00  0.00    +0.000 A 
ATOM     23  C   UNL     1      -2.904   9.851  16.771  0.00  0.00    +0.000 A 
ATOM     24  C   UNL     1      -3.928  10.684  17.214  0.00  0.00    +0.000 A 
ATOM     25  C   UNL     1      -3.656  11.635  18.190  0.00  0.00    +0.000 A 
ATOM     26  C   UNL     1      -2.374  11.725  18.747  0.00  0.00    +0.000 A 
ATOM     27 CL   UNL     1      -2.123  12.967  19.928  0.00  0.00    +0.000 Cl
ENDBRANCH  20  21
ENDBRANCH   6  20
TORSDOF 10
ENDMDL
