MODEL 1
REMARK VINA RESULT:      -7.2      0.000      0.000
REMARK  Name = 
REMARK  9 active torsions:
REMARK  status: ('A' for Active; 'I' for Inactive)
REMARK    1  A    between atoms: C_1  and  C_2
REMARK    2  A    between atoms: C_2  and  N_3
REMARK    3  A    between atoms: N_6  and  C_7
REMARK    4  A    between atoms: C_8  and  C_9
REMARK    5  A    between atoms: C_11  and  C_12
REMARK    6  A    between atoms: N_14  and  C_15
REMARK    7  A    between atoms: C_15  and  C_16
REMARK    8  A    between atoms: C_23  and  O_24
REMARK    9  A    between atoms: N_27  and  C_28
REMARK                            x       y       z     vdW  Elec       q    Type
REMARK                         _______ _______ _______ _____ _____    ______ ____
ROOT
ATOM      1  C   UNL     1       4.093   4.120  18.736  0.00  0.00    +0.000 A 
ATOM      2  N   UNL     1       3.561   5.180  19.284  0.00  0.00    +0.000 NA
ATOM      3  C   UNL     1       2.303   5.070  19.834  0.00  0.00    +0.000 A 
ATOM      4  C   UNL     1       1.569   3.944  19.855  0.00  0.00    +0.000 A 
ATOM      5  C   UNL     1       2.177   2.747  19.223  0.00  0.00    +0.000 A 
ATOM      6  O   UNL     1       1.586   1.666  19.257  0.00  0.00    +0.000 OA
ATOM      7  N   UNL     1       3.416   2.918  18.638  0.00  0.00    +0.000 N 
ATOM      8  C   UNL     1       3.974   1.723  18.009  0.00  0.00    +0.000 C 
ENDROOT
BRANCH   1  14
ATOM      9  N   UNL     1       7.568   5.794  18.146  0.00  0.00    +0.000 NA
ATOM     10  C   UNL     1       7.451   5.796  16.677  0.00  0.00    +0.000 C 
ATOM     11  C   UNL     1       6.938   4.429  16.173  0.00  0.00    +0.000 C 
ATOM     12  N   UNL     1       5.612   4.022  16.693  0.00  0.00    +0.000 NA
ATOM     13  C   UNL     1       4.538   4.647  15.933  0.00  0.00    +0.000 C 
ATOM     14  C   UNL     1       5.550   4.225  18.175  0.00  0.00    +0.000 C 
ATOM     15  C   UNL     1       6.231   5.522  18.713  0.00  0.00    +0.000 C 
BRANCH   9  17
ATOM     16  C   UNL     1       7.862   8.237  17.690  0.00  0.00    +0.000 C 
ATOM     17  C   UNL     1       8.133   7.064  18.627  0.00  0.00    +0.000 C 
ENDBRANCH   9  17
ENDBRANCH   1  14
BRANCH   3  18
ATOM     18  C   UNL     1       1.684   6.278  20.512  0.00  0.00    +0.000 C 
ATOM     19  O   UNL     1       0.699   6.165  21.242  0.00  0.00    +0.000 OA
ATOM     20  N   UNL     1       2.283   7.482  20.253  0.00  0.00    +0.000 N 
ATOM     21  H   UNL     1       3.079   7.496  19.627  0.00  0.00    +0.000 HD
BRANCH  20  22
ATOM     22  C   UNL     1       1.788   8.709  20.833  0.00  0.00    +0.000 C 
BRANCH  22  23
ATOM     23  C   UNL     1       0.790   9.401  19.938  0.00  0.00    +0.000 A 
ATOM     24  C   UNL     1      -0.279  10.128  20.489  0.00  0.00    +0.000 A 
ATOM     25  C   UNL     1      -1.176  10.804  19.659  0.00  0.00    +0.000 A 
ATOM     26  C   UNL     1      -1.011  10.747  18.280  0.00  0.00    +0.000 A 
ATOM     27  F   UNL     1      -1.862  11.406  17.483  0.00  0.00    +0.000 F 
ATOM     28  C   UNL     1       0.030  10.019  17.715  0.00  0.00    +0.000 A 
ATOM     29  C   UNL     1       0.928   9.343  18.543  0.00  0.00    +0.000 A 
ENDBRANCH  22  23
ENDBRANCH  20  22
ENDBRANCH   3  18
BRANCH   4  30
ATOM     30  O   UNL     1       0.311   3.804  20.424  0.00  0.00    +0.000 OA
ATOM     31  H   UNL     1       0.376   4.000  21.385  0.00  0.00    +0.000 HD
ENDBRANCH   4  30
TORSDOF 6
ENDMDL
MODEL 2
REMARK VINA RESULT:      -7.1      0.626      1.102
REMARK  Name = 
REMARK  9 active torsions:
REMARK  status: ('A' for Active; 'I' for Inactive)
REMARK    1  A    between atoms: C_1  and  C_2
REMARK    2  A    between atoms: C_2  and  N_3
REMARK    3  A    between atoms: N_6  and  C_7
REMARK    4  A    between atoms: C_8  and  C_9
REMARK    5  A    between atoms: C_11  and  C_12
REMARK    6  A    between atoms: N_14  and  C_15
REMARK    7  A    between atoms: C_15  and  C_16
REMARK    8  A    between atoms: C_23  and  O_24
REMARK    9  A    between atoms: N_27  and  C_28
REMARK                            x       y       z     vdW  Elec       q    Type
REMARK                         _______ _______ _______ _____ _____    ______ ____
ROOT
ATOM      1  C   UNL     1       4.016   4.455  18.851  0.00  0.00    +0.000 A 
ATOM      2  N   UNL     1       3.541   5.586  19.300  0.00  0.00    +0.000 NA
ATOM      3  C   UNL     1       2.278   5.591  19.851  0.00  0.00    +0.000 A 
ATOM      4  C   UNL     1       1.486   4.511  19.969  0.00  0.00    +0.000 A 
ATOM      5  C   UNL     1       2.031   3.233  19.448  0.00  0.00    +0.000 A 
ATOM      6  O   UNL     1       1.383   2.191  19.574  0.00  0.00    +0.000 OA
ATOM      7  N   UNL     1       3.277   3.285  18.857  0.00  0.00    +0.000 N 
ATOM      8  C   UNL     1       3.771   2.012  18.338  0.00  0.00    +0.000 C 
ENDROOT
BRANCH   1  14
ATOM      9  N   UNL     1       7.591   5.865  18.173  0.00  0.00    +0.000 NA
ATOM     10  C   UNL     1       7.474   5.786  16.706  0.00  0.00    +0.000 C 
ATOM     11  C   UNL     1       6.875   4.427  16.284  0.00  0.00    +0.000 C 
ATOM     12  N   UNL     1       5.526   4.137  16.823  0.00  0.00    +0.000 NA
ATOM     13  C   UNL     1       4.493   4.782  16.022  0.00  0.00    +0.000 C 
ATOM     14  C   UNL     1       5.477   4.433  18.290  0.00  0.00    +0.000 C 
ATOM     15  C   UNL     1       6.240   5.714  18.751  0.00  0.00    +0.000 C 
BRANCH   9  17
ATOM     16  C   UNL     1       7.865   8.305  17.686  0.00  0.00    +0.000 C 
ATOM     17  C   UNL     1       8.236   7.124  18.578  0.00  0.00    +0.000 C 
ENDBRANCH   9  17
ENDBRANCH   1  14
BRANCH   3  18
ATOM     18  C   UNL     1       1.725   6.885  20.417  0.00  0.00    +0.000 C 
ATOM     19  O   UNL     1       1.077   6.898  21.465  0.00  0.00    +0.000 OA
ATOM     20  N   UNL     1       1.984   8.016  19.689  0.00  0.00    +0.000 N 
ATOM     21  H   UNL     1       2.508   7.921  18.828  0.00  0.00    +0.000 HD
BRANCH  20  22
ATOM     22  C   UNL     1       1.507   9.311  20.117  0.00  0.00    +0.000 C 
BRANCH  22  23
ATOM     23  C   UNL     1       0.319   9.776  19.313  0.00  0.00    +0.000 A 
ATOM     24  C   UNL     1       0.156   9.365  17.978  0.00  0.00    +0.000 A 
ATOM     25  C   UNL     1      -0.968   9.761  17.249  0.00  0.00    +0.000 A 
ATOM     26  C   UNL     1      -1.922  10.575  17.848  0.00  0.00    +0.000 A 
ATOM     27  F   UNL     1      -3.006  10.944  17.154  0.00  0.00    +0.000 F 
ATOM     28  C   UNL     1      -1.771  11.007  19.160  0.00  0.00    +0.000 A 
ATOM     29  C   UNL     1      -0.648  10.612  19.891  0.00  0.00    +0.000 A 
ENDBRANCH  22  23
ENDBRANCH  20  22
ENDBRANCH   3  18
BRANCH   4  30
ATOM     30  O   UNL     1       0.222   4.489  20.542  0.00  0.00    +0.000 OA
ATOM     31  H   UNL     1      -0.266   5.293  20.258  0.00  0.00    +0.000 HD
ENDBRANCH   4  30
TORSDOF 6
ENDMDL
MODEL 3
REMARK VINA RESULT:      -7.1      1.592      2.642
REMARK  Name = 
REMARK  9 active torsions:
REMARK  status: ('A' for Active; 'I' for Inactive)
REMARK    1  A    between atoms: C_1  and  C_2
REMARK    2  A    between atoms: C_2  and  N_3
REMARK    3  A    between atoms: N_6  and  C_7
REMARK    4  A    between atoms: C_8  and  C_9
REMARK    5  A    between atoms: C_11  and  C_12
REMARK    6  A    between atoms: N_14  and  C_15
REMARK    7  A    between atoms: C_15  and  C_16
REMARK    8  A    between atoms: C_23  and  O_24
REMARK    9  A    between atoms: N_27  and  C_28
REMARK                            x       y       z     vdW  Elec       q    Type
REMARK                         _______ _______ _______ _____ _____    ______ ____
ROOT
ATOM      1  C   UNL     1       3.859   5.739  17.867  0.00  0.00    +0.000 A 
ATOM      2  N   UNL     1       3.316   6.792  18.417  0.00  0.00    +0.000 NA
ATOM      3  C   UNL     1       2.370   6.601  19.400  0.00  0.00    +0.000 A 
ATOM      4  C   UNL     1       1.958   5.402  19.849  0.00  0.00    +0.000 A 
ATOM      5  C   UNL     1       2.575   4.212  19.213  0.00  0.00    +0.000 A 
ATOM      6  O   UNL     1       2.288   3.082  19.613  0.00  0.00    +0.000 OA
ATOM      7  N   UNL     1       3.478   4.451  18.196  0.00  0.00    +0.000 N 
ATOM      8  C   UNL     1       4.049   3.255  17.580  0.00  0.00    +0.000 C 
ENDROOT
BRANCH   1  14
ATOM      9  N   UNL     1       6.010   4.855  14.734  0.00  0.00    +0.000 NA
ATOM     10  C   UNL     1       7.288   4.842  15.467  0.00  0.00    +0.000 C 
ATOM     11  C   UNL     1       7.393   6.072  16.396  0.00  0.00    +0.000 C 
ATOM     12  N   UNL     1       6.329   6.180  17.421  0.00  0.00    +0.000 NA
ATOM     13  C   UNL     1       6.630   5.347  18.577  0.00  0.00    +0.000 C 
ATOM     14  C   UNL     1       4.985   5.955  16.801  0.00  0.00    +0.000 C 
ATOM     15  C   UNL     1       4.913   4.829  15.723  0.00  0.00    +0.000 C 
BRANCH   9  17
ATOM     16  C   UNL     1       6.721   3.978  12.500  0.00  0.00    +0.000 C 
ATOM     17  C   UNL     1       5.940   3.732  13.788  0.00  0.00    +0.000 C 
ENDBRANCH   9  17
ENDBRANCH   1  14
BRANCH   3  18
ATOM     18  C   UNL     1       1.757   7.810  20.081  0.00  0.00    +0.000 C 
ATOM     19  O   UNL     1       1.539   7.818  21.293  0.00  0.00    +0.000 OA
ATOM     20  N   UNL     1       1.460   8.870  19.266  0.00  0.00    +0.000 N 
ATOM     21  H   UNL     1       1.652   8.780  18.275  0.00  0.00    +0.000 HD
BRANCH  20  22
ATOM     22  C   UNL     1       0.867  10.079  19.790  0.00  0.00    +0.000 C 
BRANCH  22  23
ATOM     23  C   UNL     1      -0.402  10.453  19.065  0.00  0.00    +0.000 A 
ATOM     24  C   UNL     1      -1.259  11.435  19.588  0.00  0.00    +0.000 A 
ATOM     25  C   UNL     1      -2.412  11.811  18.894  0.00  0.00    +0.000 A 
ATOM     26  C   UNL     1      -2.712  11.199  17.683  0.00  0.00    +0.000 A 
ATOM     27  F   UNL     1      -3.810  11.567  17.009  0.00  0.00    +0.000 F 
ATOM     28  C   UNL     1      -1.887  10.212  17.157  0.00  0.00    +0.000 A 
ATOM     29  C   UNL     1      -0.734   9.836  17.850  0.00  0.00    +0.000 A 
ENDBRANCH  22  23
ENDBRANCH  20  22
ENDBRANCH   3  18
BRANCH   4  30
ATOM     30  O   UNL     1       1.026   5.187  20.854  0.00  0.00    +0.000 OA
ATOM     31  H   UNL     1       0.814   4.228  20.887  0.00  0.00    +0.000 HD
ENDBRANCH   4  30
TORSDOF 6
ENDMDL
MODEL 4
REMARK VINA RESULT:      -6.9      4.318      9.499
REMARK  Name = 
REMARK  9 active torsions:
REMARK  status: ('A' for Active; 'I' for Inactive)
REMARK    1  A    between atoms: C_1  and  C_2
REMARK    2  A    between atoms: C_2  and  N_3
REMARK    3  A    between atoms: N_6  and  C_7
REMARK    4  A    between atoms: C_8  and  C_9
REMARK    5  A    between atoms: C_11  and  C_12
REMARK    6  A    between atoms: N_14  and  C_15
REMARK    7  A    between atoms: C_15  and  C_16
REMARK    8  A    between atoms: C_23  and  O_24
REMARK    9  A    between atoms: N_27  and  C_28
REMARK                            x       y       z     vdW  Elec       q    Type
REMARK                         _______ _______ _______ _____ _____    ______ ____
ROOT
ATOM      1  C   UNL     1      -1.513  11.401  19.570  0.00  0.00    +0.000 A 
ATOM      2  N   UNL     1      -0.603  10.631  19.037  0.00  0.00    +0.000 NA
ATOM      3  C   UNL     1       0.398  10.144  19.849  0.00  0.00    +0.000 A 
ATOM      4  C   UNL     1       0.513  10.396  21.164  0.00  0.00    +0.000 A 
ATOM      5  C   UNL     1      -0.521  11.279  21.759  0.00  0.00    +0.000 A 
ATOM      6  O   UNL     1      -0.512  11.507  22.971  0.00  0.00    +0.000 OA
ATOM      7  N   UNL     1      -1.473  11.787  20.898  0.00  0.00    +0.000 N 
ATOM      8  C   UNL     1      -2.462  12.667  21.516  0.00  0.00    +0.000 C 
ENDROOT
BRANCH   1  14
ATOM      9  N   UNL     1      -5.222  12.241  18.697  0.00  0.00    +0.000 NA
ATOM     10  C   UNL     1      -5.287  11.316  17.552  0.00  0.00    +0.000 C 
ATOM     11  C   UNL     1      -4.029  11.461  16.667  0.00  0.00    +0.000 C 
ATOM     12  N   UNL     1      -2.743  11.185  17.349  0.00  0.00    +0.000 NA
ATOM     13  C   UNL     1      -2.477   9.754  17.404  0.00  0.00    +0.000 C 
ATOM     14  C   UNL     1      -2.690  11.897  18.665  0.00  0.00    +0.000 C 
ATOM     15  C   UNL     1      -4.017  11.912  19.485  0.00  0.00    +0.000 C 
BRANCH   9  17
ATOM     16  C   UNL     1      -6.257  12.598  20.948  0.00  0.00    +0.000 C 
ATOM     17  C   UNL     1      -6.454  12.166  19.498  0.00  0.00    +0.000 C 
ENDBRANCH   9  17
ENDBRANCH   1  14
BRANCH   3  18
ATOM     18  C   UNL     1       1.441   9.214  19.259  0.00  0.00    +0.000 C 
ATOM     19  O   UNL     1       2.012   9.485  18.201  0.00  0.00    +0.000 OA
ATOM     20  N   UNL     1       1.693   8.069  19.967  0.00  0.00    +0.000 N 
ATOM     21  H   UNL     1       1.170   7.909  20.819  0.00  0.00    +0.000 HD
BRANCH  20  22
ATOM     22  C   UNL     1       2.661   7.099  19.509  0.00  0.00    +0.000 C 
BRANCH  22  23
ATOM     23  C   UNL     1       2.053   5.731  19.323  0.00  0.00    +0.000 A 
ATOM     24  C   UNL     1       2.029   5.128  18.054  0.00  0.00    +0.000 A 
ATOM     25  C   UNL     1       1.505   3.843  17.891  0.00  0.00    +0.000 A 
ATOM     26  C   UNL     1       0.996   3.167  18.993  0.00  0.00    +0.000 A 
ATOM     27  F   UNL     1       0.505   1.930  18.841  0.00  0.00    +0.000 F 
ATOM     28  C   UNL     1       0.993   3.752  20.253  0.00  0.00    +0.000 A 
ATOM     29  C   UNL     1       1.517   5.036  20.418  0.00  0.00    +0.000 A 
ENDBRANCH  22  23
ENDBRANCH  20  22
ENDBRANCH   3  18
BRANCH   4  30
ATOM     30  O   UNL     1       1.497   9.897  22.005  0.00  0.00    +0.000 OA
ATOM     31  H   UNL     1       2.302   9.711  21.473  0.00  0.00    +0.000 HD
ENDBRANCH   4  30
TORSDOF 6
ENDMDL
MODEL 5
REMARK VINA RESULT:      -6.9      2.772      4.495
REMARK  Name = 
REMARK  9 active torsions:
REMARK  status: ('A' for Active; 'I' for Inactive)
REMARK    1  A    between atoms: C_1  and  C_2
REMARK    2  A    between atoms: C_2  and  N_3
REMARK    3  A    between atoms: N_6  and  C_7
REMARK    4  A    between atoms: C_8  and  C_9
REMARK    5  A    between atoms: C_11  and  C_12
REMARK    6  A    between atoms: N_14  and  C_15
REMARK    7  A    between atoms: C_15  and  C_16
REMARK    8  A    between atoms: C_23  and  O_24
REMARK    9  A    between atoms: N_27  and  C_28
REMARK                            x       y       z     vdW  Elec       q    Type
REMARK                         _______ _______ _______ _____ _____    ______ ____
ROOT
ATOM      1  C   UNL     1       2.590   6.902  19.592  0.00  0.00    +0.000 A 
ATOM      2  N   UNL     1       1.774   7.237  20.556  0.00  0.00    +0.000 NA
ATOM      3  C   UNL     1       1.055   8.406  20.426  0.00  0.00    +0.000 A 
ATOM      4  C   UNL     1       1.124   9.238  19.373  0.00  0.00    +0.000 A 
ATOM      5  C   UNL     1       2.060   8.854  18.288  0.00  0.00    +0.000 A 
ATOM      6  O   UNL     1       2.133   9.540  17.265  0.00  0.00    +0.000 OA
ATOM      7  N   UNL     1       2.799   7.704  18.484  0.00  0.00    +0.000 N 
ATOM      8  C   UNL     1       3.724   7.369  17.405  0.00  0.00    +0.000 C 
ENDROOT
BRANCH   1  14
ATOM      9  N   UNL     1       5.529   4.408  18.984  0.00  0.00    +0.000 NA
ATOM     10  C   UNL     1       4.693   3.403  18.304  0.00  0.00    +0.000 C 
ATOM     11  C   UNL     1       3.378   3.177  19.082  0.00  0.00    +0.000 C 
ATOM     12  N   UNL     1       2.528   4.379  19.247  0.00  0.00    +0.000 NA
ATOM     13  C   UNL     1       1.722   4.617  18.057  0.00  0.00    +0.000 C 
ATOM     14  C   UNL     1       3.353   5.541  19.705  0.00  0.00    +0.000 C 
ATOM     15  C   UNL     1       4.765   5.671  19.053  0.00  0.00    +0.000 C 
BRANCH   9  17
ATOM     16  C   UNL     1       7.500   5.901  18.593  0.00  0.00    +0.000 C 
ATOM     17  C   UNL     1       6.818   4.569  18.294  0.00  0.00    +0.000 C 
ENDBRANCH   9  17
ENDBRANCH   1  14
BRANCH   3  18
ATOM     18  C   UNL     1       0.070   8.792  21.513  0.00  0.00    +0.000 C 
ATOM     19  O   UNL     1      -0.818   8.018  21.873  0.00  0.00    +0.000 OA
ATOM     20  N   UNL     1       0.231  10.041  22.051  0.00  0.00    +0.000 N 
ATOM     21  H   UNL     1       0.975  10.626  21.689  0.00  0.00    +0.000 HD
BRANCH  20  22
ATOM     22  C   UNL     1      -0.645  10.531  23.091  0.00  0.00    +0.000 C 
BRANCH  22  23
ATOM     23  C   UNL     1      -1.602  11.580  22.582  0.00  0.00    +0.000 A 
ATOM     24  C   UNL     1      -1.416  12.162  21.317  0.00  0.00    +0.000 A 
ATOM     25  C   UNL     1      -2.328  13.102  20.829  0.00  0.00    +0.000 A 
ATOM     26  C   UNL     1      -3.419  13.466  21.610  0.00  0.00    +0.000 A 
ATOM     27  F   UNL     1      -4.301  14.357  21.139  0.00  0.00    +0.000 F 
ATOM     28  C   UNL     1      -3.611  12.916  22.871  0.00  0.00    +0.000 A 
ATOM     29  C   UNL     1      -2.700  11.977  23.360  0.00  0.00    +0.000 A 
ENDBRANCH  22  23
ENDBRANCH  20  22
ENDBRANCH   3  18
BRANCH   4  30
ATOM     30  O   UNL     1       0.392  10.406  19.211  0.00  0.00    +0.000 OA
ATOM     31  H   UNL     1      -0.269  10.267  18.497  0.00  0.00    +0.000 HD
ENDBRANCH   4  30
TORSDOF 6
ENDMDL
MODEL 6
REMARK VINA RESULT:      -6.9      4.374      9.625
REMARK  Name = 
REMARK  9 active torsions:
REMARK  status: ('A' for Active; 'I' for Inactive)
REMARK    1  A    between atoms: C_1  and  C_2
REMARK    2  A    between atoms: C_2  and  N_3
REMARK    3  A    between atoms: N_6  and  C_7
REMARK    4  A    between atoms: C_8  and  C_9
REMARK    5  A    between atoms: C_11  and  C_12
REMARK    6  A    between atoms: N_14  and  C_15
REMARK    7  A    between atoms: C_15  and  C_16
REMARK    8  A    between atoms: C_23  and  O_24
REMARK    9  A    between atoms: N_27  and  C_28
REMARK                            x       y       z     vdW  Elec       q    Type
REMARK                         _______ _______ _______ _____ _____    ______ ____
ROOT
ATOM      1  C   UNL     1      -1.674  11.538  19.596  0.00  0.00    +0.000 A 
ATOM      2  N   UNL     1      -0.752  10.827  19.005  0.00  0.00    +0.000 NA
ATOM      3  C   UNL     1       0.289  10.343  19.768  0.00  0.00    +0.000 A 
ATOM      4  C   UNL     1       0.432  10.544  21.089  0.00  0.00    +0.000 A 
ATOM      5  C   UNL     1      -0.616  11.360  21.750  0.00  0.00    +0.000 A 
ATOM      6  O   UNL     1      -0.580  11.538  22.970  0.00  0.00    +0.000 OA
ATOM      7  N   UNL     1      -1.610  11.868  20.938  0.00  0.00    +0.000 N 
ATOM      8  C   UNL     1      -2.612  12.684  21.620  0.00  0.00    +0.000 C 
ENDROOT
BRANCH   1  14
ATOM      9  N   UNL     1      -5.408  12.454  18.927  0.00  0.00    +0.000 NA
ATOM     10  C   UNL     1      -5.576  11.477  17.836  0.00  0.00    +0.000 C 
ATOM     11  C   UNL     1      -4.377  11.538  16.865  0.00  0.00    +0.000 C 
ATOM     12  N   UNL     1      -3.056  11.254  17.474  0.00  0.00    +0.000 NA
ATOM     13  C   UNL     1      -2.828   9.819  17.584  0.00  0.00    +0.000 C 
ATOM     14  C   UNL     1      -2.894  12.028  18.746  0.00  0.00    +0.000 C 
ATOM     15  C   UNL     1      -4.162  12.125  19.650  0.00  0.00    +0.000 C 
BRANCH   9  17
ATOM     16  C   UNL     1      -7.225  11.083  19.967  0.00  0.00    +0.000 C 
ATOM     17  C   UNL     1      -6.584  12.459  19.809  0.00  0.00    +0.000 C 
ENDBRANCH   9  17
ENDBRANCH   1  14
BRANCH   3  18
ATOM     18  C   UNL     1       1.348   9.480  19.109  0.00  0.00    +0.000 C 
ATOM     19  O   UNL     1       1.930   9.851  18.088  0.00  0.00    +0.000 OA
ATOM     20  N   UNL     1       1.602   8.277  19.713  0.00  0.00    +0.000 N 
ATOM     21  H   UNL     1       1.069   8.035  20.540  0.00  0.00    +0.000 HD
BRANCH  20  22
ATOM     22  C   UNL     1       2.584   7.360  19.182  0.00  0.00    +0.000 C 
BRANCH  22  23
ATOM     23  C   UNL     1       2.103   5.931  19.209  0.00  0.00    +0.000 A 
ATOM     24  C   UNL     1       1.676   5.344  20.413  0.00  0.00    +0.000 A 
ATOM     25  C   UNL     1       1.190   4.035  20.429  0.00  0.00    +0.000 A 
ATOM     26  C   UNL     1       1.141   3.309  19.245  0.00  0.00    +0.000 A 
ATOM     27  F   UNL     1       0.662   2.057  19.256  0.00  0.00    +0.000 F 
ATOM     28  C   UNL     1       1.575   3.863  18.047  0.00  0.00    +0.000 A 
ATOM     29  C   UNL     1       2.061   5.173  18.029  0.00  0.00    +0.000 A 
ENDBRANCH  22  23
ENDBRANCH  20  22
ENDBRANCH   3  18
BRANCH   4  30
ATOM     30  O   UNL     1       1.458  10.047  21.880  0.00  0.00    +0.000 OA
ATOM     31  H   UNL     1       2.139  10.747  21.989  0.00  0.00    +0.000 HD
ENDBRANCH   4  30
TORSDOF 6
ENDMDL
MODEL 7
REMARK VINA RESULT:      -6.8      4.461      9.620
REMARK  Name = 
REMARK  9 active torsions:
REMARK  status: ('A' for Active; 'I' for Inactive)
REMARK    1  A    between atoms: C_1  and  C_2
REMARK    2  A    between atoms: C_2  and  N_3
REMARK    3  A    between atoms: N_6  and  C_7
REMARK    4  A    between atoms: C_8  and  C_9
REMARK    5  A    between atoms: C_11  and  C_12
REMARK    6  A    between atoms: N_14  and  C_15
REMARK    7  A    between atoms: C_15  and  C_16
REMARK    8  A    between atoms: C_23  and  O_24
REMARK    9  A    between atoms: N_27  and  C_28
REMARK                            x       y       z     vdW  Elec       q    Type
REMARK                         _______ _______ _______ _____ _____    ______ ____
ROOT
ATOM      1  C   UNL     1      -0.807  11.801  20.562  0.00  0.00    +0.000 A 
ATOM      2  N   UNL     1       0.177  11.006  20.238  0.00  0.00    +0.000 NA
ATOM      3  C   UNL     1       0.082  10.296  19.061  0.00  0.00    +0.000 A 
ATOM      4  C   UNL     1      -0.953  10.359  18.205  0.00  0.00    +0.000 A 
ATOM      5  C   UNL     1      -2.069  11.259  18.586  0.00  0.00    +0.000 A 
ATOM      6  O   UNL     1      -3.026  11.411  17.823  0.00  0.00    +0.000 OA
ATOM      7  N   UNL     1      -1.956  11.909  19.799  0.00  0.00    +0.000 N 
ATOM      8  C   UNL     1      -3.083  12.769  20.149  0.00  0.00    +0.000 C 
ENDROOT
BRANCH   1  14
ATOM      9  N   UNL     1      -2.079  13.695  23.728  0.00  0.00    +0.000 NA
ATOM     10  C   UNL     1      -1.540  15.001  23.309  0.00  0.00    +0.000 C 
ATOM     11  C   UNL     1      -0.094  14.850  22.789  0.00  0.00    +0.000 C 
ATOM     12  N   UNL     1       0.067  13.944  21.628  0.00  0.00    +0.000 NA
ATOM     13  C   UNL     1      -0.253  14.629  20.382  0.00  0.00    +0.000 C 
ATOM     14  C   UNL     1      -0.670  12.662  21.862  0.00  0.00    +0.000 C 
ATOM     15  C   UNL     1      -2.060  12.794  22.557  0.00  0.00    +0.000 C 
BRANCH   9  17
ATOM     16  C   UNL     1      -4.146  12.515  24.501  0.00  0.00    +0.000 C 
ATOM     17  C   UNL     1      -3.425  13.845  24.300  0.00  0.00    +0.000 C 
ENDBRANCH   9  17
ENDBRANCH   1  14
BRANCH   3  18
ATOM     18  C   UNL     1       1.233   9.399  18.645  0.00  0.00    +0.000 C 
ATOM     19  O   UNL     1       1.827   9.576  17.581  0.00  0.00    +0.000 OA
ATOM     20  N   UNL     1       1.552   8.391  19.516  0.00  0.00    +0.000 N 
ATOM     21  H   UNL     1       1.004   8.300  20.363  0.00  0.00    +0.000 HD
BRANCH  20  22
ATOM     22  C   UNL     1       2.624   7.464  19.235  0.00  0.00    +0.000 C 
BRANCH  22  23
ATOM     23  C   UNL     1       2.148   6.033  19.204  0.00  0.00    +0.000 A 
ATOM     24  C   UNL     1       1.713   5.401  20.382  0.00  0.00    +0.000 A 
ATOM     25  C   UNL     1       1.231   4.091  20.344  0.00  0.00    +0.000 A 
ATOM     26  C   UNL     1       1.193   3.409  19.133  0.00  0.00    +0.000 A 
ATOM     27  F   UNL     1       0.719   2.157  19.093  0.00  0.00    +0.000 F 
ATOM     28  C   UNL     1       1.635   4.010  17.961  0.00  0.00    +0.000 A 
ATOM     29  C   UNL     1       2.117   5.321  17.996  0.00  0.00    +0.000 A 
ENDBRANCH  22  23
ENDBRANCH  20  22
ENDBRANCH   3  18
BRANCH   4  30
ATOM     30  O   UNL     1      -1.058   9.672  17.004  0.00  0.00    +0.000 OA
ATOM     31  H   UNL     1      -0.856  10.292  16.268  0.00  0.00    +0.000 HD
ENDBRANCH   4  30
TORSDOF 6
ENDMDL
MODEL 8
REMARK VINA RESULT:      -6.8      4.441      9.402
REMARK  Name = 
REMARK  9 active torsions:
REMARK  status: ('A' for Active; 'I' for Inactive)
REMARK    1  A    between atoms: C_1  and  C_2
REMARK    2  A    between atoms: C_2  and  N_3
REMARK    3  A    between atoms: N_6  and  C_7
REMARK    4  A    between atoms: C_8  and  C_9
REMARK    5  A    between atoms: C_11  and  C_12
REMARK    6  A    between atoms: N_14  and  C_15
REMARK    7  A    between atoms: C_15  and  C_16
REMARK    8  A    between atoms: C_23  and  O_24
REMARK    9  A    between atoms: N_27  and  C_28
REMARK                            x       y       z     vdW  Elec       q    Type
REMARK                         _______ _______ _______ _____ _____    ______ ____
ROOT
ATOM      1  C   UNL     1      -0.062  12.024  20.400  0.00  0.00    +0.000 A 
ATOM      2  N   UNL     1       0.807  11.127  20.020  0.00  0.00    +0.000 NA
ATOM      3  C   UNL     1       0.486  10.320  18.950  0.00  0.00    +0.000 A 
ATOM      4  C   UNL     1      -0.662  10.384  18.255  0.00  0.00    +0.000 A 
ATOM      5  C   UNL     1      -1.647  11.400  18.700  0.00  0.00    +0.000 A 
ATOM      6  O   UNL     1      -2.698  11.555  18.074  0.00  0.00    +0.000 OA
ATOM      7  N   UNL     1      -1.306  12.150  19.808  0.00  0.00    +0.000 N 
ATOM      8  C   UNL     1      -2.308  13.126  20.229  0.00  0.00    +0.000 C 
ENDROOT
BRANCH   1  14
ATOM      9  N   UNL     1      -0.709  14.325  23.485  0.00  0.00    +0.000 NA
ATOM     10  C   UNL     1      -0.135  15.528  22.858  0.00  0.00    +0.000 C 
ATOM     11  C   UNL     1       1.204  15.193  22.167  0.00  0.00    +0.000 C 
ATOM     12  N   UNL     1       1.124  14.168  21.099  0.00  0.00    +0.000 NA
ATOM     13  C   UNL     1       0.683  14.757  19.842  0.00  0.00    +0.000 C 
ATOM     14  C   UNL     1       0.329  12.989  21.568  0.00  0.00    +0.000 C 
ATOM     15  C   UNL     1      -0.932  13.318  22.427  0.00  0.00    +0.000 C 
BRANCH   9  17
ATOM     16  C   UNL     1      -3.100  13.711  23.899  0.00  0.00    +0.000 C 
ATOM     17  C   UNL     1      -1.943  14.654  24.214  0.00  0.00    +0.000 C 
ENDBRANCH   9  17
ENDBRANCH   1  14
BRANCH   3  18
ATOM     18  C   UNL     1       1.499   9.299  18.465  0.00  0.00    +0.000 C 
ATOM     19  O   UNL     1       1.977   9.364  17.331  0.00  0.00    +0.000 OA
ATOM     20  N   UNL     1       1.832   8.315  19.357  0.00  0.00    +0.000 N 
ATOM     21  H   UNL     1       1.382   8.320  20.264  0.00  0.00    +0.000 HD
BRANCH  20  22
ATOM     22  C   UNL     1       2.781   7.280  19.016  0.00  0.00    +0.000 C 
BRANCH  22  23
ATOM     23  C   UNL     1       2.175   5.901  19.099  0.00  0.00    +0.000 A 
ATOM     24  C   UNL     1       2.030   5.114  17.943  0.00  0.00    +0.000 A 
ATOM     25  C   UNL     1       1.509   3.821  18.029  0.00  0.00    +0.000 A 
ATOM     26  C   UNL     1       1.124   3.318  19.266  0.00  0.00    +0.000 A 
ATOM     27  F   UNL     1       0.637   2.074  19.352  0.00  0.00    +0.000 F 
ATOM     28  C   UNL     1       1.242   4.086  20.418  0.00  0.00    +0.000 A 
ATOM     29  C   UNL     1       1.764   5.379  20.335  0.00  0.00    +0.000 A 
ENDBRANCH  22  23
ENDBRANCH  20  22
ENDBRANCH   3  18
BRANCH   4  30
ATOM     30  O   UNL     1      -0.996   9.598  17.161  0.00  0.00    +0.000 OA
ATOM     31  H   UNL     1      -0.238   9.008  16.954  0.00  0.00    +0.000 HD
ENDBRANCH   4  30
TORSDOF 6
ENDMDL
MODEL 9
REMARK VINA RESULT:      -6.7      4.938      9.837
REMARK  Name = 
REMARK  9 active torsions:
REMARK  status: ('A' for Active; 'I' for Inactive)
REMARK    1  A    between atoms: C_1  and  C_2
REMARK    2  A    between atoms: C_2  and  N_3
REMARK    3  A    between atoms: N_6  and  C_7
REMARK    4  A    between atoms: C_8  and  C_9
REMARK    5  A    between atoms: C_11  and  C_12
REMARK    6  A    between atoms: N_14  and  C_15
REMARK    7  A    between atoms: C_15  and  C_16
REMARK    8  A    between atoms: C_23  and  O_24
REMARK    9  A    between atoms: N_27  and  C_28
REMARK                            x       y       z     vdW  Elec       q    Type
REMARK                         _______ _______ _______ _____ _____    ______ ____
ROOT
ATOM      1  C   UNL     1      -1.954  12.631  20.276  0.00  0.00    +0.000 A 
ATOM      2  N   UNL     1      -0.743  12.207  20.032  0.00  0.00    +0.000 NA
ATOM      3  C   UNL     1      -0.553  11.355  18.966  0.00  0.00    +0.000 A 
ATOM      4  C   UNL     1      -1.524  10.921  18.144  0.00  0.00    +0.000 A 
ATOM      5  C   UNL     1      -2.898  11.401  18.435  0.00  0.00    +0.000 A 
ATOM      6  O   UNL     1      -3.830  11.090  17.690  0.00  0.00    +0.000 OA
ATOM      7  N   UNL     1      -3.050  12.210  19.544  0.00  0.00    +0.000 N 
ATOM      8  C   UNL     1      -4.418  12.646  19.810  0.00  0.00    +0.000 C 
ENDROOT
BRANCH   1  14
ATOM      9  N   UNL     1      -0.928  15.482  22.734  0.00  0.00    +0.000 NA
ATOM     10  C   UNL     1      -1.178  14.687  23.950  0.00  0.00    +0.000 C 
ATOM     11  C   UNL     1      -2.527  13.943  23.842  0.00  0.00    +0.000 C 
ATOM     12  N   UNL     1      -2.639  13.003  22.702  0.00  0.00    +0.000 NA
ATOM     13  C   UNL     1      -2.018  11.723  23.016  0.00  0.00    +0.000 C 
ATOM     14  C   UNL     1      -2.162  13.655  21.441  0.00  0.00    +0.000 C 
ATOM     15  C   UNL     1      -0.899  14.561  21.580  0.00  0.00    +0.000 C 
BRANCH   9  17
ATOM     16  C   UNL     1       0.362  17.113  24.128  0.00  0.00    +0.000 C 
ATOM     17  C   UNL     1       0.315  16.257  22.865  0.00  0.00    +0.000 C 
ENDBRANCH   9  17
ENDBRANCH   1  14
BRANCH   3  18
ATOM     18  C   UNL     1       0.852  10.884  18.639  0.00  0.00    +0.000 C 
ATOM     19  O   UNL     1       1.784  11.682  18.534  0.00  0.00    +0.000 OA
ATOM     20  N   UNL     1       1.005   9.534  18.463  0.00  0.00    +0.000 N 
ATOM     21  H   UNL     1       0.186   8.944  18.548  0.00  0.00    +0.000 HD
BRANCH  20  22
ATOM     22  C   UNL     1       2.292   8.959  18.143  0.00  0.00    +0.000 C 
BRANCH  22  23
ATOM     23  C   UNL     1       2.434   7.552  18.668  0.00  0.00    +0.000 A 
ATOM     24  C   UNL     1       1.980   7.222  19.957  0.00  0.00    +0.000 A 
ATOM     25  C   UNL     1       2.072   5.909  20.425  0.00  0.00    +0.000 A 
ATOM     26  C   UNL     1       2.628   4.930  19.610  0.00  0.00    +0.000 A 
ATOM     27  F   UNL     1       2.705   3.667  20.053  0.00  0.00    +0.000 F 
ATOM     28  C   UNL     1       3.100   5.238  18.341  0.00  0.00    +0.000 A 
ATOM     29  C   UNL     1       3.007   6.550  17.870  0.00  0.00    +0.000 A 
ENDBRANCH  22  23
ENDBRANCH  20  22
ENDBRANCH   3  18
BRANCH   4  30
ATOM     30  O   UNL     1      -1.351  10.083  17.052  0.00  0.00    +0.000 OA
ATOM     31  H   UNL     1      -0.491  10.294  16.626  0.00  0.00    +0.000 HD
ENDBRANCH   4  30
TORSDOF 6
ENDMDL
