MODEL 1
REMARK VINA RESULT:      -7.9      0.000      0.000
REMARK  Name = 
REMARK  5 active torsions:
REMARK  status: ('A' for Active; 'I' for Inactive)
REMARK    1  A    between atoms: C_1  and  O_2
REMARK    2  A    between atoms: O_2  and  C_3
REMARK    3  A    between atoms: C_6  and  C_7
REMARK    4  A    between atoms: C_7  and  C_9
REMARK    5  A    between atoms: C_15  and  C_16
REMARK                            x       y       z     vdW  Elec       q    Type
REMARK                         _______ _______ _______ _____ _____    ______ ____
ROOT
ATOM      1  C   UNL     1       2.644   6.695  18.150  0.00  0.00    +0.000 A 
ATOM      2  N   UNL     1       3.910   6.438  17.791  0.00  0.00    +0.000 NA
ATOM      3  C   UNL     1       4.334   5.170  17.743  0.00  0.00    +0.000 A 
ATOM      4  N   UNL     1       5.624   4.906  17.208  0.00  0.00    +0.000 N 
ATOM      5  C   UNL     1       6.575   5.859  17.122  0.00  0.00    +0.000 A 
ATOM      6  C   UNL     1       6.885   6.718  18.193  0.00  0.00    +0.000 A 
ATOM      7  C   UNL     1       7.732   7.662  17.659  0.00  0.00    +0.000 A 
ATOM      8  C   UNL     1       8.260   8.903  18.249  0.00  0.00    +0.000 C 
ATOM      9  N   UNL     1       7.951   7.261  16.370  0.00  0.00    +0.000 N 
ATOM     10  N   UNL     1       7.301   6.127  16.037  0.00  0.00    +0.000 NA
ATOM     11  C   UNL     1       3.516   4.120  18.130  0.00  0.00    +0.000 A 
ATOM     12  C   UNL     1       3.989   2.793  18.271  0.00  0.00    +0.000 A 
ATOM     13  C   UNL     1       3.108   1.767  18.567  0.00  0.00    +0.000 A 
ATOM     14  C   UNL     1       1.759   2.070  18.690  0.00  0.00    +0.000 A 
ATOM     15 CL   UNL     1       0.635   0.790  18.927  0.00  0.00    +0.000 Cl
ATOM     16  C   UNL     1       1.308   3.397  18.618  0.00  0.00    +0.000 A 
ATOM     17  C   UNL     1       2.177   4.460  18.388  0.00  0.00    +0.000 A 
ATOM     18  N   UNL     1       1.733   5.741  18.406  0.00  0.00    +0.000 NA
ATOM     19  H   UNL     1       5.506   4.400  16.334  0.00  0.00    +0.000 HD
ATOM     20  H   UNL     1       8.502   7.723  15.654  0.00  0.00    +0.000 HD
ENDROOT
BRANCH   1  21
ATOM     21  C   UNL     1       2.351   8.166  18.253  0.00  0.00    +0.000 C 
ATOM     22  O   UNL     1       2.672   8.874  17.289  0.00  0.00    +0.000 OA
BRANCH  21  26
ATOM     23  C   UNL     1       0.549  10.037  21.712  0.00  0.00    +0.000 A 
ATOM     24  C   UNL     1       1.163   8.791  21.783  0.00  0.00    +0.000 A 
ATOM     25  C   UNL     1       1.750   8.233  20.649  0.00  0.00    +0.000 A 
ATOM     26  C   UNL     1       1.720   8.892  19.398  0.00  0.00    +0.000 A 
ATOM     27  C   UNL     1       1.093  10.138  19.335  0.00  0.00    +0.000 A 
ATOM     28  C   UNL     1       0.515  10.707  20.489  0.00  0.00    +0.000 A 
BRANCH  23  30
ATOM     29  C   UNL     1      -1.043  11.433  22.790  0.00  0.00    +0.000 C 
ATOM     30  O   UNL     1      -0.019  10.451  22.885  0.00  0.00    +0.000 OA
ENDBRANCH  23  30
ENDBRANCH  21  26
ENDBRANCH   1  21
TORSDOF 3
ENDMDL
MODEL 2
REMARK VINA RESULT:      -7.9      4.242      6.806
REMARK  Name = 
REMARK  5 active torsions:
REMARK  status: ('A' for Active; 'I' for Inactive)
REMARK    1  A    between atoms: C_1  and  O_2
REMARK    2  A    between atoms: O_2  and  C_3
REMARK    3  A    between atoms: C_6  and  C_7
REMARK    4  A    between atoms: C_7  and  C_9
REMARK    5  A    between atoms: C_15  and  C_16
REMARK                            x       y       z     vdW  Elec       q    Type
REMARK                         _______ _______ _______ _____ _____    ______ ____
ROOT
ATOM      1  C   UNL     1       0.423   9.769  21.513  0.00  0.00    +0.000 A 
ATOM      2  N   UNL     1       0.349  10.625  20.485  0.00  0.00    +0.000 NA
ATOM      3  C   UNL     1       0.875  10.281  19.304  0.00  0.00    +0.000 A 
ATOM      4  N   UNL     1       0.649  11.128  18.186  0.00  0.00    +0.000 N 
ATOM      5  C   UNL     1       0.289  12.421  18.326  0.00  0.00    +0.000 A 
ATOM      6  C   UNL     1       0.941  13.296  19.215  0.00  0.00    +0.000 A 
ATOM      7  C   UNL     1       0.168  14.434  19.225  0.00  0.00    +0.000 A 
ATOM      8  C   UNL     1       0.253  15.629  20.080  0.00  0.00    +0.000 C 
ATOM      9  N   UNL     1      -0.808  14.214  18.293  0.00  0.00    +0.000 N 
ATOM     10  N   UNL     1      -0.718  13.013  17.686  0.00  0.00    +0.000 NA
ATOM     11  C   UNL     1       1.563   9.088  19.141  0.00  0.00    +0.000 A 
ATOM     12  C   UNL     1       2.290   8.777  17.967  0.00  0.00    +0.000 A 
ATOM     13  C   UNL     1       2.877   7.532  17.819  0.00  0.00    +0.000 A 
ATOM     14  C   UNL     1       2.708   6.599  18.832  0.00  0.00    +0.000 A 
ATOM     15 CL   UNL     1       3.319   5.006  18.610  0.00  0.00    +0.000 Cl
ATOM     16  C   UNL     1       2.047   6.936  20.023  0.00  0.00    +0.000 A 
ATOM     17  C   UNL     1       1.502   8.201  20.230  0.00  0.00    +0.000 A 
ATOM     18  N   UNL     1       0.941   8.533  21.419  0.00  0.00    +0.000 NA
ATOM     19  H   UNL     1       0.053  10.631  17.529  0.00  0.00    +0.000 HD
ATOM     20  H   UNL     1      -1.582  14.820  18.040  0.00  0.00    +0.000 HD
ENDROOT
BRANCH   1  21
ATOM     21  C   UNL     1      -0.122  10.341  22.792  0.00  0.00    +0.000 C 
ATOM     22  O   UNL     1       0.175   9.756  23.843  0.00  0.00    +0.000 OA
BRANCH  21  26
ATOM     23  C   UNL     1      -2.867  13.647  23.292  0.00  0.00    +0.000 A 
ATOM     24  C   UNL     1      -3.243  12.331  23.543  0.00  0.00    +0.000 A 
ATOM     25  C   UNL     1      -2.321  11.297  23.390  0.00  0.00    +0.000 A 
ATOM     26  C   UNL     1      -0.998  11.542  22.953  0.00  0.00    +0.000 A 
ATOM     27  C   UNL     1      -0.634  12.866  22.696  0.00  0.00    +0.000 A 
ATOM     28  C   UNL     1      -1.565  13.911  22.869  0.00  0.00    +0.000 A 
BRANCH  23  30
ATOM     29  C   UNL     1      -3.786  15.434  24.559  0.00  0.00    +0.000 C 
ATOM     30  O   UNL     1      -3.876  14.556  23.444  0.00  0.00    +0.000 OA
ENDBRANCH  23  30
ENDBRANCH  21  26
ENDBRANCH   1  21
TORSDOF 3
ENDMDL
MODEL 3
REMARK VINA RESULT:      -7.9      0.468      1.023
REMARK  Name = 
REMARK  5 active torsions:
REMARK  status: ('A' for Active; 'I' for Inactive)
REMARK    1  A    between atoms: C_1  and  O_2
REMARK    2  A    between atoms: O_2  and  C_3
REMARK    3  A    between atoms: C_6  and  C_7
REMARK    4  A    between atoms: C_7  and  C_9
REMARK    5  A    between atoms: C_15  and  C_16
REMARK                            x       y       z     vdW  Elec       q    Type
REMARK                         _______ _______ _______ _____ _____    ______ ____
ROOT
ATOM      1  C   UNL     1       2.683   6.764  18.073  0.00  0.00    +0.000 A 
ATOM      2  N   UNL     1       3.955   6.500  17.740  0.00  0.00    +0.000 NA
ATOM      3  C   UNL     1       4.378   5.231  17.719  0.00  0.00    +0.000 A 
ATOM      4  N   UNL     1       5.676   4.956  17.212  0.00  0.00    +0.000 N 
ATOM      5  C   UNL     1       6.630   5.907  17.128  0.00  0.00    +0.000 A 
ATOM      6  C   UNL     1       6.923   6.782  18.190  0.00  0.00    +0.000 A 
ATOM      7  C   UNL     1       7.780   7.716  17.657  0.00  0.00    +0.000 A 
ATOM      8  C   UNL     1       8.301   8.965  18.237  0.00  0.00    +0.000 C 
ATOM      9  N   UNL     1       8.022   7.294  16.378  0.00  0.00    +0.000 N 
ATOM     10  N   UNL     1       7.376   6.156  16.051  0.00  0.00    +0.000 NA
ATOM     11  C   UNL     1       3.551   4.188  18.109  0.00  0.00    +0.000 A 
ATOM     12  C   UNL     1       4.019   2.863  18.279  0.00  0.00    +0.000 A 
ATOM     13  C   UNL     1       3.131   1.843  18.575  0.00  0.00    +0.000 A 
ATOM     14  C   UNL     1       1.781   2.150  18.669  0.00  0.00    +0.000 A 
ATOM     15 CL   UNL     1       0.650   0.876  18.906  0.00  0.00    +0.000 Cl
ATOM     16  C   UNL     1       1.333   3.476  18.569  0.00  0.00    +0.000 A 
ATOM     17  C   UNL     1       2.208   4.534  18.337  0.00  0.00    +0.000 A 
ATOM     18  N   UNL     1       1.766   5.816  18.327  0.00  0.00    +0.000 NA
ATOM     19  H   UNL     1       5.573   4.437  16.344  0.00  0.00    +0.000 HD
ATOM     20  H   UNL     1       8.586   7.745  15.665  0.00  0.00    +0.000 HD
ENDROOT
BRANCH   1  21
ATOM     21  C   UNL     1       2.391   8.237  18.148  0.00  0.00    +0.000 C 
ATOM     22  O   UNL     1       2.890   8.957  17.271  0.00  0.00    +0.000 OA
BRANCH  21  26
ATOM     23  C   UNL     1      -0.014  10.513  20.931  0.00  0.00    +0.000 A 
ATOM     24  C   UNL     1       0.145  10.901  19.604  0.00  0.00    +0.000 A 
ATOM     25  C   UNL     1       0.911  10.127  18.735  0.00  0.00    +0.000 A 
ATOM     26  C   UNL     1       1.568   8.953  19.171  0.00  0.00    +0.000 A 
ATOM     27  C   UNL     1       1.409   8.577  20.507  0.00  0.00    +0.000 A 
ATOM     28  C   UNL     1       0.618   9.353  21.379  0.00  0.00    +0.000 A 
BRANCH  23  30
ATOM     29  C   UNL     1      -1.121  10.947  22.988  0.00  0.00    +0.000 C 
ATOM     30  O   UNL     1      -0.759  11.379  21.683  0.00  0.00    +0.000 OA
ENDBRANCH  23  30
ENDBRANCH  21  26
ENDBRANCH   1  21
TORSDOF 3
ENDMDL
MODEL 4
REMARK VINA RESULT:      -7.8      4.234      6.814
REMARK  Name = 
REMARK  5 active torsions:
REMARK  status: ('A' for Active; 'I' for Inactive)
REMARK    1  A    between atoms: C_1  and  O_2
REMARK    2  A    between atoms: O_2  and  C_3
REMARK    3  A    between atoms: C_6  and  C_7
REMARK    4  A    between atoms: C_7  and  C_9
REMARK    5  A    between atoms: C_15  and  C_16
REMARK                            x       y       z     vdW  Elec       q    Type
REMARK                         _______ _______ _______ _____ _____    ______ ____
ROOT
ATOM      1  C   UNL     1       0.408   9.732  21.534  0.00  0.00    +0.000 A 
ATOM      2  N   UNL     1       0.345  10.596  20.511  0.00  0.00    +0.000 NA
ATOM      3  C   UNL     1       0.881  10.259  19.333  0.00  0.00    +0.000 A 
ATOM      4  N   UNL     1       0.667  11.115  18.219  0.00  0.00    +0.000 N 
ATOM      5  C   UNL     1       0.307  12.407  18.365  0.00  0.00    +0.000 A 
ATOM      6  C   UNL     1       0.951  13.275  19.266  0.00  0.00    +0.000 A 
ATOM      7  C   UNL     1       0.179  14.413  19.278  0.00  0.00    +0.000 A 
ATOM      8  C   UNL     1       0.258  15.603  20.142  0.00  0.00    +0.000 C 
ATOM      9  N   UNL     1      -0.788  14.202  18.334  0.00  0.00    +0.000 N 
ATOM     10  N   UNL     1      -0.694  13.005  17.720  0.00  0.00    +0.000 NA
ATOM     11  C   UNL     1       1.569   9.067  19.168  0.00  0.00    +0.000 A 
ATOM     12  C   UNL     1       2.307   8.764  17.998  0.00  0.00    +0.000 A 
ATOM     13  C   UNL     1       2.894   7.519  17.847  0.00  0.00    +0.000 A 
ATOM     14  C   UNL     1       2.715   6.579  18.852  0.00  0.00    +0.000 A 
ATOM     15 CL   UNL     1       3.326   4.987  18.623  0.00  0.00    +0.000 Cl
ATOM     16  C   UNL     1       2.043   6.908  20.038  0.00  0.00    +0.000 A 
ATOM     17  C   UNL     1       1.497   8.172  20.250  0.00  0.00    +0.000 A 
ATOM     18  N   UNL     1       0.926   8.496  21.436  0.00  0.00    +0.000 NA
ATOM     19  H   UNL     1       0.076  10.623  17.553  0.00  0.00    +0.000 HD
ATOM     20  H   UNL     1      -1.559  14.811  18.079  0.00  0.00    +0.000 HD
ENDROOT
BRANCH   1  21
ATOM     21  C   UNL     1      -0.148  10.296  22.812  0.00  0.00    +0.000 C 
ATOM     22  O   UNL     1       0.212   9.759  23.869  0.00  0.00    +0.000 OA
BRANCH  21  26
ATOM     23  C   UNL     1      -2.700  13.764  23.221  0.00  0.00    +0.000 A 
ATOM     24  C   UNL     1      -1.381  13.865  22.788  0.00  0.00    +0.000 A 
ATOM     25  C   UNL     1      -0.600  12.720  22.650  0.00  0.00    +0.000 A 
ATOM     26  C   UNL     1      -1.102  11.436  22.967  0.00  0.00    +0.000 A 
ATOM     27  C   UNL     1      -2.424  11.347  23.408  0.00  0.00    +0.000 A 
ATOM     28  C   UNL     1      -3.218  12.507  23.530  0.00  0.00    +0.000 A 
BRANCH  23  30
ATOM     29  C   UNL     1      -2.633  16.120  22.918  0.00  0.00    +0.000 C 
ATOM     30  O   UNL     1      -3.342  14.965  23.349  0.00  0.00    +0.000 OA
ENDBRANCH  23  30
ENDBRANCH  21  26
ENDBRANCH   1  21
TORSDOF 3
ENDMDL
MODEL 5
REMARK VINA RESULT:      -7.7      7.503      9.442
REMARK  Name = 
REMARK  5 active torsions:
REMARK  status: ('A' for Active; 'I' for Inactive)
REMARK    1  A    between atoms: C_1  and  O_2
REMARK    2  A    between atoms: O_2  and  C_3
REMARK    3  A    between atoms: C_6  and  C_7
REMARK    4  A    between atoms: C_7  and  C_9
REMARK    5  A    between atoms: C_15  and  C_16
REMARK                            x       y       z     vdW  Elec       q    Type
REMARK                         _______ _______ _______ _____ _____    ______ ____
ROOT
ATOM      1  C   UNL     1      -0.436  12.136  21.487  0.00  0.00    +0.000 A 
ATOM      2  N   UNL     1      -0.834  11.733  20.271  0.00  0.00    +0.000 NA
ATOM      3  C   UNL     1      -0.094  12.046  19.201  0.00  0.00    +0.000 A 
ATOM      4  N   UNL     1      -0.442  11.478  17.946  0.00  0.00    +0.000 N 
ATOM      5  C   UNL     1      -1.671  10.980  17.699  0.00  0.00    +0.000 A 
ATOM      6  C   UNL     1      -2.850  11.674  18.029  0.00  0.00    +0.000 A 
ATOM      7  C   UNL     1      -3.865  10.769  17.821  0.00  0.00    +0.000 A 
ATOM      8  C   UNL     1      -5.299  10.863  18.145  0.00  0.00    +0.000 C 
ATOM      9  N   UNL     1      -3.259   9.662  17.296  0.00  0.00    +0.000 N 
ATOM     10  N   UNL     1      -1.924   9.789  17.156  0.00  0.00    +0.000 NA
ATOM     11  C   UNL     1       1.034  12.843  19.313  0.00  0.00    +0.000 A 
ATOM     12  C   UNL     1       1.730  13.347  18.187  0.00  0.00    +0.000 A 
ATOM     13  C   UNL     1       2.906  14.058  18.355  0.00  0.00    +0.000 A 
ATOM     14  C   UNL     1       3.393  14.234  19.643  0.00  0.00    +0.000 A 
ATOM     15 CL   UNL     1       4.917  15.000  19.861  0.00  0.00    +0.000 Cl
ATOM     16  C   UNL     1       2.663  13.792  20.757  0.00  0.00    +0.000 A 
ATOM     17  C   UNL     1       1.444  13.132  20.626  0.00  0.00    +0.000 A 
ATOM     18  N   UNL     1       0.715  12.789  21.717  0.00  0.00    +0.000 NA
ATOM     19  H   UNL     1       0.297  10.834  17.676  0.00  0.00    +0.000 HD
ATOM     20  H   UNL     1      -3.684   8.776  17.041  0.00  0.00    +0.000 HD
ENDROOT
BRANCH   1  21
ATOM     21  C   UNL     1      -1.423  11.794  22.569  0.00  0.00    +0.000 C 
ATOM     22  O   UNL     1      -1.048  10.999  23.442  0.00  0.00    +0.000 OA
BRANCH  21  26
ATOM     23  C   UNL     1      -5.470  13.156  23.257  0.00  0.00    +0.000 A 
ATOM     24  C   UNL     1      -4.656  12.707  24.293  0.00  0.00    +0.000 A 
ATOM     25  C   UNL     1      -3.350  12.297  24.030  0.00  0.00    +0.000 A 
ATOM     26  C   UNL     1      -2.823  12.296  22.718  0.00  0.00    +0.000 A 
ATOM     27  C   UNL     1      -3.651  12.740  21.685  0.00  0.00    +0.000 A 
ATOM     28  C   UNL     1      -4.966  13.171  21.957  0.00  0.00    +0.000 A 
BRANCH  23  30
ATOM     29  C   UNL     1      -7.498  14.280  22.738  0.00  0.00    +0.000 C 
ATOM     30  O   UNL     1      -6.737  13.492  23.645  0.00  0.00    +0.000 OA
ENDBRANCH  23  30
ENDBRANCH  21  26
ENDBRANCH   1  21
TORSDOF 3
ENDMDL
MODEL 6
REMARK VINA RESULT:      -7.6      1.883      2.157
REMARK  Name = 
REMARK  5 active torsions:
REMARK  status: ('A' for Active; 'I' for Inactive)
REMARK    1  A    between atoms: C_1  and  O_2
REMARK    2  A    between atoms: O_2  and  C_3
REMARK    3  A    between atoms: C_6  and  C_7
REMARK    4  A    between atoms: C_7  and  C_9
REMARK    5  A    between atoms: C_15  and  C_16
REMARK                            x       y       z     vdW  Elec       q    Type
REMARK                         _______ _______ _______ _____ _____    ______ ____
ROOT
ATOM      1  C   UNL     1       2.590   6.735  19.046  0.00  0.00    +0.000 A 
ATOM      2  N   UNL     1       3.772   6.274  18.614  0.00  0.00    +0.000 NA
ATOM      3  C   UNL     1       4.189   5.065  19.006  0.00  0.00    +0.000 A 
ATOM      4  N   UNL     1       5.363   4.527  18.415  0.00  0.00    +0.000 N 
ATOM      5  C   UNL     1       6.278   5.304  17.799  0.00  0.00    +0.000 A 
ATOM      6  C   UNL     1       6.770   6.492  18.370  0.00  0.00    +0.000 A 
ATOM      7  C   UNL     1       7.501   7.092  17.371  0.00  0.00    +0.000 A 
ATOM      8  C   UNL     1       8.120   8.427  17.321  0.00  0.00    +0.000 C 
ATOM      9  N   UNL     1       7.489   6.202  16.333  0.00  0.00    +0.000 N 
ATOM     10  N   UNL     1       6.797   5.074  16.593  0.00  0.00    +0.000 NA
ATOM     11  C   UNL     1       3.459   4.308  19.910  0.00  0.00    +0.000 A 
ATOM     12  C   UNL     1       3.957   3.116  20.488  0.00  0.00    +0.000 A 
ATOM     13  C   UNL     1       3.149   2.350  21.311  0.00  0.00    +0.000 A 
ATOM     14  C   UNL     1       1.843   2.765  21.525  0.00  0.00    +0.000 A 
ATOM     15 CL   UNL     1       0.786   1.759  22.437  0.00  0.00    +0.000 Cl
ATOM     16  C   UNL     1       1.378   3.983  21.007  0.00  0.00    +0.000 A 
ATOM     17  C   UNL     1       2.186   4.810  20.230  0.00  0.00    +0.000 A 
ATOM     18  N   UNL     1       1.744   6.021  19.809  0.00  0.00    +0.000 NA
ATOM     19  H   UNL     1       5.094   3.727  17.849  0.00  0.00    +0.000 HD
ATOM     20  H   UNL     1       7.900   6.308  15.411  0.00  0.00    +0.000 HD
ENDROOT
BRANCH   1  21
ATOM     21  C   UNL     1       2.311   8.143  18.601  0.00  0.00    +0.000 C 
ATOM     22  O   UNL     1       3.063   8.621  17.739  0.00  0.00    +0.000 OA
BRANCH  21  26
ATOM     23  C   UNL     1      -0.854  10.863  19.740  0.00  0.00    +0.000 A 
ATOM     24  C   UNL     1      -0.572  10.575  18.408  0.00  0.00    +0.000 A 
ATOM     25  C   UNL     1       0.443   9.676  18.085  0.00  0.00    +0.000 A 
ATOM     26  C   UNL     1       1.229   9.055  19.084  0.00  0.00    +0.000 A 
ATOM     27  C   UNL     1       0.943   9.358  20.417  0.00  0.00    +0.000 A 
ATOM     28  C   UNL     1      -0.097  10.254  20.740  0.00  0.00    +0.000 A 
BRANCH  23  30
ATOM     29  C   UNL     1      -2.823  11.882  18.887  0.00  0.00    +0.000 C 
ATOM     30  O   UNL     1      -1.847  11.786  19.916  0.00  0.00    +0.000 OA
ENDBRANCH  23  30
ENDBRANCH  21  26
ENDBRANCH   1  21
TORSDOF 3
ENDMDL
MODEL 7
REMARK VINA RESULT:      -7.5      1.588      1.648
REMARK  Name = 
REMARK  5 active torsions:
REMARK  status: ('A' for Active; 'I' for Inactive)
REMARK    1  A    between atoms: C_1  and  O_2
REMARK    2  A    between atoms: O_2  and  C_3
REMARK    3  A    between atoms: C_6  and  C_7
REMARK    4  A    between atoms: C_7  and  C_9
REMARK    5  A    between atoms: C_15  and  C_16
REMARK                            x       y       z     vdW  Elec       q    Type
REMARK                         _______ _______ _______ _____ _____    ______ ____
ROOT
ATOM      1  C   UNL     1       2.568   6.708  19.039  0.00  0.00    +0.000 A 
ATOM      2  N   UNL     1       3.756   6.255  18.614  0.00  0.00    +0.000 NA
ATOM      3  C   UNL     1       4.180   5.050  19.012  0.00  0.00    +0.000 A 
ATOM      4  N   UNL     1       5.360   4.518  18.428  0.00  0.00    +0.000 N 
ATOM      5  C   UNL     1       6.272   5.300  17.813  0.00  0.00    +0.000 A 
ATOM      6  C   UNL     1       6.753   6.494  18.382  0.00  0.00    +0.000 A 
ATOM      7  C   UNL     1       7.485   7.095  17.384  0.00  0.00    +0.000 A 
ATOM      8  C   UNL     1       8.094   8.434  17.332  0.00  0.00    +0.000 C 
ATOM      9  N   UNL     1       7.483   6.201  16.349  0.00  0.00    +0.000 N 
ATOM     10  N   UNL     1       6.798   5.070  16.610  0.00  0.00    +0.000 NA
ATOM     11  C   UNL     1       3.452   4.291  19.916  0.00  0.00    +0.000 A 
ATOM     12  C   UNL     1       3.956   3.105  20.501  0.00  0.00    +0.000 A 
ATOM     13  C   UNL     1       3.150   2.336  21.322  0.00  0.00    +0.000 A 
ATOM     14  C   UNL     1       1.839   2.742  21.530  0.00  0.00    +0.000 A 
ATOM     15 CL   UNL     1       0.786   1.732  22.440  0.00  0.00    +0.000 Cl
ATOM     16  C   UNL     1       1.368   3.955  21.005  0.00  0.00    +0.000 A 
ATOM     17  C   UNL     1       2.173   4.785  20.228  0.00  0.00    +0.000 A 
ATOM     18  N   UNL     1       1.725   5.991  19.801  0.00  0.00    +0.000 NA
ATOM     19  H   UNL     1       5.099   3.714  17.864  0.00  0.00    +0.000 HD
ATOM     20  H   UNL     1       7.898   6.307  15.428  0.00  0.00    +0.000 HD
ENDROOT
BRANCH   1  21
ATOM     21  C   UNL     1       2.282   8.113  18.588  0.00  0.00    +0.000 C 
ATOM     22  O   UNL     1       2.923   8.535  17.615  0.00  0.00    +0.000 OA
BRANCH  21  26
ATOM     23  C   UNL     1      -0.490  10.793  20.550  0.00  0.00    +0.000 A 
ATOM     24  C   UNL     1       0.322   9.917  21.265  0.00  0.00    +0.000 A 
ATOM     25  C   UNL     1       1.217   9.086  20.594  0.00  0.00    +0.000 A 
ATOM     26  C   UNL     1       1.311   9.082  19.183  0.00  0.00    +0.000 A 
ATOM     27  C   UNL     1       0.486   9.959  18.475  0.00  0.00    +0.000 A 
ATOM     28  C   UNL     1      -0.406  10.812  19.158  0.00  0.00    +0.000 A 
BRANCH  23  30
ATOM     29  C   UNL     1      -1.138  11.475  22.731  0.00  0.00    +0.000 C 
ATOM     30  O   UNL     1      -1.346  11.524  21.326  0.00  0.00    +0.000 OA
ENDBRANCH  23  30
ENDBRANCH  21  26
ENDBRANCH   1  21
TORSDOF 3
ENDMDL
MODEL 8
REMARK VINA RESULT:      -7.5      5.079      9.128
REMARK  Name = 
REMARK  5 active torsions:
REMARK  status: ('A' for Active; 'I' for Inactive)
REMARK    1  A    between atoms: C_1  and  O_2
REMARK    2  A    between atoms: O_2  and  C_3
REMARK    3  A    between atoms: C_6  and  C_7
REMARK    4  A    between atoms: C_7  and  C_9
REMARK    5  A    between atoms: C_15  and  C_16
REMARK                            x       y       z     vdW  Elec       q    Type
REMARK                         _______ _______ _______ _____ _____    ______ ____
ROOT
ATOM      1  C   UNL     1      -0.643  10.321  18.775  0.00  0.00    +0.000 A 
ATOM      2  N   UNL     1      -1.446  11.102  19.511  0.00  0.00    +0.000 NA
ATOM      3  C   UNL     1      -2.612  11.513  19.000  0.00  0.00    +0.000 A 
ATOM      4  N   UNL     1      -3.519  12.205  19.846  0.00  0.00    +0.000 N 
ATOM      5  C   UNL     1      -3.121  12.806  20.986  0.00  0.00    +0.000 A 
ATOM      6  C   UNL     1      -1.989  13.640  21.047  0.00  0.00    +0.000 A 
ATOM      7  C   UNL     1      -1.795  13.882  22.387  0.00  0.00    +0.000 A 
ATOM      8  C   UNL     1      -0.681  14.552  23.079  0.00  0.00    +0.000 C 
ATOM      9  N   UNL     1      -2.852  13.284  23.017  0.00  0.00    +0.000 N 
ATOM     10  N   UNL     1      -3.709  12.670  22.175  0.00  0.00    +0.000 NA
ATOM     11  C   UNL     1      -2.974  11.211  17.696  0.00  0.00    +0.000 A 
ATOM     12  C   UNL     1      -4.104  11.782  17.063  0.00  0.00    +0.000 A 
ATOM     13  C   UNL     1      -4.474  11.372  15.794  0.00  0.00    +0.000 A 
ATOM     14  C   UNL     1      -3.730  10.375  15.180  0.00  0.00    +0.000 A 
ATOM     15 CL   UNL     1      -4.252   9.761  13.659  0.00  0.00    +0.000 Cl
ATOM     16  C   UNL     1      -2.571   9.863  15.782  0.00  0.00    +0.000 A 
ATOM     17  C   UNL     1      -2.134  10.302  17.030  0.00  0.00    +0.000 A 
ATOM     18  N   UNL     1      -0.967   9.856  17.557  0.00  0.00    +0.000 NA
ATOM     19  H   UNL     1      -4.333  11.612  19.987  0.00  0.00    +0.000 HD
ATOM     20  H   UNL     1      -3.037  13.225  24.013  0.00  0.00    +0.000 HD
ENDROOT
BRANCH   1  21
ATOM     21  C   UNL     1       0.669  10.029  19.449  0.00  0.00    +0.000 C 
ATOM     22  O   UNL     1       1.094  10.876  20.246  0.00  0.00    +0.000 OA
BRANCH  21  26
ATOM     23  C   UNL     1       3.222   6.628  18.658  0.00  0.00    +0.000 A 
ATOM     24  C   UNL     1       3.060   7.659  17.737  0.00  0.00    +0.000 A 
ATOM     25  C   UNL     1       2.244   8.747  18.041  0.00  0.00    +0.000 A 
ATOM     26  C   UNL     1       1.541   8.828  19.266  0.00  0.00    +0.000 A 
ATOM     27  C   UNL     1       1.704   7.784  20.179  0.00  0.00    +0.000 A 
ATOM     28  C   UNL     1       2.545   6.693  19.875  0.00  0.00    +0.000 A 
BRANCH  23  30
ATOM     29  C   UNL     1       4.835   4.967  19.193  0.00  0.00    +0.000 C 
ATOM     30  O   UNL     1       4.018   5.606  18.220  0.00  0.00    +0.000 OA
ENDBRANCH  23  30
ENDBRANCH  21  26
ENDBRANCH   1  21
TORSDOF 3
ENDMDL
MODEL 9
REMARK VINA RESULT:      -7.5      7.430     11.387
REMARK  Name = 
REMARK  5 active torsions:
REMARK  status: ('A' for Active; 'I' for Inactive)
REMARK    1  A    between atoms: C_1  and  O_2
REMARK    2  A    between atoms: O_2  and  C_3
REMARK    3  A    between atoms: C_6  and  C_7
REMARK    4  A    between atoms: C_7  and  C_9
REMARK    5  A    between atoms: C_15  and  C_16
REMARK                            x       y       z     vdW  Elec       q    Type
REMARK                         _______ _______ _______ _____ _____    ______ ____
ROOT
ATOM      1  C   UNL     1      -4.746  13.031  21.607  0.00  0.00    +0.000 A 
ATOM      2  N   UNL     1      -3.576  12.524  22.020  0.00  0.00    +0.000 NA
ATOM      3  C   UNL     1      -2.904  13.135  23.002  0.00  0.00    +0.000 A 
ATOM      4  N   UNL     1      -1.752  12.499  23.535  0.00  0.00    +0.000 N 
ATOM      5  C   UNL     1      -1.084  11.541  22.860  0.00  0.00    +0.000 A 
ATOM      6  C   UNL     1      -0.728  11.677  21.505  0.00  0.00    +0.000 A 
ATOM      7  C   UNL     1      -0.262  10.437  21.133  0.00  0.00    +0.000 A 
ATOM      8  C   UNL     1       0.102   9.922  19.802  0.00  0.00    +0.000 C 
ATOM      9  N   UNL     1      -0.270   9.691  22.279  0.00  0.00    +0.000 N 
ATOM     10  N   UNL     1      -0.711  10.363  23.361  0.00  0.00    +0.000 NA
ATOM     11  C   UNL     1      -3.354  14.327  23.550  0.00  0.00    +0.000 A 
ATOM     12  C   UNL     1      -2.580  15.095  24.452  0.00  0.00    +0.000 A 
ATOM     13  C   UNL     1      -3.116  16.226  25.043  0.00  0.00    +0.000 A 
ATOM     14  C   UNL     1      -4.431  16.563  24.752  0.00  0.00    +0.000 A 
ATOM     15 CL   UNL     1      -5.155  17.888  25.576  0.00  0.00    +0.000 Cl
ATOM     16  C   UNL     1      -5.169  15.838  23.805  0.00  0.00    +0.000 A 
ATOM     17  C   UNL     1      -4.636  14.734  23.143  0.00  0.00    +0.000 A 
ATOM     18  N   UNL     1      -5.337  14.099  22.170  0.00  0.00    +0.000 NA
ATOM     19  H   UNL     1      -1.957  12.224  24.492  0.00  0.00    +0.000 HD
ATOM     20  H   UNL     1      -0.019   8.714  22.393  0.00  0.00    +0.000 HD
ENDROOT
BRANCH   1  21
ATOM     21  C   UNL     1      -5.325  12.291  20.434  0.00  0.00    +0.000 C 
ATOM     22  O   UNL     1      -6.469  11.833  20.565  0.00  0.00    +0.000 OA
BRANCH  21  26
ATOM     23  C   UNL     1      -3.699  11.514  16.501  0.00  0.00    +0.000 A 
ATOM     24  C   UNL     1      -5.048  11.793  16.700  0.00  0.00    +0.000 A 
ATOM     25  C   UNL     1      -5.526  12.059  17.982  0.00  0.00    +0.000 A 
ATOM     26  C   UNL     1      -4.677  12.027  19.113  0.00  0.00    +0.000 A 
ATOM     27  C   UNL     1      -3.327  11.736  18.902  0.00  0.00    +0.000 A 
ATOM     28  C   UNL     1      -2.843  11.486  17.602  0.00  0.00    +0.000 A 
BRANCH  23  30
ATOM     29  C   UNL     1      -2.964   9.903  14.917  0.00  0.00    +0.000 C 
ATOM     30  O   UNL     1      -3.370  11.235  15.204  0.00  0.00    +0.000 OA
ENDBRANCH  23  30
ENDBRANCH  21  26
ENDBRANCH   1  21
TORSDOF 3
ENDMDL
