MODEL 1
REMARK VINA RESULT:      -7.3      0.000      0.000
REMARK  Name = 
REMARK  10 active torsions:
REMARK  status: ('A' for Active; 'I' for Inactive)
REMARK    1  A    between atoms: C_1  and  C_2
REMARK    2  A    between atoms: C_8  and  O_9
REMARK    3  A    between atoms: O_9  and  C_10
REMARK    4  A    between atoms: C_10  and  C_11
REMARK    5  A    between atoms: C_11  and  O_13
REMARK    6  A    between atoms: O_13  and  C_14
REMARK    7  A    between atoms: C_14  and  C_15
REMARK    8  A    between atoms: C_14  and  P_16
REMARK    9  A    between atoms: C_20  and  C_21
REMARK   10  A    between atoms: C_20  and  C_22
REMARK                            x       y       z     vdW  Elec       q    Type
REMARK                         _______ _______ _______ _____ _____    ______ ____
ROOT
ATOM      1  C   UNL     1       2.255   6.934  19.492  0.00  0.00    +0.000 C 
ATOM      2  O   UNL     1       2.764   7.767  18.752  0.00  0.00    +0.000 OA
ENDROOT
BRANCH   1   3
ATOM      3  C   UNL     1       1.435   7.257  20.730  0.00  0.00    +0.000 C 
BRANCH   3   4
ATOM      4  O   UNL     1       1.747   8.492  21.320  0.00  0.00    +0.000 OA
BRANCH   4  12
ATOM      5  C   UNL     1       0.638  10.562  19.160  0.00  0.00    +0.000 C 
ATOM      6  C   UNL     1       0.226  10.372  20.596  0.00  0.00    +0.000 A 
ATOM      7  C   UNL     1      -0.802  11.236  21.052  0.00  0.00    +0.000 A 
ATOM      8  C   UNL     1      -1.270  11.174  22.364  0.00  0.00    +0.000 A 
ATOM      9 CL   UNL     1      -2.510  12.249  22.877  0.00  0.00    +0.000 Cl
ATOM     10  C   UNL     1      -0.736  10.255  23.252  0.00  0.00    +0.000 A 
ATOM     11  C   UNL     1       0.274   9.395  22.814  0.00  0.00    +0.000 A 
ATOM     12  C   UNL     1       0.768   9.433  21.498  0.00  0.00    +0.000 A 
ENDBRANCH   4  12
ENDBRANCH   3   4
ENDBRANCH   1   3
BRANCH   1  13
ATOM     13  O   UNL     1       2.171   5.605  19.206  0.00  0.00    +0.000 OA
BRANCH  13  14
ATOM     14  C   UNL     1       3.123   4.803  19.925  0.00  0.00    +0.000 C 
ATOM     15  C   UNL     1       2.435   3.724  20.741  0.00  0.00    +0.000 C 
BRANCH  14  16
ATOM     16  P   UNL     1       4.227   4.098  18.667  0.00  0.00    +0.000 P 
ATOM     17  O   UNL     1       3.918   2.691  18.258  0.00  0.00    +0.000 OA
ATOM     18  O   UNL     1       5.677   4.259  19.345  0.00  0.00    +0.000 OA
ATOM     19  C   UNL     1       6.302   5.520  19.243  0.00  0.00    +0.000 C 
ATOM     20  C   UNL     1       6.655   5.740  17.779  0.00  0.00    +0.000 C 
ATOM     21  C   UNL     1       7.491   7.018  17.626  0.00  0.00    +0.000 C 
ATOM     22  C   UNL     1       7.489   4.551  17.257  0.00  0.00    +0.000 C 
ATOM     23  C   UNL     1       5.343   5.870  16.976  0.00  0.00    +0.000 C 
ATOM     24  O   UNL     1       4.215   5.143  17.442  0.00  0.00    +0.000 OA
ENDBRANCH  14  16
ENDBRANCH  13  14
ENDBRANCH   1  13
TORSDOF 6
ENDMDL
MODEL 2
REMARK VINA RESULT:      -7.3      1.188      1.438
REMARK  Name = 
REMARK  10 active torsions:
REMARK  status: ('A' for Active; 'I' for Inactive)
REMARK    1  A    between atoms: C_1  and  C_2
REMARK    2  A    between atoms: C_8  and  O_9
REMARK    3  A    between atoms: O_9  and  C_10
REMARK    4  A    between atoms: C_10  and  C_11
REMARK    5  A    between atoms: C_11  and  O_13
REMARK    6  A    between atoms: O_13  and  C_14
REMARK    7  A    between atoms: C_14  and  C_15
REMARK    8  A    between atoms: C_14  and  P_16
REMARK    9  A    between atoms: C_20  and  C_21
REMARK   10  A    between atoms: C_20  and  C_22
REMARK                            x       y       z     vdW  Elec       q    Type
REMARK                         _______ _______ _______ _____ _____    ______ ____
ROOT
ATOM      1  C   UNL     1       2.073   5.643  18.948  0.00  0.00    +0.000 C 
ATOM      2  O   UNL     1       1.992   6.065  17.802  0.00  0.00    +0.000 OA
ENDROOT
BRANCH   1   3
ATOM      3  C   UNL     1       1.958   6.498  20.200  0.00  0.00    +0.000 C 
BRANCH   3   4
ATOM      4  O   UNL     1       2.102   7.876  19.970  0.00  0.00    +0.000 OA
BRANCH   4  12
ATOM      5  C   UNL     1       0.284  10.004  18.440  0.00  0.00    +0.000 C 
ATOM      6  C   UNL     1       0.378   9.718  19.915  0.00  0.00    +0.000 A 
ATOM      7  C   UNL     1      -0.462  10.508  20.741  0.00  0.00    +0.000 A 
ATOM      8  C   UNL     1      -0.465  10.354  22.128  0.00  0.00    +0.000 A 
ATOM      9 CL   UNL     1      -1.491  11.340  23.091  0.00  0.00    +0.000 Cl
ATOM     10  C   UNL     1       0.358   9.415  22.726  0.00  0.00    +0.000 A 
ATOM     11  C   UNL     1       1.187   8.627  21.924  0.00  0.00    +0.000 A 
ATOM     12  C   UNL     1       1.213   8.758  20.523  0.00  0.00    +0.000 A 
ENDBRANCH   4  12
ENDBRANCH   3   4
ENDBRANCH   1   3
BRANCH   1  13
ATOM     13  O   UNL     1       2.070   4.322  19.280  0.00  0.00    +0.000 OA
BRANCH  13  14
ATOM     14  C   UNL     1       3.017   3.987  20.308  0.00  0.00    +0.000 C 
ATOM     15  C   UNL     1       2.439   2.984  21.290  0.00  0.00    +0.000 C 
BRANCH  14  16
ATOM     16  P   UNL     1       4.472   3.326  19.445  0.00  0.00    +0.000 P 
ATOM     17  O   UNL     1       5.038   2.063  20.016  0.00  0.00    +0.000 OA
ATOM     18  O   UNL     1       5.499   4.563  19.493  0.00  0.00    +0.000 OA
ATOM     19  C   UNL     1       5.336   5.577  18.525  0.00  0.00    +0.000 C 
ATOM     20  C   UNL     1       5.688   4.978  17.171  0.00  0.00    +0.000 C 
ATOM     21  C   UNL     1       5.697   6.075  16.097  0.00  0.00    +0.000 C 
ATOM     22  C   UNL     1       7.094   4.345  17.227  0.00  0.00    +0.000 C 
ATOM     23  C   UNL     1       4.630   3.909  16.821  0.00  0.00    +0.000 C 
ATOM     24  O   UNL     1       4.039   3.197  17.899  0.00  0.00    +0.000 OA
ENDBRANCH  14  16
ENDBRANCH  13  14
ENDBRANCH   1  13
TORSDOF 6
ENDMDL
MODEL 3
REMARK VINA RESULT:      -7.2      5.642      7.683
REMARK  Name = 
REMARK  10 active torsions:
REMARK  status: ('A' for Active; 'I' for Inactive)
REMARK    1  A    between atoms: C_1  and  C_2
REMARK    2  A    between atoms: C_8  and  O_9
REMARK    3  A    between atoms: O_9  and  C_10
REMARK    4  A    between atoms: C_10  and  C_11
REMARK    5  A    between atoms: C_11  and  O_13
REMARK    6  A    between atoms: O_13  and  C_14
REMARK    7  A    between atoms: C_14  and  C_15
REMARK    8  A    between atoms: C_14  and  P_16
REMARK    9  A    between atoms: C_20  and  C_21
REMARK   10  A    between atoms: C_20  and  C_22
REMARK                            x       y       z     vdW  Elec       q    Type
REMARK                         _______ _______ _______ _____ _____    ______ ____
ROOT
ATOM      1  C   UNL     1       7.836   7.349  18.085  0.00  0.00    +0.000 C 
ATOM      2  O   UNL     1       8.238   6.577  18.946  0.00  0.00    +0.000 OA
ENDROOT
BRANCH   1   3
ATOM      3  C   UNL     1       8.197   8.823  18.001  0.00  0.00    +0.000 C 
BRANCH   3   4
ATOM      4  O   UNL     1       8.893   9.309  19.120  0.00  0.00    +0.000 OA
BRANCH   4  12
ATOM      5  C   UNL     1       8.940  11.346  21.575  0.00  0.00    +0.000 C 
ATOM      6  C   UNL     1       9.428  11.544  20.164  0.00  0.00    +0.000 A 
ATOM      7  C   UNL     1       9.988  12.817  19.889  0.00  0.00    +0.000 A 
ATOM      8  C   UNL     1      10.468  13.137  18.618  0.00  0.00    +0.000 A 
ATOM      9 CL   UNL     1      11.128  14.697  18.327  0.00  0.00    +0.000 Cl
ATOM     10  C   UNL     1      10.407  12.205  17.596  0.00  0.00    +0.000 A 
ATOM     11  C   UNL     1       9.862  10.946  17.855  0.00  0.00    +0.000 A 
ATOM     12  C   UNL     1       9.370  10.592  19.125  0.00  0.00    +0.000 A 
ENDBRANCH   4  12
ENDBRANCH   3   4
ENDBRANCH   1   3
BRANCH   1  13
ATOM     13  O   UNL     1       7.176   6.962  16.958  0.00  0.00    +0.000 OA
BRANCH  13  14
ATOM     14  C   UNL     1       5.813   6.576  17.196  0.00  0.00    +0.000 C 
ATOM     15  C   UNL     1       4.882   7.146  16.140  0.00  0.00    +0.000 C 
BRANCH  14  16
ATOM     16  P   UNL     1       5.804   4.760  17.194  0.00  0.00    +0.000 P 
ATOM     17  O   UNL     1       6.880   4.113  16.378  0.00  0.00    +0.000 OA
ATOM     18  O   UNL     1       4.319   4.418  16.677  0.00  0.00    +0.000 OA
ATOM     19  C   UNL     1       3.277   4.462  17.627  0.00  0.00    +0.000 C 
ATOM     20  C   UNL     1       3.499   3.317  18.604  0.00  0.00    +0.000 C 
ATOM     21  C   UNL     1       2.305   3.204  19.562  0.00  0.00    +0.000 C 
ATOM     22  C   UNL     1       3.628   1.987  17.833  0.00  0.00    +0.000 C 
ATOM     23  C   UNL     1       4.789   3.602  19.403  0.00  0.00    +0.000 C 
ATOM     24  O   UNL     1       5.820   4.324  18.745  0.00  0.00    +0.000 OA
ENDBRANCH  14  16
ENDBRANCH  13  14
ENDBRANCH   1  13
TORSDOF 6
ENDMDL
MODEL 4
REMARK VINA RESULT:      -7.1      1.606      2.319
REMARK  Name = 
REMARK  10 active torsions:
REMARK  status: ('A' for Active; 'I' for Inactive)
REMARK    1  A    between atoms: C_1  and  C_2
REMARK    2  A    between atoms: C_8  and  O_9
REMARK    3  A    between atoms: O_9  and  C_10
REMARK    4  A    between atoms: C_10  and  C_11
REMARK    5  A    between atoms: C_11  and  O_13
REMARK    6  A    between atoms: O_13  and  C_14
REMARK    7  A    between atoms: C_14  and  C_15
REMARK    8  A    between atoms: C_14  and  P_16
REMARK    9  A    between atoms: C_20  and  C_21
REMARK   10  A    between atoms: C_20  and  C_22
REMARK                            x       y       z     vdW  Elec       q    Type
REMARK                         _______ _______ _______ _____ _____    ______ ____
ROOT
ATOM      1  C   UNL     1       1.452   4.581  20.327  0.00  0.00    +0.000 C 
ATOM      2  O   UNL     1       1.061   3.565  20.887  0.00  0.00    +0.000 OA
ENDROOT
BRANCH   1   3
ATOM      3  C   UNL     1       1.571   5.945  20.985  0.00  0.00    +0.000 C 
BRANCH   3   4
ATOM      4  O   UNL     1       1.987   6.968  20.118  0.00  0.00    +0.000 OA
BRANCH   4  12
ATOM      5  C   UNL     1       1.664   9.201  17.862  0.00  0.00    +0.000 C 
ATOM      6  C   UNL     1       1.320   9.270  19.326  0.00  0.00    +0.000 A 
ATOM      7  C   UNL     1       0.775  10.504  19.764  0.00  0.00    +0.000 A 
ATOM      8  C   UNL     1       0.424  10.707  21.099  0.00  0.00    +0.000 A 
ATOM      9 CL   UNL     1      -0.224  12.222  21.587  0.00  0.00    +0.000 Cl
ATOM     10  C   UNL     1       0.600   9.695  22.027  0.00  0.00    +0.000 A 
ATOM     11  C   UNL     1       1.132   8.473  21.608  0.00  0.00    +0.000 A 
ATOM     12  C   UNL     1       1.496   8.237  20.270  0.00  0.00    +0.000 A 
ENDBRANCH   4  12
ENDBRANCH   3   4
ENDBRANCH   1   3
BRANCH   1  13
ATOM     13  O   UNL     1       2.033   4.601  19.095  0.00  0.00    +0.000 OA
BRANCH  13  14
ATOM     14  C   UNL     1       2.740   3.391  18.775  0.00  0.00    +0.000 C 
ATOM     15  C   UNL     1       2.242   2.784  17.475  0.00  0.00    +0.000 C 
BRANCH  14  16
ATOM     16  P   UNL     1       4.493   3.852  18.677  0.00  0.00    +0.000 P 
ATOM     17  O   UNL     1       5.372   3.268  19.740  0.00  0.00    +0.000 OA
ATOM     18  O   UNL     1       4.435   5.460  18.713  0.00  0.00    +0.000 OA
ATOM     19  C   UNL     1       4.151   6.124  17.500  0.00  0.00    +0.000 C 
ATOM     20  C   UNL     1       5.339   5.911  16.572  0.00  0.00    +0.000 C 
ATOM     21  C   UNL     1       5.169   6.751  15.299  0.00  0.00    +0.000 C 
ATOM     22  C   UNL     1       6.639   6.355  17.275  0.00  0.00    +0.000 C 
ATOM     23  C   UNL     1       5.410   4.412  16.208  0.00  0.00    +0.000 C 
ATOM     24  O   UNL     1       4.958   3.481  17.180  0.00  0.00    +0.000 OA
ENDBRANCH  14  16
ENDBRANCH  13  14
ENDBRANCH   1  13
TORSDOF 6
ENDMDL
MODEL 5
REMARK VINA RESULT:      -7.0      5.478      7.210
REMARK  Name = 
REMARK  10 active torsions:
REMARK  status: ('A' for Active; 'I' for Inactive)
REMARK    1  A    between atoms: C_1  and  C_2
REMARK    2  A    between atoms: C_8  and  O_9
REMARK    3  A    between atoms: O_9  and  C_10
REMARK    4  A    between atoms: C_10  and  C_11
REMARK    5  A    between atoms: C_11  and  O_13
REMARK    6  A    between atoms: O_13  and  C_14
REMARK    7  A    between atoms: C_14  and  C_15
REMARK    8  A    between atoms: C_14  and  P_16
REMARK    9  A    between atoms: C_20  and  C_21
REMARK   10  A    between atoms: C_20  and  C_22
REMARK                            x       y       z     vdW  Elec       q    Type
REMARK                         _______ _______ _______ _____ _____    ______ ____
ROOT
ATOM      1  C   UNL     1       7.698   7.501  17.916  0.00  0.00    +0.000 C 
ATOM      2  O   UNL     1       8.317   6.910  18.791  0.00  0.00    +0.000 OA
ENDROOT
BRANCH   1   3
ATOM      3  C   UNL     1       7.624   9.012  17.772  0.00  0.00    +0.000 C 
BRANCH   3   4
ATOM      4  O   UNL     1       8.873   9.653  17.784  0.00  0.00    +0.000 OA
BRANCH   4  12
ATOM      5  C   UNL     1       7.930  12.618  17.076  0.00  0.00    +0.000 C 
ATOM      6  C   UNL     1       8.665  12.117  18.291  0.00  0.00    +0.000 A 
ATOM      7  C   UNL     1       8.983  13.105  19.257  0.00  0.00    +0.000 A 
ATOM      8  C   UNL     1       9.673  12.779  20.425  0.00  0.00    +0.000 A 
ATOM      9 CL   UNL     1      10.047  14.011  21.564  0.00  0.00    +0.000 Cl
ATOM     10  C   UNL     1      10.059  11.471  20.663  0.00  0.00    +0.000 A 
ATOM     11  C   UNL     1       9.749  10.488  19.722  0.00  0.00    +0.000 A 
ATOM     12  C   UNL     1       9.055  10.784  18.535  0.00  0.00    +0.000 A 
ENDBRANCH   4  12
ENDBRANCH   3   4
ENDBRANCH   1   3
BRANCH   1  13
ATOM     13  O   UNL     1       7.155   6.898  16.822  0.00  0.00    +0.000 OA
BRANCH  13  14
ATOM     14  C   UNL     1       5.784   6.506  17.005  0.00  0.00    +0.000 C 
ATOM     15  C   UNL     1       4.908   7.003  15.868  0.00  0.00    +0.000 C 
BRANCH  14  16
ATOM     16  P   UNL     1       5.795   4.693  17.105  0.00  0.00    +0.000 P 
ATOM     17  O   UNL     1       6.860   4.012  16.303  0.00  0.00    +0.000 OA
ATOM     18  O   UNL     1       4.304   4.308  16.639  0.00  0.00    +0.000 OA
ATOM     19  C   UNL     1       3.281   4.395  17.608  0.00  0.00    +0.000 C 
ATOM     20  C   UNL     1       3.536   3.309  18.643  0.00  0.00    +0.000 C 
ATOM     21  C   UNL     1       2.364   3.239  19.631  0.00  0.00    +0.000 C 
ATOM     22  C   UNL     1       3.663   1.939  17.945  0.00  0.00    +0.000 C 
ATOM     23  C   UNL     1       4.839   3.651  19.397  0.00  0.00    +0.000 C 
ATOM     24  O   UNL     1       5.849   4.345  18.677  0.00  0.00    +0.000 OA
ENDBRANCH  14  16
ENDBRANCH  13  14
ENDBRANCH   1  13
TORSDOF 6
ENDMDL
MODEL 6
REMARK VINA RESULT:      -6.9      1.653      2.430
REMARK  Name = 
REMARK  10 active torsions:
REMARK  status: ('A' for Active; 'I' for Inactive)
REMARK    1  A    between atoms: C_1  and  C_2
REMARK    2  A    between atoms: C_8  and  O_9
REMARK    3  A    between atoms: O_9  and  C_10
REMARK    4  A    between atoms: C_10  and  C_11
REMARK    5  A    between atoms: C_11  and  O_13
REMARK    6  A    between atoms: O_13  and  C_14
REMARK    7  A    between atoms: C_14  and  C_15
REMARK    8  A    between atoms: C_14  and  P_16
REMARK    9  A    between atoms: C_20  and  C_21
REMARK   10  A    between atoms: C_20  and  C_22
REMARK                            x       y       z     vdW  Elec       q    Type
REMARK                         _______ _______ _______ _____ _____    ______ ____
ROOT
ATOM      1  C   UNL     1       2.371   7.222  18.816  0.00  0.00    +0.000 C 
ATOM      2  O   UNL     1       2.444   7.167  20.036  0.00  0.00    +0.000 OA
ENDROOT
BRANCH   1   3
ATOM      3  C   UNL     1       2.419   8.503  17.999  0.00  0.00    +0.000 C 
BRANCH   3   4
ATOM      4  O   UNL     1       1.259   9.289  18.091  0.00  0.00    +0.000 OA
BRANCH   4  12
ATOM      5  C   UNL     1      -0.157   9.317  20.950  0.00  0.00    +0.000 C 
ATOM      6  C   UNL     1       0.606  10.412  20.255  0.00  0.00    +0.000 A 
ATOM      7  C   UNL     1       0.710  11.630  20.975  0.00  0.00    +0.000 A 
ATOM      8  C   UNL     1       1.381  12.730  20.441  0.00  0.00    +0.000 A 
ATOM      9 CL   UNL     1       1.473  14.190  21.344  0.00  0.00    +0.000 Cl
ATOM     10  C   UNL     1       1.965  12.650  19.189  0.00  0.00    +0.000 A 
ATOM     11  C   UNL     1       1.874  11.455  18.471  0.00  0.00    +0.000 A 
ATOM     12  C   UNL     1       1.205  10.328  18.981  0.00  0.00    +0.000 A 
ENDBRANCH   4  12
ENDBRANCH   3   4
ENDBRANCH   1   3
BRANCH   1  13
ATOM     13  O   UNL     1       2.443   6.138  17.994  0.00  0.00    +0.000 OA
BRANCH  13  14
ATOM     14  C   UNL     1       2.655   4.901  18.694  0.00  0.00    +0.000 C 
ATOM     15  C   UNL     1       1.439   3.997  18.602  0.00  0.00    +0.000 C 
BRANCH  14  16
ATOM     16  P   UNL     1       4.119   4.144  17.933  0.00  0.00    +0.000 P 
ATOM     17  O   UNL     1       3.973   2.702  17.556  0.00  0.00    +0.000 OA
ATOM     18  O   UNL     1       5.260   4.400  19.039  0.00  0.00    +0.000 OA
ATOM     19  C   UNL     1       5.874   5.671  19.052  0.00  0.00    +0.000 C 
ATOM     20  C   UNL     1       6.693   5.796  17.775  0.00  0.00    +0.000 C 
ATOM     21  C   UNL     1       7.524   7.086  17.808  0.00  0.00    +0.000 C 
ATOM     22  C   UNL     1       7.661   4.601  17.653  0.00  0.00    +0.000 C 
ATOM     23  C   UNL     1       5.723   5.827  16.575  0.00  0.00    +0.000 C 
ATOM     24  O   UNL     1       4.509   5.099  16.696  0.00  0.00    +0.000 OA
ENDBRANCH  14  16
ENDBRANCH  13  14
ENDBRANCH   1  13
TORSDOF 6
ENDMDL
MODEL 7
REMARK VINA RESULT:      -6.9      5.476      7.455
REMARK  Name = 
REMARK  10 active torsions:
REMARK  status: ('A' for Active; 'I' for Inactive)
REMARK    1  A    between atoms: C_1  and  C_2
REMARK    2  A    between atoms: C_8  and  O_9
REMARK    3  A    between atoms: O_9  and  C_10
REMARK    4  A    between atoms: C_10  and  C_11
REMARK    5  A    between atoms: C_11  and  O_13
REMARK    6  A    between atoms: O_13  and  C_14
REMARK    7  A    between atoms: C_14  and  C_15
REMARK    8  A    between atoms: C_14  and  P_16
REMARK    9  A    between atoms: C_20  and  C_21
REMARK   10  A    between atoms: C_20  and  C_22
REMARK                            x       y       z     vdW  Elec       q    Type
REMARK                         _______ _______ _______ _____ _____    ______ ____
ROOT
ATOM      1  C   UNL     1       7.753   7.502  17.915  0.00  0.00    +0.000 C 
ATOM      2  O   UNL     1       8.268   6.885  18.838  0.00  0.00    +0.000 OA
ENDROOT
BRANCH   1   3
ATOM      3  C   UNL     1       7.908   8.995  17.673  0.00  0.00    +0.000 C 
BRANCH   3   4
ATOM      4  O   UNL     1       8.865   9.614  18.493  0.00  0.00    +0.000 OA
BRANCH   4  12
ATOM      5  C   UNL     1      11.133  11.333  19.936  0.00  0.00    +0.000 C 
ATOM      6  C   UNL     1      10.016  11.793  19.038  0.00  0.00    +0.000 A 
ATOM      7  C   UNL     1       9.966  13.191  18.800  0.00  0.00    +0.000 A 
ATOM      8  C   UNL     1       8.974  13.752  17.995  0.00  0.00    +0.000 A 
ATOM      9 CL   UNL     1       8.945  15.452  17.743  0.00  0.00    +0.000 Cl
ATOM     10  C   UNL     1       8.015  12.946  17.407  0.00  0.00    +0.000 A 
ATOM     11  C   UNL     1       8.055  11.567  17.630  0.00  0.00    +0.000 A 
ATOM     12  C   UNL     1       9.042  10.970  18.435  0.00  0.00    +0.000 A 
ENDBRANCH   4  12
ENDBRANCH   3   4
ENDBRANCH   1   3
BRANCH   1  13
ATOM     13  O   UNL     1       7.136   6.916  16.851  0.00  0.00    +0.000 OA
BRANCH  13  14
ATOM     14  C   UNL     1       5.777   6.532  17.117  0.00  0.00    +0.000 C 
ATOM     15  C   UNL     1       4.832   7.064  16.054  0.00  0.00    +0.000 C 
BRANCH  14  16
ATOM     16  P   UNL     1       5.776   4.717  17.173  0.00  0.00    +0.000 P 
ATOM     17  O   UNL     1       6.854   4.050  16.376  0.00  0.00    +0.000 OA
ATOM     18  O   UNL     1       4.293   4.352  16.668  0.00  0.00    +0.000 OA
ATOM     19  C   UNL     1       3.251   4.422  17.618  0.00  0.00    +0.000 C 
ATOM     20  C   UNL     1       3.480   3.309  18.631  0.00  0.00    +0.000 C 
ATOM     21  C   UNL     1       2.288   3.221  19.594  0.00  0.00    +0.000 C 
ATOM     22  C   UNL     1       3.614   1.956  17.902  0.00  0.00    +0.000 C 
ATOM     23  C   UNL     1       4.770   3.625  19.419  0.00  0.00    +0.000 C 
ATOM     24  O   UNL     1       5.797   4.330  18.736  0.00  0.00    +0.000 OA
ENDBRANCH  14  16
ENDBRANCH  13  14
ENDBRANCH   1  13
TORSDOF 6
ENDMDL
MODEL 8
REMARK VINA RESULT:      -6.9      1.448      1.939
REMARK  Name = 
REMARK  10 active torsions:
REMARK  status: ('A' for Active; 'I' for Inactive)
REMARK    1  A    between atoms: C_1  and  C_2
REMARK    2  A    between atoms: C_8  and  O_9
REMARK    3  A    between atoms: O_9  and  C_10
REMARK    4  A    between atoms: C_10  and  C_11
REMARK    5  A    between atoms: C_11  and  O_13
REMARK    6  A    between atoms: O_13  and  C_14
REMARK    7  A    between atoms: C_14  and  C_15
REMARK    8  A    between atoms: C_14  and  P_16
REMARK    9  A    between atoms: C_20  and  C_21
REMARK   10  A    between atoms: C_20  and  C_22
REMARK                            x       y       z     vdW  Elec       q    Type
REMARK                         _______ _______ _______ _____ _____    ______ ____
ROOT
ATOM      1  C   UNL     1       2.312   7.326  18.772  0.00  0.00    +0.000 C 
ATOM      2  O   UNL     1       2.302   7.232  19.993  0.00  0.00    +0.000 OA
ENDROOT
BRANCH   1   3
ATOM      3  C   UNL     1       2.367   8.634  18.001  0.00  0.00    +0.000 C 
BRANCH   3   4
ATOM      4  O   UNL     1       1.149   9.334  17.968  0.00  0.00    +0.000 OA
BRANCH   4  12
ATOM      5  C   UNL     1       2.464  12.238  18.091  0.00  0.00    +0.000 C 
ATOM      6  C   UNL     1       1.436  11.619  19.000  0.00  0.00    +0.000 A 
ATOM      7  C   UNL     1       0.989  12.446  20.062  0.00  0.00    +0.000 A 
ATOM      8  C   UNL     1       0.046  11.992  20.984  0.00  0.00    +0.000 A 
ATOM      9 CL   UNL     1      -0.460  13.025  22.262  0.00  0.00    +0.000 Cl
ATOM     10  C   UNL     1      -0.477  10.715  20.875  0.00  0.00    +0.000 A 
ATOM     11  C   UNL     1      -0.048   9.892  19.831  0.00  0.00    +0.000 A 
ATOM     12  C   UNL     1       0.901  10.319  18.885  0.00  0.00    +0.000 A 
ENDBRANCH   4  12
ENDBRANCH   3   4
ENDBRANCH   1   3
BRANCH   1  13
ATOM     13  O   UNL     1       2.486   6.274  17.925  0.00  0.00    +0.000 OA
BRANCH  13  14
ATOM     14  C   UNL     1       2.720   5.027  18.600  0.00  0.00    +0.000 C 
ATOM     15  C   UNL     1       1.502   4.123  18.534  0.00  0.00    +0.000 C 
BRANCH  14  16
ATOM     16  P   UNL     1       4.159   4.282  17.781  0.00  0.00    +0.000 P 
ATOM     17  O   UNL     1       3.939   2.913  17.216  0.00  0.00    +0.000 OA
ATOM     18  O   UNL     1       5.279   4.321  18.936  0.00  0.00    +0.000 OA
ATOM     19  C   UNL     1       5.968   5.537  19.128  0.00  0.00    +0.000 C 
ATOM     20  C   UNL     1       6.832   5.773  17.897  0.00  0.00    +0.000 C 
ATOM     21  C   UNL     1       7.738   6.993  18.116  0.00  0.00    +0.000 C 
ATOM     22  C   UNL     1       7.729   4.544  17.643  0.00  0.00    +0.000 C 
ATOM     23  C   UNL     1       5.902   6.019  16.689  0.00  0.00    +0.000 C 
ATOM     24  O   UNL     1       4.644   5.360  16.687  0.00  0.00    +0.000 OA
ENDBRANCH  14  16
ENDBRANCH  13  14
ENDBRANCH   1  13
TORSDOF 6
ENDMDL
MODEL 9
REMARK VINA RESULT:      -6.9      0.908      1.708
REMARK  Name = 
REMARK  10 active torsions:
REMARK  status: ('A' for Active; 'I' for Inactive)
REMARK    1  A    between atoms: C_1  and  C_2
REMARK    2  A    between atoms: C_8  and  O_9
REMARK    3  A    between atoms: O_9  and  C_10
REMARK    4  A    between atoms: C_10  and  C_11
REMARK    5  A    between atoms: C_11  and  O_13
REMARK    6  A    between atoms: O_13  and  C_14
REMARK    7  A    between atoms: C_14  and  C_15
REMARK    8  A    between atoms: C_14  and  P_16
REMARK    9  A    between atoms: C_20  and  C_21
REMARK   10  A    between atoms: C_20  and  C_22
REMARK                            x       y       z     vdW  Elec       q    Type
REMARK                         _______ _______ _______ _____ _____    ______ ____
ROOT
ATOM      1  C   UNL     1       2.484   6.857  18.961  0.00  0.00    +0.000 C 
ATOM      2  O   UNL     1       3.105   7.673  18.293  0.00  0.00    +0.000 OA
ENDROOT
BRANCH   1   3
ATOM      3  C   UNL     1       1.692   7.183  20.217  0.00  0.00    +0.000 C 
BRANCH   3   4
ATOM      4  O   UNL     1       1.907   8.480  20.712  0.00  0.00    +0.000 OA
BRANCH   4  12
ATOM      5  C   UNL     1       0.091   9.474  23.139  0.00  0.00    +0.000 C 
ATOM      6  C   UNL     1       0.061   9.893  21.694  0.00  0.00    +0.000 A 
ATOM      7  C   UNL     1      -0.914  10.870  21.365  0.00  0.00    +0.000 A 
ATOM      8  C   UNL     1      -1.057  11.338  20.059  0.00  0.00    +0.000 A 
ATOM      9 CL   UNL     1      -2.260  12.515  19.705  0.00  0.00    +0.000 Cl
ATOM     10  C   UNL     1      -0.239  10.856  19.052  0.00  0.00    +0.000 A 
ATOM     11  C   UNL     1       0.728   9.897  19.363  0.00  0.00    +0.000 A 
ATOM     12  C   UNL     1       0.898   9.404  20.669  0.00  0.00    +0.000 A 
ENDBRANCH   4  12
ENDBRANCH   3   4
ENDBRANCH   1   3
BRANCH   1  13
ATOM     13  O   UNL     1       2.236   5.576  18.570  0.00  0.00    +0.000 OA
BRANCH  13  14
ATOM     14  C   UNL     1       2.879   4.590  19.394  0.00  0.00    +0.000 C 
ATOM     15  C   UNL     1       1.898   3.524  19.851  0.00  0.00    +0.000 C 
BRANCH  14  16
ATOM     16  P   UNL     1       4.214   3.890  18.382  0.00  0.00    +0.000 P 
ATOM     17  O   UNL     1       4.061   2.443  18.029  0.00  0.00    +0.000 OA
ATOM     18  O   UNL     1       5.521   4.194  19.269  0.00  0.00    +0.000 OA
ATOM     19  C   UNL     1       6.077   5.489  19.179  0.00  0.00    +0.000 C 
ATOM     20  C   UNL     1       6.651   5.644  17.778  0.00  0.00    +0.000 C 
ATOM     21  C   UNL     1       7.423   6.967  17.670  0.00  0.00    +0.000 C 
ATOM     22  C   UNL     1       7.629   4.488  17.481  0.00  0.00    +0.000 C 
ATOM     23  C   UNL     1       5.483   5.633  16.769  0.00  0.00    +0.000 C 
ATOM     24  O   UNL     1       4.340   4.857  17.100  0.00  0.00    +0.000 OA
ENDBRANCH  14  16
ENDBRANCH  13  14
ENDBRANCH   1  13
TORSDOF 6
ENDMDL
