MODEL 1
REMARK VINA RESULT:      -7.5      0.000      0.000
REMARK  Name = 
REMARK  11 active torsions:
REMARK  status: ('A' for Active; 'I' for Inactive)
REMARK    1  A    between atoms: C_1  and  C_2
REMARK    2  A    between atoms: C_2  and  N_3
REMARK    3  A    between atoms: C_4  and  C_6
REMARK    4  A    between atoms: C_8  and  N_9
REMARK    5  A    between atoms: N_14  and  C_15
REMARK    6  A    between atoms: C_17  and  C_18
REMARK    7  A    between atoms: C_19  and  C_20
REMARK    8  A    between atoms: C_20  and  O_21
REMARK    9  A    between atoms: C_20  and  C_22
REMARK   10  A    between atoms: C_30  and  O_31
REMARK   11  A    between atoms: C_32  and  O_33
REMARK                            x       y       z     vdW  Elec       q    Type
REMARK                         _______ _______ _______ _____ _____    ______ ____
ROOT
ATOM      1  N   UNL     1       1.593  13.460  18.929  0.00  0.00    +0.000 N 
ATOM      2  C   UNL     1       0.504  14.291  18.808  0.00  0.00    +0.000 A 
ATOM      3  N   UNL     1      -0.613  13.626  18.631  0.00  0.00    +0.000 NA
ATOM      4  C   UNL     1      -0.223  12.309  18.538  0.00  0.00    +0.000 A 
ATOM      5  C   UNL     1      -0.964  11.142  18.260  0.00  0.00    +0.000 A 
ATOM      6  N   UNL     1      -2.321  11.225  18.024  0.00  0.00    +0.000 N 
ATOM      7  C   UNL     1      -3.146  10.065  17.836  0.00  0.00    +0.000 C 
ATOM      8  N   UNL     1      -0.286   9.971  18.175  0.00  0.00    +0.000 NA
ATOM      9  C   UNL     1       1.050   9.986  18.361  0.00  0.00    +0.000 A 
ATOM     10  N   UNL     1       1.854  11.032  18.652  0.00  0.00    +0.000 NA
ATOM     11  C   UNL     1       1.146  12.179  18.717  0.00  0.00    +0.000 A 
ATOM     12  H   UNL     1      -2.749  12.099  18.314  0.00  0.00    +0.000 HD
ENDROOT
BRANCH   1  15
ATOM     13  C   UNL     1       3.713  15.386  20.755  0.00  0.00    +0.000 C 
ATOM     14  O   UNL     1       3.286  14.040  20.496  0.00  0.00    +0.000 OA
ATOM     15  C   UNL     1       2.967  13.911  19.094  0.00  0.00    +0.000 C 
ATOM     16  C   UNL     1       3.268  15.267  18.436  0.00  0.00    +0.000 C 
ATOM     17  C   UNL     1       4.208  15.933  19.424  0.00  0.00    +0.000 C 
BRANCH  13  19
ATOM     18  N   UNL     1       1.690  15.488  22.112  0.00  0.00    +0.000 N 
ATOM     19  C   UNL     1       2.572  16.222  21.345  0.00  0.00    +0.000 C 
ATOM     20  O   UNL     1       2.486  17.435  21.185  0.00  0.00    +0.000 OA
ATOM     21  H   UNL     1       1.727  14.473  22.029  0.00  0.00    +0.000 HD
BRANCH  18  23
ATOM     22  C   UNL     1      -0.749  15.763  22.002  0.00  0.00    +0.000 C 
ATOM     23  C   UNL     1       0.536  16.100  22.736  0.00  0.00    +0.000 C 
ENDBRANCH  18  23
ENDBRANCH  13  19
BRANCH  16  24
ATOM     24  O   UNL     1       3.873  15.114  17.150  0.00  0.00    +0.000 OA
ATOM     25  H   UNL     1       4.249  15.990  16.921  0.00  0.00    +0.000 HD
ENDBRANCH  16  24
BRANCH  17  26
ATOM     26  O   UNL     1       5.553  15.507  19.114  0.00  0.00    +0.000 OA
ATOM     27  H   UNL     1       6.032  15.355  19.949  0.00  0.00    +0.000 HD
ENDBRANCH  17  26
ENDBRANCH   1  15
BRANCH   9  28
ATOM     28  C   UNL     1       1.706   8.721  18.217  0.00  0.00    +0.000 C 
ATOM     29  C   UNL     1       2.288   7.563  18.072  0.00  0.00    +0.000 C 
BRANCH  29  30
ATOM     30  C   UNL     1       2.965   6.213  17.905  0.00  0.00    +0.000 C 
BRANCH  30  31
ATOM     31  C   UNL     1       2.261   5.073  18.620  0.00  0.00    +0.000 A 
ATOM     32  C   UNL     1       1.964   5.137  19.992  0.00  0.00    +0.000 A 
ATOM     33  C   UNL     1       1.277   4.099  20.626  0.00  0.00    +0.000 A 
ATOM     34  C   UNL     1       0.862   2.987  19.897  0.00  0.00    +0.000 A 
ATOM     35  C   UNL     1       1.120   2.918  18.532  0.00  0.00    +0.000 A 
ATOM     36  C   UNL     1       1.807   3.955  17.897  0.00  0.00    +0.000 A 
ENDBRANCH  30  31
BRANCH  30  37
ATOM     37  O   UNL     1       4.304   6.351  18.377  0.00  0.00    +0.000 OA
ATOM     38  H   UNL     1       4.528   5.497  18.786  0.00  0.00    +0.000 HD
ENDBRANCH  30  37
ENDBRANCH  29  30
ENDBRANCH   9  28
TORSDOF 9
ENDMDL
MODEL 2
REMARK VINA RESULT:      -7.4      4.969      9.874
REMARK  Name = 
REMARK  11 active torsions:
REMARK  status: ('A' for Active; 'I' for Inactive)
REMARK    1  A    between atoms: C_1  and  C_2
REMARK    2  A    between atoms: C_2  and  N_3
REMARK    3  A    between atoms: C_4  and  C_6
REMARK    4  A    between atoms: C_8  and  N_9
REMARK    5  A    between atoms: N_14  and  C_15
REMARK    6  A    between atoms: C_17  and  C_18
REMARK    7  A    between atoms: C_19  and  C_20
REMARK    8  A    between atoms: C_20  and  O_21
REMARK    9  A    between atoms: C_20  and  C_22
REMARK   10  A    between atoms: C_30  and  O_31
REMARK   11  A    between atoms: C_32  and  O_33
REMARK                            x       y       z     vdW  Elec       q    Type
REMARK                         _______ _______ _______ _____ _____    ______ ____
ROOT
ATOM      1  N   UNL     1       4.877   4.957  18.779  0.00  0.00    +0.000 N 
ATOM      2  C   UNL     1       5.233   3.634  18.898  0.00  0.00    +0.000 A 
ATOM      3  N   UNL     1       4.362   2.945  19.596  0.00  0.00    +0.000 NA
ATOM      4  C   UNL     1       3.448   3.878  20.030  0.00  0.00    +0.000 A 
ATOM      5  C   UNL     1       2.336   3.754  20.889  0.00  0.00    +0.000 A 
ATOM      6  N   UNL     1       2.026   2.529  21.445  0.00  0.00    +0.000 N 
ATOM      7  C   UNL     1       0.852   2.318  22.244  0.00  0.00    +0.000 C 
ATOM      8  N   UNL     1       1.641   4.879  21.186  0.00  0.00    +0.000 NA
ATOM      9  C   UNL     1       2.047   6.048  20.646  0.00  0.00    +0.000 A 
ATOM     10  N   UNL     1       3.074   6.279  19.800  0.00  0.00    +0.000 NA
ATOM     11  C   UNL     1       3.748   5.139  19.537  0.00  0.00    +0.000 A 
ATOM     12  H   UNL     1       2.474   1.735  20.999  0.00  0.00    +0.000 HD
ENDROOT
BRANCH   1  15
ATOM     13  C   UNL     1       6.047   6.056  15.785  0.00  0.00    +0.000 C 
ATOM     14  O   UNL     1       5.077   6.287  16.817  0.00  0.00    +0.000 OA
ATOM     15  C   UNL     1       5.667   5.972  18.096  0.00  0.00    +0.000 C 
ATOM     16  C   UNL     1       7.125   5.561  17.830  0.00  0.00    +0.000 C 
ATOM     17  C   UNL     1       7.408   6.147  16.460  0.00  0.00    +0.000 C 
BRANCH  13  19
ATOM     18  N   UNL     1       6.399   4.601  13.860  0.00  0.00    +0.000 N 
ATOM     19  C   UNL     1       5.818   4.699  15.108  0.00  0.00    +0.000 C 
ATOM     20  O   UNL     1       5.214   3.780  15.651  0.00  0.00    +0.000 OA
ATOM     21  H   UNL     1       6.706   5.465  13.414  0.00  0.00    +0.000 HD
BRANCH  18  23
ATOM     22  C   UNL     1       5.131   3.506  12.064  0.00  0.00    +0.000 C 
ATOM     23  C   UNL     1       6.274   3.403  13.057  0.00  0.00    +0.000 C 
ENDBRANCH  18  23
ENDBRANCH  13  19
BRANCH  16  24
ATOM     24  O   UNL     1       8.014   6.078  18.822  0.00  0.00    +0.000 OA
ATOM     25  H   UNL     1       7.525   6.037  19.672  0.00  0.00    +0.000 HD
ENDBRANCH  16  24
BRANCH  17  26
ATOM     26  O   UNL     1       7.847   7.512  16.642  0.00  0.00    +0.000 OA
ATOM     27  H   UNL     1       8.227   7.600  17.535  0.00  0.00    +0.000 HD
ENDBRANCH  17  26
ENDBRANCH   1  15
BRANCH   9  28
ATOM     28  C   UNL     1       1.291   7.201  21.035  0.00  0.00    +0.000 C 
ATOM     29  C   UNL     1       0.621   8.262  21.386  0.00  0.00    +0.000 C 
BRANCH  29  30
ATOM     30  C   UNL     1      -0.160   9.499  21.797  0.00  0.00    +0.000 C 
BRANCH  30  31
ATOM     31  C   UNL     1      -0.513  10.421  20.644  0.00  0.00    +0.000 A 
ATOM     32  C   UNL     1      -0.462   9.983  19.309  0.00  0.00    +0.000 A 
ATOM     33  C   UNL     1      -0.832  10.831  18.262  0.00  0.00    +0.000 A 
ATOM     34  C   UNL     1      -1.273  12.124  18.531  0.00  0.00    +0.000 A 
ATOM     35  C   UNL     1      -1.359  12.567  19.847  0.00  0.00    +0.000 A 
ATOM     36  C   UNL     1      -0.989  11.721  20.895  0.00  0.00    +0.000 A 
ENDBRANCH  30  31
BRANCH  30  37
ATOM     37  O   UNL     1       0.622  10.189  22.770  0.00  0.00    +0.000 OA
ATOM     38  H   UNL     1       1.368  10.577  22.281  0.00  0.00    +0.000 HD
ENDBRANCH  30  37
ENDBRANCH  29  30
ENDBRANCH   9  28
TORSDOF 9
ENDMDL
MODEL 3
REMARK VINA RESULT:      -7.4      1.064      1.355
REMARK  Name = 
REMARK  11 active torsions:
REMARK  status: ('A' for Active; 'I' for Inactive)
REMARK    1  A    between atoms: C_1  and  C_2
REMARK    2  A    between atoms: C_2  and  N_3
REMARK    3  A    between atoms: C_4  and  C_6
REMARK    4  A    between atoms: C_8  and  N_9
REMARK    5  A    between atoms: N_14  and  C_15
REMARK    6  A    between atoms: C_17  and  C_18
REMARK    7  A    between atoms: C_19  and  C_20
REMARK    8  A    between atoms: C_20  and  O_21
REMARK    9  A    between atoms: C_20  and  C_22
REMARK   10  A    between atoms: C_30  and  O_31
REMARK   11  A    between atoms: C_32  and  O_33
REMARK                            x       y       z     vdW  Elec       q    Type
REMARK                         _______ _______ _______ _____ _____    ______ ____
ROOT
ATOM      1  N   UNL     1       1.418  13.539  19.226  0.00  0.00    +0.000 N 
ATOM      2  C   UNL     1       0.340  14.379  19.068  0.00  0.00    +0.000 A 
ATOM      3  N   UNL     1      -0.758  13.728  18.764  0.00  0.00    +0.000 NA
ATOM      4  C   UNL     1      -0.358  12.418  18.624  0.00  0.00    +0.000 A 
ATOM      5  C   UNL     1      -1.073  11.272  18.220  0.00  0.00    +0.000 A 
ATOM      6  N   UNL     1      -2.407  11.372  17.882  0.00  0.00    +0.000 N 
ATOM      7  C   UNL     1      -3.213  10.228  17.562  0.00  0.00    +0.000 C 
ATOM      8  N   UNL     1      -0.388  10.106  18.120  0.00  0.00    +0.000 NA
ATOM      9  C   UNL     1       0.930  10.107  18.412  0.00  0.00    +0.000 A 
ATOM     10  N   UNL     1       1.705  11.131  18.827  0.00  0.00    +0.000 NA
ATOM     11  C   UNL     1       0.992  12.275  18.904  0.00  0.00    +0.000 A 
ATOM     12  H   UNL     1      -2.859  12.228  18.189  0.00  0.00    +0.000 HD
ENDROOT
BRANCH   1  15
ATOM     13  C   UNL     1       3.378  16.139  20.193  0.00  0.00    +0.000 C 
ATOM     14  O   UNL     1       2.766  14.914  20.623  0.00  0.00    +0.000 OA
ATOM     15  C   UNL     1       2.774  13.976  19.526  0.00  0.00    +0.000 C 
ATOM     16  C   UNL     1       3.488  14.663  18.350  0.00  0.00    +0.000 C 
ATOM     17  C   UNL     1       4.277  15.772  19.021  0.00  0.00    +0.000 C 
BRANCH  13  19
ATOM     18  N   UNL     1       1.367  17.379  20.796  0.00  0.00    +0.000 N 
ATOM     19  C   UNL     1       2.318  17.182  19.816  0.00  0.00    +0.000 C 
ATOM     20  O   UNL     1       2.350  17.808  18.762  0.00  0.00    +0.000 OA
ATOM     21  H   UNL     1       1.307  16.686  21.541  0.00  0.00    +0.000 HD
BRANCH  18  23
ATOM     22  C   UNL     1      -0.995  17.611  20.163  0.00  0.00    +0.000 C 
ATOM     23  C   UNL     1       0.274  18.310  20.614  0.00  0.00    +0.000 C 
ENDBRANCH  18  23
ENDBRANCH  13  19
BRANCH  16  24
ATOM     24  O   UNL     1       4.341  13.760  17.643  0.00  0.00    +0.000 OA
ATOM     25  H   UNL     1       3.781  13.342  16.954  0.00  0.00    +0.000 HD
ENDBRANCH  16  24
BRANCH  17  26
ATOM     26  O   UNL     1       5.545  15.223  19.445  0.00  0.00    +0.000 OA
ATOM     27  H   UNL     1       6.259  15.785  19.095  0.00  0.00    +0.000 HD
ENDBRANCH  17  26
ENDBRANCH   1  15
BRANCH   9  28
ATOM     28  C   UNL     1       1.597   8.850  18.246  0.00  0.00    +0.000 C 
ATOM     29  C   UNL     1       2.200   7.701  18.115  0.00  0.00    +0.000 C 
BRANCH  29  30
ATOM     30  C   UNL     1       2.903   6.364  17.962  0.00  0.00    +0.000 C 
BRANCH  30  31
ATOM     31  C   UNL     1       2.188   5.206  18.637  0.00  0.00    +0.000 A 
ATOM     32  C   UNL     1       1.789   4.068  17.915  0.00  0.00    +0.000 A 
ATOM     33  C   UNL     1       1.171   2.992  18.558  0.00  0.00    +0.000 A 
ATOM     34  C   UNL     1       0.957   3.029  19.934  0.00  0.00    +0.000 A 
ATOM     35  C   UNL     1       1.371   4.135  20.670  0.00  0.00    +0.000 A 
ATOM     36  C   UNL     1       1.988   5.210  20.028  0.00  0.00    +0.000 A 
ENDBRANCH  30  31
BRANCH  30  37
ATOM     37  O   UNL     1       4.220   6.516  18.490  0.00  0.00    +0.000 OA
ATOM     38  H   UNL     1       4.108   6.625  19.450  0.00  0.00    +0.000 HD
ENDBRANCH  30  37
ENDBRANCH  29  30
ENDBRANCH   9  28
TORSDOF 9
ENDMDL
MODEL 4
REMARK VINA RESULT:      -7.3      1.273      1.479
REMARK  Name = 
REMARK  11 active torsions:
REMARK  status: ('A' for Active; 'I' for Inactive)
REMARK    1  A    between atoms: C_1  and  C_2
REMARK    2  A    between atoms: C_2  and  N_3
REMARK    3  A    between atoms: C_4  and  C_6
REMARK    4  A    between atoms: C_8  and  N_9
REMARK    5  A    between atoms: N_14  and  C_15
REMARK    6  A    between atoms: C_17  and  C_18
REMARK    7  A    between atoms: C_19  and  C_20
REMARK    8  A    between atoms: C_20  and  O_21
REMARK    9  A    between atoms: C_20  and  C_22
REMARK   10  A    between atoms: C_30  and  O_31
REMARK   11  A    between atoms: C_32  and  O_33
REMARK                            x       y       z     vdW  Elec       q    Type
REMARK                         _______ _______ _______ _____ _____    ______ ____
ROOT
ATOM      1  N   UNL     1       1.302  13.439  19.245  0.00  0.00    +0.000 N 
ATOM      2  C   UNL     1       0.216  14.261  19.058  0.00  0.00    +0.000 A 
ATOM      3  N   UNL     1      -0.864  13.593  18.729  0.00  0.00    +0.000 NA
ATOM      4  C   UNL     1      -0.440  12.289  18.602  0.00  0.00    +0.000 A 
ATOM      5  C   UNL     1      -1.126  11.130  18.184  0.00  0.00    +0.000 A 
ATOM      6  N   UNL     1      -2.454  11.209  17.813  0.00  0.00    +0.000 N 
ATOM      7  C   UNL     1      -3.232  10.051  17.476  0.00  0.00    +0.000 C 
ATOM      8  N   UNL     1      -0.421   9.975  18.103  0.00  0.00    +0.000 NA
ATOM      9  C   UNL     1       0.889   9.997  18.428  0.00  0.00    +0.000 A 
ATOM     10  N   UNL     1       1.638  11.035  18.859  0.00  0.00    +0.000 NA
ATOM     11  C   UNL     1       0.905  12.167  18.915  0.00  0.00    +0.000 A 
ATOM     12  H   UNL     1      -2.926  12.058  18.107  0.00  0.00    +0.000 HD
ENDROOT
BRANCH   1  15
ATOM     13  C   UNL     1       3.164  15.984  20.507  0.00  0.00    +0.000 C 
ATOM     14  O   UNL     1       2.617  14.687  20.785  0.00  0.00    +0.000 OA
ATOM     15  C   UNL     1       2.644  13.898  19.576  0.00  0.00    +0.000 C 
ATOM     16  C   UNL     1       3.301  14.763  18.488  0.00  0.00    +0.000 C 
ATOM     17  C   UNL     1       4.052  15.814  19.284  0.00  0.00    +0.000 C 
BRANCH  13  19
ATOM     18  N   UNL     1       1.991  17.492  18.992  0.00  0.00    +0.000 N 
ATOM     19  C   UNL     1       2.050  17.015  20.285  0.00  0.00    +0.000 C 
ATOM     20  O   UNL     1       1.263  17.341  21.168  0.00  0.00    +0.000 OA
ATOM     21  H   UNL     1       2.793  17.317  18.388  0.00  0.00    +0.000 HD
BRANCH  18  23
ATOM     22  C   UNL     1       0.141  17.998  17.457  0.00  0.00    +0.000 C 
ATOM     23  C   UNL     1       1.018  18.487  18.595  0.00  0.00    +0.000 C 
ENDBRANCH  18  23
ENDBRANCH  13  19
BRANCH  16  24
ATOM     24  O   UNL     1       4.177  14.000  17.657  0.00  0.00    +0.000 OA
ATOM     25  H   UNL     1       5.081  14.146  18.010  0.00  0.00    +0.000 HD
ENDBRANCH  16  24
BRANCH  17  26
ATOM     26  O   UNL     1       5.353  15.276  19.613  0.00  0.00    +0.000 OA
ATOM     27  H   UNL     1       5.491  15.362  20.574  0.00  0.00    +0.000 HD
ENDBRANCH  17  26
ENDBRANCH   1  15
BRANCH   9  28
ATOM     28  C   UNL     1       1.580   8.751  18.282  0.00  0.00    +0.000 C 
ATOM     29  C   UNL     1       2.206   7.618  18.127  0.00  0.00    +0.000 C 
BRANCH  29  30
ATOM     30  C   UNL     1       2.934   6.297  17.948  0.00  0.00    +0.000 C 
BRANCH  30  31
ATOM     31  C   UNL     1       2.264   5.121  18.635  0.00  0.00    +0.000 A 
ATOM     32  C   UNL     1       1.964   5.145  20.008  0.00  0.00    +0.000 A 
ATOM     33  C   UNL     1       1.306   4.073  20.618  0.00  0.00    +0.000 A 
ATOM     34  C   UNL     1       0.925   2.966  19.863  0.00  0.00    +0.000 A 
ATOM     35  C   UNL     1       1.187   2.936  18.497  0.00  0.00    +0.000 A 
ATOM     36  C   UNL     1       1.843   4.007  17.887  0.00  0.00    +0.000 A 
ENDBRANCH  30  31
BRANCH  30  37
ATOM     37  O   UNL     1       4.261   6.475  18.440  0.00  0.00    +0.000 OA
ATOM     38  H   UNL     1       4.456   7.422  18.334  0.00  0.00    +0.000 HD
ENDBRANCH  30  37
ENDBRANCH  29  30
ENDBRANCH   9  28
TORSDOF 9
ENDMDL
MODEL 5
REMARK VINA RESULT:      -7.1      3.447      6.471
REMARK  Name = 
REMARK  11 active torsions:
REMARK  status: ('A' for Active; 'I' for Inactive)
REMARK    1  A    between atoms: C_1  and  C_2
REMARK    2  A    between atoms: C_2  and  N_3
REMARK    3  A    between atoms: C_4  and  C_6
REMARK    4  A    between atoms: C_8  and  N_9
REMARK    5  A    between atoms: N_14  and  C_15
REMARK    6  A    between atoms: C_17  and  C_18
REMARK    7  A    between atoms: C_19  and  C_20
REMARK    8  A    between atoms: C_20  and  O_21
REMARK    9  A    between atoms: C_20  and  C_22
REMARK   10  A    between atoms: C_30  and  O_31
REMARK   11  A    between atoms: C_32  and  O_33
REMARK                            x       y       z     vdW  Elec       q    Type
REMARK                         _______ _______ _______ _____ _____    ______ ____
ROOT
ATOM      1  N   UNL     1      -1.603  12.051  18.684  0.00  0.00    +0.000 N 
ATOM      2  C   UNL     1      -1.505  13.406  18.895  0.00  0.00    +0.000 A 
ATOM      3  N   UNL     1      -0.278  13.845  18.749  0.00  0.00    +0.000 NA
ATOM      4  C   UNL     1       0.473  12.712  18.526  0.00  0.00    +0.000 A 
ATOM      5  C   UNL     1       1.865  12.538  18.385  0.00  0.00    +0.000 A 
ATOM      6  N   UNL     1       2.710  13.626  18.469  0.00  0.00    +0.000 N 
ATOM      7  C   UNL     1       4.122  13.529  18.233  0.00  0.00    +0.000 C 
ATOM      8  N   UNL     1       2.329  11.274  18.228  0.00  0.00    +0.000 NA
ATOM      9  C   UNL     1       1.439  10.259  18.215  0.00  0.00    +0.000 A 
ATOM     10  N   UNL     1       0.093  10.310  18.319  0.00  0.00    +0.000 NA
ATOM     11  C   UNL     1      -0.329  11.582  18.484  0.00  0.00    +0.000 A 
ATOM     12  H   UNL     1       2.251  14.527  18.379  0.00  0.00    +0.000 HD
ENDROOT
BRANCH   1  15
ATOM     13  C   UNL     1      -3.772   9.948  17.130  0.00  0.00    +0.000 C 
ATOM     14  O   UNL     1      -2.713  10.030  18.096  0.00  0.00    +0.000 OA
ATOM     15  C   UNL     1      -2.830  11.277  18.815  0.00  0.00    +0.000 C 
ATOM     16  C   UNL     1      -4.084  11.989  18.281  0.00  0.00    +0.000 C 
ATOM     17  C   UNL     1      -4.875  10.866  17.636  0.00  0.00    +0.000 C 
BRANCH  13  19
ATOM     18  N   UNL     1      -4.057   9.840  14.711  0.00  0.00    +0.000 N 
ATOM     19  C   UNL     1      -3.276  10.340  15.734  0.00  0.00    +0.000 C 
ATOM     20  O   UNL     1      -2.305  11.067  15.555  0.00  0.00    +0.000 OA
ATOM     21  H   UNL     1      -4.715   9.097  14.942  0.00  0.00    +0.000 HD
BRANCH  18  23
ATOM     22  C   UNL     1      -4.864   9.668  12.397  0.00  0.00    +0.000 C 
ATOM     23  C   UNL     1      -3.735  10.087  13.322  0.00  0.00    +0.000 C 
ENDBRANCH  18  23
ENDBRANCH  13  19
BRANCH  16  24
ATOM     24  O   UNL     1      -4.821  12.625  19.327  0.00  0.00    +0.000 OA
ATOM     25  H   UNL     1      -5.739  12.283  19.258  0.00  0.00    +0.000 HD
ENDBRANCH  16  24
BRANCH  17  26
ATOM     26  O   UNL     1      -5.686  10.249  18.660  0.00  0.00    +0.000 OA
ATOM     27  H   UNL     1      -6.401   9.746  18.229  0.00  0.00    +0.000 HD
ENDBRANCH  17  26
ENDBRANCH   1  15
BRANCH   9  28
ATOM     28  C   UNL     1       2.002   8.948  18.086  0.00  0.00    +0.000 C 
ATOM     29  C   UNL     1       2.508   7.751  17.989  0.00  0.00    +0.000 C 
BRANCH  29  30
ATOM     30  C   UNL     1       3.099   6.356  17.876  0.00  0.00    +0.000 C 
BRANCH  30  31
ATOM     31  C   UNL     1       2.284   5.278  18.569  0.00  0.00    +0.000 A 
ATOM     32  C   UNL     1       1.823   4.146  17.877  0.00  0.00    +0.000 A 
ATOM     33  C   UNL     1       1.112   3.141  18.539  0.00  0.00    +0.000 A 
ATOM     34  C   UNL     1       0.863   3.245  19.905  0.00  0.00    +0.000 A 
ATOM     35  C   UNL     1       1.336   4.345  20.615  0.00  0.00    +0.000 A 
ATOM     36  C   UNL     1       2.047   5.349  19.954  0.00  0.00    +0.000 A 
ENDBRANCH  30  31
BRANCH  30  37
ATOM     37  O   UNL     1       4.419   6.412  18.416  0.00  0.00    +0.000 OA
ATOM     38  H   UNL     1       5.017   6.427  17.648  0.00  0.00    +0.000 HD
ENDBRANCH  30  37
ENDBRANCH  29  30
ENDBRANCH   9  28
TORSDOF 9
ENDMDL
MODEL 6
REMARK VINA RESULT:      -7.0      0.971      1.348
REMARK  Name = 
REMARK  11 active torsions:
REMARK  status: ('A' for Active; 'I' for Inactive)
REMARK    1  A    between atoms: C_1  and  C_2
REMARK    2  A    between atoms: C_2  and  N_3
REMARK    3  A    between atoms: C_4  and  C_6
REMARK    4  A    between atoms: C_8  and  N_9
REMARK    5  A    between atoms: N_14  and  C_15
REMARK    6  A    between atoms: C_17  and  C_18
REMARK    7  A    between atoms: C_19  and  C_20
REMARK    8  A    between atoms: C_20  and  O_21
REMARK    9  A    between atoms: C_20  and  C_22
REMARK   10  A    between atoms: C_30  and  O_31
REMARK   11  A    between atoms: C_32  and  O_33
REMARK                            x       y       z     vdW  Elec       q    Type
REMARK                         _______ _______ _______ _____ _____    ______ ____
ROOT
ATOM      1  N   UNL     1       1.873  13.955  19.280  0.00  0.00    +0.000 N 
ATOM      2  C   UNL     1       0.848  14.871  19.213  0.00  0.00    +0.000 A 
ATOM      3  N   UNL     1      -0.313  14.303  18.986  0.00  0.00    +0.000 NA
ATOM      4  C   UNL     1      -0.018  12.970  18.804  0.00  0.00    +0.000 A 
ATOM      5  C   UNL     1      -0.840  11.882  18.444  0.00  0.00    +0.000 A 
ATOM      6  N   UNL     1      -2.186  12.081  18.210  0.00  0.00    +0.000 N 
ATOM      7  C   UNL     1      -3.092  11.000  17.940  0.00  0.00    +0.000 C 
ATOM      8  N   UNL     1      -0.249  10.673  18.280  0.00  0.00    +0.000 NA
ATOM      9  C   UNL     1       1.084  10.578  18.471  0.00  0.00    +0.000 A 
ATOM     10  N   UNL     1       1.959  11.540  18.836  0.00  0.00    +0.000 NA
ATOM     11  C   UNL     1       1.336  12.729  18.978  0.00  0.00    +0.000 A 
ATOM     12  H   UNL     1      -2.552  12.961  18.559  0.00  0.00    +0.000 HD
ENDROOT
BRANCH   1  15
ATOM     13  C   UNL     1       4.059  16.165  20.650  0.00  0.00    +0.000 C 
ATOM     14  O   UNL     1       3.470  14.864  20.791  0.00  0.00    +0.000 OA
ATOM     15  C   UNL     1       3.275  14.292  19.480  0.00  0.00    +0.000 C 
ATOM     16  C   UNL     1       3.832  15.301  18.461  0.00  0.00    +0.000 C 
ATOM     17  C   UNL     1       4.756  16.166  19.297  0.00  0.00    +0.000 C 
BRANCH  13  19
ATOM     18  N   UNL     1       2.053  17.020  21.741  0.00  0.00    +0.000 N 
ATOM     19  C   UNL     1       2.998  17.265  20.765  0.00  0.00    +0.000 C 
ATOM     20  O   UNL     1       3.023  18.285  20.083  0.00  0.00    +0.000 OA
ATOM     21  H   UNL     1       1.998  16.074  22.115  0.00  0.00    +0.000 HD
BRANCH  18  23
ATOM     22  C   UNL     1       1.092  18.630  23.327  0.00  0.00    +0.000 C 
ATOM     23  C   UNL     1       0.959  17.936  21.984  0.00  0.00    +0.000 C 
ENDBRANCH  18  23
ENDBRANCH  13  19
BRANCH  16  24
ATOM     24  O   UNL     1       4.531  14.653  17.397  0.00  0.00    +0.000 OA
ATOM     25  H   UNL     1       5.468  14.595  17.684  0.00  0.00    +0.000 HD
ENDBRANCH  16  24
BRANCH  17  26
ATOM     26  O   UNL     1       6.050  15.524  19.339  0.00  0.00    +0.000 OA
ATOM     27  H   UNL     1       6.739  16.214  19.353  0.00  0.00    +0.000 HD
ENDBRANCH  17  26
ENDBRANCH   1  15
BRANCH   9  28
ATOM     28  C   UNL     1       1.647   9.281  18.242  0.00  0.00    +0.000 C 
ATOM     29  C   UNL     1       2.178   8.110  18.027  0.00  0.00    +0.000 C 
BRANCH  29  30
ATOM     30  C   UNL     1       2.795   6.744  17.776  0.00  0.00    +0.000 C 
BRANCH  30  31
ATOM     31  C   UNL     1       2.152   5.618  18.564  0.00  0.00    +0.000 A 
ATOM     32  C   UNL     1       1.686   4.452  17.934  0.00  0.00    +0.000 A 
ATOM     33  C   UNL     1       1.136   3.404  18.678  0.00  0.00    +0.000 A 
ATOM     34  C   UNL     1       1.058   3.499  20.066  0.00  0.00    +0.000 A 
ATOM     35  C   UNL     1       1.541   4.633  20.712  0.00  0.00    +0.000 A 
ATOM     36  C   UNL     1       2.090   5.680  19.968  0.00  0.00    +0.000 A 
ENDBRANCH  30  31
BRANCH  30  37
ATOM     37  O   UNL     1       4.184   6.845  18.086  0.00  0.00    +0.000 OA
ATOM     38  H   UNL     1       4.261   7.583  18.715  0.00  0.00    +0.000 HD
ENDBRANCH  30  37
ENDBRANCH  29  30
ENDBRANCH   9  28
TORSDOF 9
ENDMDL
MODEL 7
REMARK VINA RESULT:      -7.0      1.361      1.481
REMARK  Name = 
REMARK  11 active torsions:
REMARK  status: ('A' for Active; 'I' for Inactive)
REMARK    1  A    between atoms: C_1  and  C_2
REMARK    2  A    between atoms: C_2  and  N_3
REMARK    3  A    between atoms: C_4  and  C_6
REMARK    4  A    between atoms: C_8  and  N_9
REMARK    5  A    between atoms: N_14  and  C_15
REMARK    6  A    between atoms: C_17  and  C_18
REMARK    7  A    between atoms: C_19  and  C_20
REMARK    8  A    between atoms: C_20  and  O_21
REMARK    9  A    between atoms: C_20  and  C_22
REMARK   10  A    between atoms: C_30  and  O_31
REMARK   11  A    between atoms: C_32  and  O_33
REMARK                            x       y       z     vdW  Elec       q    Type
REMARK                         _______ _______ _______ _____ _____    ______ ____
ROOT
ATOM      1  N   UNL     1       1.773  14.351  18.967  0.00  0.00    +0.000 N 
ATOM      2  C   UNL     1       0.700  15.212  18.996  0.00  0.00    +0.000 A 
ATOM      3  N   UNL     1      -0.447  14.580  18.920  0.00  0.00    +0.000 NA
ATOM      4  C   UNL     1      -0.105  13.259  18.739  0.00  0.00    +0.000 A 
ATOM      5  C   UNL     1      -0.904  12.121  18.505  0.00  0.00    +0.000 A 
ATOM      6  N   UNL     1      -2.277  12.245  18.424  0.00  0.00    +0.000 N 
ATOM      7  C   UNL     1      -3.149  11.112  18.289  0.00  0.00    +0.000 C 
ATOM      8  N   UNL     1      -0.273  10.938  18.306  0.00  0.00    +0.000 NA
ATOM      9  C   UNL     1       1.076  10.915  18.343  0.00  0.00    +0.000 A 
ATOM     10  N   UNL     1       1.935  11.930  18.579  0.00  0.00    +0.000 NA
ATOM     11  C   UNL     1       1.271  13.091  18.762  0.00  0.00    +0.000 A 
ATOM     12  H   UNL     1      -2.646  13.117  18.790  0.00  0.00    +0.000 HD
ENDROOT
BRANCH   1  15
ATOM     13  C   UNL     1       4.408  15.201  20.934  0.00  0.00    +0.000 C 
ATOM     14  O   UNL     1       3.845  14.162  20.120  0.00  0.00    +0.000 OA
ATOM     15  C   UNL     1       3.169  14.763  18.995  0.00  0.00    +0.000 C 
ATOM     16  C   UNL     1       3.375  16.283  19.104  0.00  0.00    +0.000 C 
ATOM     17  C   UNL     1       4.577  16.407  20.022  0.00  0.00    +0.000 C 
BRANCH  13  19
ATOM     18  N   UNL     1       3.858  16.656  22.812  0.00  0.00    +0.000 N 
ATOM     19  C   UNL     1       3.513  15.500  22.142  0.00  0.00    +0.000 C 
ATOM     20  O   UNL     1       2.555  14.798  22.448  0.00  0.00    +0.000 OA
ATOM     21  H   UNL     1       4.771  17.062  22.610  0.00  0.00    +0.000 HD
BRANCH  18  23
ATOM     22  C   UNL     1       2.096  18.143  23.660  0.00  0.00    +0.000 C 
ATOM     23  C   UNL     1       3.141  17.093  23.991  0.00  0.00    +0.000 C 
ENDBRANCH  18  23
ENDBRANCH  13  19
BRANCH  16  24
ATOM     24  O   UNL     1       3.617  16.882  17.829  0.00  0.00    +0.000 OA
ATOM     25  H   UNL     1       4.436  16.465  17.486  0.00  0.00    +0.000 HD
ENDBRANCH  16  24
BRANCH  17  26
ATOM     26  O   UNL     1       5.768  16.325  19.207  0.00  0.00    +0.000 OA
ATOM     27  H   UNL     1       5.563  16.673  18.321  0.00  0.00    +0.000 HD
ENDBRANCH  17  26
ENDBRANCH   1  15
BRANCH   9  28
ATOM     28  C   UNL     1       1.677   9.641  18.085  0.00  0.00    +0.000 C 
ATOM     29  C   UNL     1       2.242   8.488  17.858  0.00  0.00    +0.000 C 
BRANCH  29  30
ATOM     30  C   UNL     1       2.901   7.144  17.593  0.00  0.00    +0.000 C 
BRANCH  30  31
ATOM     31  C   UNL     1       2.389   6.018  18.473  0.00  0.00    +0.000 A 
ATOM     32  C   UNL     1       2.270   6.169  19.865  0.00  0.00    +0.000 A 
ATOM     33  C   UNL     1       1.756   5.138  20.656  0.00  0.00    +0.000 A 
ATOM     34  C   UNL     1       1.339   3.946  20.068  0.00  0.00    +0.000 A 
ATOM     35  C   UNL     1       1.422   3.788  18.688  0.00  0.00    +0.000 A 
ATOM     36  C   UNL     1       1.936   4.818  17.897  0.00  0.00    +0.000 A 
ENDBRANCH  30  31
BRANCH  30  37
ATOM     37  O   UNL     1       4.306   7.321  17.769  0.00  0.00    +0.000 OA
ATOM     38  H   UNL     1       4.465   7.225  18.724  0.00  0.00    +0.000 HD
ENDBRANCH  30  37
ENDBRANCH  29  30
ENDBRANCH   9  28
TORSDOF 9
ENDMDL
MODEL 8
REMARK VINA RESULT:      -7.0      1.925      2.631
REMARK  Name = 
REMARK  11 active torsions:
REMARK  status: ('A' for Active; 'I' for Inactive)
REMARK    1  A    between atoms: C_1  and  C_2
REMARK    2  A    between atoms: C_2  and  N_3
REMARK    3  A    between atoms: C_4  and  C_6
REMARK    4  A    between atoms: C_8  and  N_9
REMARK    5  A    between atoms: N_14  and  C_15
REMARK    6  A    between atoms: C_17  and  C_18
REMARK    7  A    between atoms: C_19  and  C_20
REMARK    8  A    between atoms: C_20  and  O_21
REMARK    9  A    between atoms: C_20  and  C_22
REMARK   10  A    between atoms: C_30  and  O_31
REMARK   11  A    between atoms: C_32  and  O_33
REMARK                            x       y       z     vdW  Elec       q    Type
REMARK                         _______ _______ _______ _____ _____    ______ ____
ROOT
ATOM      1  N   UNL     1       1.324  13.474  19.048  0.00  0.00    +0.000 N 
ATOM      2  C   UNL     1       0.249  14.243  18.669  0.00  0.00    +0.000 A 
ATOM      3  N   UNL     1      -0.809  13.517  18.393  0.00  0.00    +0.000 NA
ATOM      4  C   UNL     1      -0.376  12.215  18.505  0.00  0.00    +0.000 A 
ATOM      5  C   UNL     1      -1.035  10.996  18.243  0.00  0.00    +0.000 A 
ATOM      6  N   UNL     1      -2.339  10.998  17.790  0.00  0.00    +0.000 N 
ATOM      7  C   UNL     1      -3.095   9.792  17.603  0.00  0.00    +0.000 C 
ATOM      8  N   UNL     1      -0.324   9.851  18.393  0.00  0.00    +0.000 NA
ATOM      9  C   UNL     1       0.965   9.941  18.783  0.00  0.00    +0.000 A 
ATOM     10  N   UNL     1       1.686  11.043  19.080  0.00  0.00    +0.000 NA
ATOM     11  C   UNL     1       0.949  12.161  18.909  0.00  0.00    +0.000 A 
ATOM     12  H   UNL     1      -2.829  11.878  17.914  0.00  0.00    +0.000 HD
ENDROOT
BRANCH   1  15
ATOM     13  C   UNL     1       3.182  16.267  19.585  0.00  0.00    +0.000 C 
ATOM     14  O   UNL     1       2.524  15.161  20.221  0.00  0.00    +0.000 OA
ATOM     15  C   UNL     1       2.644  13.996  19.376  0.00  0.00    +0.000 C 
ATOM     16  C   UNL     1       3.479  14.409  18.153  0.00  0.00    +0.000 C 
ATOM     17  C   UNL     1       4.197  15.659  18.627  0.00  0.00    +0.000 C 
BRANCH  13  19
ATOM     18  N   UNL     1       1.124  17.572  19.678  0.00  0.00    +0.000 N 
ATOM     19  C   UNL     1       2.171  17.173  18.872  0.00  0.00    +0.000 C 
ATOM     20  O   UNL     1       2.313  17.540  17.710  0.00  0.00    +0.000 OA
ATOM     21  H   UNL     1       0.986  17.068  20.553  0.00  0.00    +0.000 HD
BRANCH  18  23
ATOM     22  C   UNL     1      -1.071  17.597  18.577  0.00  0.00    +0.000 C 
ATOM     23  C   UNL     1       0.059  18.414  19.176  0.00  0.00    +0.000 C 
ENDBRANCH  18  23
ENDBRANCH  13  19
BRANCH  16  24
ATOM     24  O   UNL     1       4.397  13.386  17.764  0.00  0.00    +0.000 OA
ATOM     25  H   UNL     1       5.073  13.827  17.205  0.00  0.00    +0.000 HD
ENDBRANCH  16  24
BRANCH  17  26
ATOM     26  O   UNL     1       5.412  15.249  19.293  0.00  0.00    +0.000 OA
ATOM     27  H   UNL     1       5.305  15.392  20.251  0.00  0.00    +0.000 HD
ENDBRANCH  17  26
ENDBRANCH   1  15
BRANCH   9  28
ATOM     28  C   UNL     1       1.666   8.695  18.882  0.00  0.00    +0.000 C 
ATOM     29  C   UNL     1       2.318   7.571  18.985  0.00  0.00    +0.000 C 
BRANCH  29  30
ATOM     30  C   UNL     1       3.078   6.261  19.104  0.00  0.00    +0.000 C 
BRANCH  30  31
ATOM     31  C   UNL     1       3.908   5.912  17.881  0.00  0.00    +0.000 A 
ATOM     32  C   UNL     1       4.086   4.580  17.470  0.00  0.00    +0.000 A 
ATOM     33  C   UNL     1       4.816   4.278  16.317  0.00  0.00    +0.000 A 
ATOM     34  C   UNL     1       5.366   5.301  15.549  0.00  0.00    +0.000 A 
ATOM     35  C   UNL     1       5.176   6.628  15.923  0.00  0.00    +0.000 A 
ATOM     36  C   UNL     1       4.446   6.930  17.075  0.00  0.00    +0.000 A 
ENDBRANCH  30  31
BRANCH  30  37
ATOM     37  O   UNL     1       2.119   5.239  19.369  0.00  0.00    +0.000 OA
ATOM     38  H   UNL     1       1.987   4.776  18.523  0.00  0.00    +0.000 HD
ENDBRANCH  30  37
ENDBRANCH  29  30
ENDBRANCH   9  28
TORSDOF 9
ENDMDL
MODEL 9
REMARK VINA RESULT:      -6.9      4.158      6.259
REMARK  Name = 
REMARK  11 active torsions:
REMARK  status: ('A' for Active; 'I' for Inactive)
REMARK    1  A    between atoms: C_1  and  C_2
REMARK    2  A    between atoms: C_2  and  N_3
REMARK    3  A    between atoms: C_4  and  C_6
REMARK    4  A    between atoms: C_8  and  N_9
REMARK    5  A    between atoms: N_14  and  C_15
REMARK    6  A    between atoms: C_17  and  C_18
REMARK    7  A    between atoms: C_19  and  C_20
REMARK    8  A    between atoms: C_20  and  O_21
REMARK    9  A    between atoms: C_20  and  C_22
REMARK   10  A    between atoms: C_30  and  O_31
REMARK   11  A    between atoms: C_32  and  O_33
REMARK                            x       y       z     vdW  Elec       q    Type
REMARK                         _______ _______ _______ _____ _____    ______ ____
ROOT
ATOM      1  N   UNL     1       1.374   8.407  19.951  0.00  0.00    +0.000 N 
ATOM      2  C   UNL     1       0.447   7.947  20.857  0.00  0.00    +0.000 A 
ATOM      3  N   UNL     1       0.709   6.727  21.261  0.00  0.00    +0.000 NA
ATOM      4  C   UNL     1       1.800   6.341  20.515  0.00  0.00    +0.000 A 
ATOM      5  C   UNL     1       2.480   5.107  20.441  0.00  0.00    +0.000 A 
ATOM      6  N   UNL     1       2.058   4.039  21.206  0.00  0.00    +0.000 N 
ATOM      7  C   UNL     1       2.767   2.791  21.251  0.00  0.00    +0.000 C 
ATOM      8  N   UNL     1       3.503   5.004  19.558  0.00  0.00    +0.000 NA
ATOM      9  C   UNL     1       3.814   6.080  18.805  0.00  0.00    +0.000 A 
ATOM     10  N   UNL     1       3.251   7.308  18.808  0.00  0.00    +0.000 NA
ATOM     11  C   UNL     1       2.231   7.368  19.690  0.00  0.00    +0.000 A 
ATOM     12  H   UNL     1       1.432   4.283  21.967  0.00  0.00    +0.000 HD
ENDROOT
BRANCH   1  15
ATOM     13  C   UNL     1       0.745  11.722  20.349  0.00  0.00    +0.000 C 
ATOM     14  O   UNL     1       1.780  10.738  20.201  0.00  0.00    +0.000 OA
ATOM     15  C   UNL     1       1.323   9.708  19.299  0.00  0.00    +0.000 C 
ATOM     16  C   UNL     1      -0.080  10.118  18.820  0.00  0.00    +0.000 C 
ATOM     17  C   UNL     1      -0.124  11.608  19.105  0.00  0.00    +0.000 C 
BRANCH  13  19
ATOM     18  N   UNL     1      -1.296  12.085  21.632  0.00  0.00    +0.000 N 
ATOM     19  C   UNL     1      -0.047  11.498  21.642  0.00  0.00    +0.000 C 
ATOM     20  O   UNL     1       0.378  10.820  22.571  0.00  0.00    +0.000 OA
ATOM     21  H   UNL     1      -1.483  12.781  20.911  0.00  0.00    +0.000 HD
BRANCH  18  23
ATOM     22  C   UNL     1      -3.526  12.650  22.492  0.00  0.00    +0.000 C 
ATOM     23  C   UNL     1      -2.183  12.000  22.772  0.00  0.00    +0.000 C 
ENDBRANCH  18  23
ENDBRANCH  13  19
BRANCH  16  24
ATOM     24  O   UNL     1      -0.274   9.837  17.433  0.00  0.00    +0.000 OA
ATOM     25  H   UNL     1      -1.140  10.232  17.195  0.00  0.00    +0.000 HD
ENDBRANCH  16  24
BRANCH  17  26
ATOM     26  O   UNL     1       0.443  12.295  17.967  0.00  0.00    +0.000 OA
ATOM     27  H   UNL     1       1.413  12.206  18.001  0.00  0.00    +0.000 HD
ENDBRANCH  17  26
ENDBRANCH   1  15
BRANCH   9  28
ATOM     28  C   UNL     1       4.879   5.887  17.866  0.00  0.00    +0.000 C 
ATOM     29  C   UNL     1       5.857   5.698  17.025  0.00  0.00    +0.000 C 
BRANCH  29  30
ATOM     30  C   UNL     1       6.998   5.480  16.046  0.00  0.00    +0.000 C 
BRANCH  30  31
ATOM     31  C   UNL     1       6.571   4.868  14.723  0.00  0.00    +0.000 A 
ATOM     32  C   UNL     1       7.439   4.826  13.619  0.00  0.00    +0.000 A 
ATOM     33  C   UNL     1       7.048   4.221  12.422  0.00  0.00    +0.000 A 
ATOM     34  C   UNL     1       5.789   3.634  12.314  0.00  0.00    +0.000 A 
ATOM     35  C   UNL     1       4.926   3.640  13.406  0.00  0.00    +0.000 A 
ATOM     36  C   UNL     1       5.317   4.245  14.602  0.00  0.00    +0.000 A 
ENDBRANCH  30  31
BRANCH  30  37
ATOM     37  O   UNL     1       7.959   4.650  16.696  0.00  0.00    +0.000 OA
ATOM     38  H   UNL     1       8.633   4.451  16.023  0.00  0.00    +0.000 HD
ENDBRANCH  30  37
ENDBRANCH  29  30
ENDBRANCH   9  28
TORSDOF 9
ENDMDL
