MODEL 1
REMARK VINA RESULT:      -7.4      0.000      0.000
REMARK  Name = 
REMARK  8 active torsions:
REMARK  status: ('A' for Active; 'I' for Inactive)
REMARK    1  A    between atoms: O_1  and  C_2
REMARK    2  A    between atoms: C_2  and  C_3
REMARK    3  A    between atoms: C_6  and  N_7
REMARK    4  A    between atoms: N_12  and  C_13
REMARK    5  A    between atoms: C_13  and  C_14
REMARK    6  A    between atoms: C_13  and  C_18
REMARK    7  A    between atoms: C_26  and  O_27
REMARK    8  A    between atoms: C_28  and  O_29
REMARK                            x       y       z     vdW  Elec       q    Type
REMARK                         _______ _______ _______ _____ _____    ______ ____
ROOT
ATOM      1  N   UNL     1       2.528   6.822  18.887  0.00  0.00    +0.000 N 
ATOM      2  C   UNL     1       2.824   7.420  17.684  0.00  0.00    +0.000 A 
ATOM      3  N   UNL     1       2.324   8.634  17.590  0.00  0.00    +0.000 NA
ATOM      4  C   UNL     1       1.714   8.853  18.810  0.00  0.00    +0.000 A 
ATOM      5  C   UNL     1       1.014   9.967  19.329  0.00  0.00    +0.000 A 
ATOM      6  N   UNL     1       0.774  11.109  18.569  0.00  0.00    +0.000 N 
ATOM      7  N   UNL     1       0.557   9.866  20.608  0.00  0.00    +0.000 NA
ATOM      8  C   UNL     1       0.770   8.726  21.292  0.00  0.00    +0.000 A 
ATOM      9  N   UNL     1       1.406   7.607  20.894  0.00  0.00    +0.000 NA
ATOM     10  C   UNL     1       1.851   7.743  19.632  0.00  0.00    +0.000 A 
ATOM     11  H   UNL     1       1.307  11.097  17.701  0.00  0.00    +0.000 HD
ENDROOT
BRANCH   1  15
ATOM     12  C   UNL     1       3.794   3.254  18.620  0.00  0.00    +0.000 C 
ATOM     13  C   UNL     1       5.074   4.050  18.883  0.00  0.00    +0.000 C 
ATOM     14  C   UNL     1       3.889   4.751  18.307  0.00  0.00    +0.000 C 
ATOM     15  C   UNL     1       2.950   5.485  19.259  0.00  0.00    +0.000 C 
ATOM     16  C   UNL     1       1.828   4.456  19.478  0.00  0.00    +0.000 C 
ATOM     17  C   UNL     1       2.619   3.118  19.577  0.00  0.00    +0.000 C 
BRANCH  16  18
ATOM     18  O   UNL     1       1.094   4.705  20.675  0.00  0.00    +0.000 OA
ATOM     19  H   UNL     1       0.230   4.259  20.568  0.00  0.00    +0.000 HD
ENDBRANCH  16  18
BRANCH  17  20
ATOM     20  O   UNL     1       3.063   2.907  20.918  0.00  0.00    +0.000 OA
ATOM     21  H   UNL     1       4.012   3.108  20.970  0.00  0.00    +0.000 HD
ENDBRANCH  17  20
BRANCH  12  22
ATOM     22  C   UNL     1       3.976   2.071  17.701  0.00  0.00    +0.000 C 
BRANCH  22  23
ATOM     23  O   UNL     1       3.854   0.844  18.402  0.00  0.00    +0.000 OA
ATOM     24  H   UNL     1       4.105   0.140  17.768  0.00  0.00    +0.000 HD
ENDBRANCH  22  23
ENDBRANCH  12  22
ENDBRANCH   1  15
BRANCH   6  25
ATOM     25  C   UNL     1       0.615  12.395  19.234  0.00  0.00    +0.000 C 
BRANCH  25  26
ATOM     26  C   UNL     1       1.408  13.492  18.509  0.00  0.00    +0.000 C 
ATOM     27  C   UNL     1       2.164  14.601  19.302  0.00  0.00    +0.000 C 
ATOM     28  C   UNL     1       3.361  14.412  18.354  0.00  0.00    +0.000 C 
ATOM     29  C   UNL     1       2.808  13.021  18.013  0.00  0.00    +0.000 C 
ENDBRANCH  25  26
BRANCH  25  30
ATOM     30  C   UNL     1      -0.844  12.885  19.184  0.00  0.00    +0.000 C 
ATOM     31  C   UNL     1      -2.019  11.965  18.755  0.00  0.00    +0.000 C 
ATOM     32  C   UNL     1      -2.843  12.519  19.932  0.00  0.00    +0.000 C 
ATOM     33  C   UNL     1      -1.541  13.025  20.569  0.00  0.00    +0.000 C 
ENDBRANCH  25  30
ENDBRANCH   6  25
TORSDOF 8
ENDMDL
MODEL 2
REMARK VINA RESULT:      -7.2      2.062      3.393
REMARK  Name = 
REMARK  8 active torsions:
REMARK  status: ('A' for Active; 'I' for Inactive)
REMARK    1  A    between atoms: O_1  and  C_2
REMARK    2  A    between atoms: C_2  and  C_3
REMARK    3  A    between atoms: C_6  and  N_7
REMARK    4  A    between atoms: N_12  and  C_13
REMARK    5  A    between atoms: C_13  and  C_14
REMARK    6  A    between atoms: C_13  and  C_18
REMARK    7  A    between atoms: C_26  and  O_27
REMARK    8  A    between atoms: C_28  and  O_29
REMARK                            x       y       z     vdW  Elec       q    Type
REMARK                         _______ _______ _______ _____ _____    ______ ____
ROOT
ATOM      1  N   UNL     1       2.743   6.263  19.460  0.00  0.00    +0.000 N 
ATOM      2  C   UNL     1       1.946   6.153  20.576  0.00  0.00    +0.000 A 
ATOM      3  N   UNL     1       1.247   7.245  20.802  0.00  0.00    +0.000 NA
ATOM      4  C   UNL     1       1.569   8.087  19.755  0.00  0.00    +0.000 A 
ATOM      5  C   UNL     1       1.139   9.394  19.427  0.00  0.00    +0.000 A 
ATOM      6  N   UNL     1       0.267  10.112  20.242  0.00  0.00    +0.000 N 
ATOM      7  N   UNL     1       1.638   9.938  18.283  0.00  0.00    +0.000 NA
ATOM      8  C   UNL     1       2.515   9.227  17.548  0.00  0.00    +0.000 A 
ATOM      9  N   UNL     1       3.001   7.990  17.772  0.00  0.00    +0.000 NA
ATOM     10  C   UNL     1       2.483   7.481  18.903  0.00  0.00    +0.000 A 
ATOM     11  H   UNL     1      -0.136   9.521  20.968  0.00  0.00    +0.000 HD
ENDROOT
BRANCH   1  15
ATOM     12  C   UNL     1       5.658   4.516  17.768  0.00  0.00    +0.000 C 
ATOM     13  C   UNL     1       6.142   4.665  19.212  0.00  0.00    +0.000 C 
ATOM     14  C   UNL     1       5.076   5.580  18.706  0.00  0.00    +0.000 C 
ATOM     15  C   UNL     1       3.620   5.213  18.978  0.00  0.00    +0.000 C 
ATOM     16  C   UNL     1       3.201   4.525  17.668  0.00  0.00    +0.000 C 
ATOM     17  C   UNL     1       4.466   3.689  17.312  0.00  0.00    +0.000 C 
BRANCH  16  18
ATOM     18  O   UNL     1       2.063   3.684  17.842  0.00  0.00    +0.000 OA
ATOM     19  H   UNL     1       2.266   3.099  18.600  0.00  0.00    +0.000 HD
ENDBRANCH  16  18
BRANCH  17  20
ATOM     20  O   UNL     1       4.424   2.426  17.978  0.00  0.00    +0.000 OA
ATOM     21  H   UNL     1       3.923   1.799  17.431  0.00  0.00    +0.000 HD
ENDBRANCH  17  20
BRANCH  12  22
ATOM     22  C   UNL     1       6.746   4.648  16.732  0.00  0.00    +0.000 C 
BRANCH  22  23
ATOM     23  O   UNL     1       7.986   4.158  17.215  0.00  0.00    +0.000 OA
ATOM     24  H   UNL     1       8.387   3.648  16.479  0.00  0.00    +0.000 HD
ENDBRANCH  22  23
ENDBRANCH  12  22
ENDBRANCH   1  15
BRANCH   6  25
ATOM     25  C   UNL     1      -0.598  11.125  19.653  0.00  0.00    +0.000 C 
BRANCH  25  26
ATOM     26  C   UNL     1      -1.817  10.482  18.978  0.00  0.00    +0.000 C 
ATOM     27  C   UNL     1      -3.046  11.339  18.544  0.00  0.00    +0.000 C 
ATOM     28  C   UNL     1      -3.073  10.562  17.217  0.00  0.00    +0.000 C 
ATOM     29  C   UNL     1      -1.605  10.187  17.462  0.00  0.00    +0.000 C 
ENDBRANCH  25  26
BRANCH  25  30
ATOM     30  C   UNL     1      -1.201  12.051  20.725  0.00  0.00    +0.000 C 
ATOM     31  C   UNL     1      -1.237  11.674  22.231  0.00  0.00    +0.000 C 
ATOM     32  C   UNL     1      -0.781  13.105  22.570  0.00  0.00    +0.000 C 
ATOM     33  C   UNL     1      -0.318  13.272  21.116  0.00  0.00    +0.000 C 
ENDBRANCH  25  30
ENDBRANCH   6  25
TORSDOF 8
ENDMDL
MODEL 3
REMARK VINA RESULT:      -7.2      1.836      2.386
REMARK  Name = 
REMARK  8 active torsions:
REMARK  status: ('A' for Active; 'I' for Inactive)
REMARK    1  A    between atoms: O_1  and  C_2
REMARK    2  A    between atoms: C_2  and  C_3
REMARK    3  A    between atoms: C_6  and  N_7
REMARK    4  A    between atoms: N_12  and  C_13
REMARK    5  A    between atoms: C_13  and  C_14
REMARK    6  A    between atoms: C_13  and  C_18
REMARK    7  A    between atoms: C_26  and  O_27
REMARK    8  A    between atoms: C_28  and  O_29
REMARK                            x       y       z     vdW  Elec       q    Type
REMARK                         _______ _______ _______ _____ _____    ______ ____
ROOT
ATOM      1  N   UNL     1       2.808   7.075  18.152  0.00  0.00    +0.000 N 
ATOM      2  C   UNL     1       2.807   8.125  17.264  0.00  0.00    +0.000 A 
ATOM      3  N   UNL     1       2.150   9.169  17.722  0.00  0.00    +0.000 NA
ATOM      4  C   UNL     1       1.745   8.796  18.989  0.00  0.00    +0.000 A 
ATOM      5  C   UNL     1       1.016   9.482  19.988  0.00  0.00    +0.000 A 
ATOM      6  N   UNL     1       0.502  10.760  19.781  0.00  0.00    +0.000 N 
ATOM      7  N   UNL     1       0.810   8.824  21.162  0.00  0.00    +0.000 NA
ATOM      8  C   UNL     1       1.284   7.571  21.303  0.00  0.00    +0.000 A 
ATOM      9  N   UNL     1       1.974   6.823  20.420  0.00  0.00    +0.000 NA
ATOM     10  C   UNL     1       2.165   7.504  19.276  0.00  0.00    +0.000 A 
ATOM     11  H   UNL     1       0.868  11.175  18.926  0.00  0.00    +0.000 HD
ENDROOT
BRANCH   1  15
ATOM     12  C   UNL     1       3.722   3.401  18.435  0.00  0.00    +0.000 C 
ATOM     13  C   UNL     1       2.647   3.402  17.346  0.00  0.00    +0.000 C 
ATOM     14  C   UNL     1       2.699   4.537  18.314  0.00  0.00    +0.000 C 
ATOM     15  C   UNL     1       3.453   5.799  17.907  0.00  0.00    +0.000 C 
ATOM     16  C   UNL     1       4.826   5.594  18.570  0.00  0.00    +0.000 C 
ATOM     17  C   UNL     1       5.082   4.075  18.341  0.00  0.00    +0.000 C 
BRANCH  16  18
ATOM     18  O   UNL     1       5.844   6.383  17.957  0.00  0.00    +0.000 OA
ATOM     19  H   UNL     1       5.516   6.611  17.064  0.00  0.00    +0.000 HD
ENDBRANCH  16  18
BRANCH  17  20
ATOM     20  O   UNL     1       5.679   3.865  17.060  0.00  0.00    +0.000 OA
ATOM     21  H   UNL     1       5.067   3.350  16.509  0.00  0.00    +0.000 HD
ENDBRANCH  17  20
BRANCH  12  22
ATOM     22  C   UNL     1       3.699   2.186  19.328  0.00  0.00    +0.000 C 
BRANCH  22  23
ATOM     23  O   UNL     1       4.985   1.906  19.858  0.00  0.00    +0.000 OA
ATOM     24  H   UNL     1       5.458   1.390  19.171  0.00  0.00    +0.000 HD
ENDBRANCH  22  23
ENDBRANCH  12  22
ENDBRANCH   1  15
BRANCH   6  25
ATOM     25  C   UNL     1       0.304  11.648  20.920  0.00  0.00    +0.000 C 
BRANCH  25  26
ATOM     26  C   UNL     1       0.365  13.120  20.486  0.00  0.00    +0.000 C 
ATOM     27  C   UNL     1       1.724  13.880  20.396  0.00  0.00    +0.000 C 
ATOM     28  C   UNL     1       1.260  14.476  19.056  0.00  0.00    +0.000 C 
ATOM     29  C   UNL     1       0.257  13.318  18.944  0.00  0.00    +0.000 C 
ENDBRANCH  25  26
BRANCH  25  30
ATOM     30  C   UNL     1      -1.100  11.489  21.529  0.00  0.00    +0.000 C 
ATOM     31  C   UNL     1      -1.327  11.089  23.012  0.00  0.00    +0.000 C 
ATOM     32  C   UNL     1      -2.415  12.174  23.108  0.00  0.00    +0.000 C 
ATOM     33  C   UNL     1      -1.840  12.822  21.840  0.00  0.00    +0.000 C 
ENDBRANCH  25  30
ENDBRANCH   6  25
TORSDOF 8
ENDMDL
MODEL 4
REMARK VINA RESULT:      -7.2      2.089      3.161
REMARK  Name = 
REMARK  8 active torsions:
REMARK  status: ('A' for Active; 'I' for Inactive)
REMARK    1  A    between atoms: O_1  and  C_2
REMARK    2  A    between atoms: C_2  and  C_3
REMARK    3  A    between atoms: C_6  and  N_7
REMARK    4  A    between atoms: N_12  and  C_13
REMARK    5  A    between atoms: C_13  and  C_14
REMARK    6  A    between atoms: C_13  and  C_18
REMARK    7  A    between atoms: C_26  and  O_27
REMARK    8  A    between atoms: C_28  and  O_29
REMARK                            x       y       z     vdW  Elec       q    Type
REMARK                         _______ _______ _______ _____ _____    ______ ____
ROOT
ATOM      1  N   UNL     1       2.435   6.441  19.429  0.00  0.00    +0.000 N 
ATOM      2  C   UNL     1       1.784   6.354  20.638  0.00  0.00    +0.000 A 
ATOM      3  N   UNL     1       1.210   7.488  20.982  0.00  0.00    +0.000 NA
ATOM      4  C   UNL     1       1.460   8.338  19.923  0.00  0.00    +0.000 A 
ATOM      5  C   UNL     1       1.098   9.685  19.687  0.00  0.00    +0.000 A 
ATOM      6  N   UNL     1       0.400  10.438  20.628  0.00  0.00    +0.000 N 
ATOM      7  N   UNL     1       1.486  10.229  18.500  0.00  0.00    +0.000 NA
ATOM      8  C   UNL     1       2.199   9.479  17.638  0.00  0.00    +0.000 A 
ATOM      9  N   UNL     1       2.608   8.202  17.765  0.00  0.00    +0.000 NA
ATOM     10  C   UNL     1       2.203   7.694  18.943  0.00  0.00    +0.000 A 
ATOM     11  H   UNL     1       0.048   9.855  21.386  0.00  0.00    +0.000 HD
ENDROOT
BRANCH   1  15
ATOM     12  C   UNL     1       3.349   2.938  18.289  0.00  0.00    +0.000 C 
ATOM     13  C   UNL     1       2.574   3.494  17.092  0.00  0.00    +0.000 C 
ATOM     14  C   UNL     1       2.357   4.097  18.441  0.00  0.00    +0.000 C 
ATOM     15  C   UNL     1       3.154   5.345  18.810  0.00  0.00    +0.000 C 
ATOM     16  C   UNL     1       4.328   4.762  19.616  0.00  0.00    +0.000 C 
ATOM     17  C   UNL     1       4.673   3.472  18.815  0.00  0.00    +0.000 C 
BRANCH  16  18
ATOM     18  O   UNL     1       5.443   5.649  19.661  0.00  0.00    +0.000 OA
ATOM     19  H   UNL     1       6.179   5.193  19.205  0.00  0.00    +0.000 HD
ENDBRANCH  16  18
BRANCH  17  20
ATOM     20  O   UNL     1       5.570   3.781  17.747  0.00  0.00    +0.000 OA
ATOM     21  H   UNL     1       5.409   3.165  17.013  0.00  0.00    +0.000 HD
ENDBRANCH  17  20
BRANCH  12  22
ATOM     22  C   UNL     1       3.141   1.464  18.532  0.00  0.00    +0.000 C 
BRANCH  22  23
ATOM     23  O   UNL     1       4.372   0.759  18.537  0.00  0.00    +0.000 OA
ATOM     24  H   UNL     1       4.360   0.182  17.744  0.00  0.00    +0.000 HD
ENDBRANCH  22  23
ENDBRANCH  12  22
ENDBRANCH   1  15
BRANCH   6  25
ATOM     25  C   UNL     1      -0.450  11.535  20.184  0.00  0.00    +0.000 C 
BRANCH  25  26
ATOM     26  C   UNL     1      -1.453  11.059  19.124  0.00  0.00    +0.000 C 
ATOM     27  C   UNL     1      -2.976  11.370  19.255  0.00  0.00    +0.000 C 
ATOM     28  C   UNL     1      -2.993  11.733  17.760  0.00  0.00    +0.000 C 
ATOM     29  C   UNL     1      -1.476  11.950  17.845  0.00  0.00    +0.000 C 
ENDBRANCH  25  26
BRANCH  25  30
ATOM     30  C   UNL     1      -1.331  12.072  21.327  0.00  0.00    +0.000 C 
ATOM     31  C   UNL     1      -1.068  11.723  22.818  0.00  0.00    +0.000 C 
ATOM     32  C   UNL     1      -1.310  13.201  23.175  0.00  0.00    +0.000 C 
ATOM     33  C   UNL     1      -1.093  13.564  21.699  0.00  0.00    +0.000 C 
ENDBRANCH  25  30
ENDBRANCH   6  25
TORSDOF 8
ENDMDL
MODEL 5
REMARK VINA RESULT:      -7.2      1.152      1.909
REMARK  Name = 
REMARK  8 active torsions:
REMARK  status: ('A' for Active; 'I' for Inactive)
REMARK    1  A    between atoms: O_1  and  C_2
REMARK    2  A    between atoms: C_2  and  C_3
REMARK    3  A    between atoms: C_6  and  N_7
REMARK    4  A    between atoms: N_12  and  C_13
REMARK    5  A    between atoms: C_13  and  C_14
REMARK    6  A    between atoms: C_13  and  C_18
REMARK    7  A    between atoms: C_26  and  O_27
REMARK    8  A    between atoms: C_28  and  O_29
REMARK                            x       y       z     vdW  Elec       q    Type
REMARK                         _______ _______ _______ _____ _____    ______ ____
ROOT
ATOM      1  N   UNL     1       2.460   6.939  18.598  0.00  0.00    +0.000 N 
ATOM      2  C   UNL     1       2.731   7.729  17.505  0.00  0.00    +0.000 A 
ATOM      3  N   UNL     1       2.316   8.968  17.667  0.00  0.00    +0.000 NA
ATOM      4  C   UNL     1       1.794   8.995  18.945  0.00  0.00    +0.000 A 
ATOM      5  C   UNL     1       1.208  10.035  19.704  0.00  0.00    +0.000 A 
ATOM      6  N   UNL     1       1.010  11.311  19.181  0.00  0.00    +0.000 N 
ATOM      7  N   UNL     1       0.817   9.728  20.972  0.00  0.00    +0.000 NA
ATOM      8  C   UNL     1       0.984   8.470  21.422  0.00  0.00    +0.000 A 
ATOM      9  N   UNL     1       1.514   7.407  20.786  0.00  0.00    +0.000 NA
ATOM     10  C   UNL     1       1.895   7.746  19.542  0.00  0.00    +0.000 A 
ATOM     11  H   UNL     1       1.491  11.427  18.290  0.00  0.00    +0.000 HD
ENDROOT
BRANCH   1  15
ATOM     12  C   UNL     1       2.417   3.299  19.674  0.00  0.00    +0.000 C 
ATOM     13  C   UNL     1       1.513   3.299  18.439  0.00  0.00    +0.000 C 
ATOM     14  C   UNL     1       1.722   4.575  19.186  0.00  0.00    +0.000 C 
ATOM     15  C   UNL     1       2.802   5.533  18.693  0.00  0.00    +0.000 C 
ATOM     16  C   UNL     1       3.994   5.184  19.600  0.00  0.00    +0.000 C 
ATOM     17  C   UNL     1       3.901   3.632  19.689  0.00  0.00    +0.000 C 
BRANCH  16  18
ATOM     18  O   UNL     1       5.239   5.590  19.034  0.00  0.00    +0.000 OA
ATOM     19  H   UNL     1       5.115   5.586  18.064  0.00  0.00    +0.000 HD
ENDBRANCH  16  18
BRANCH  17  20
ATOM     20  O   UNL     1       4.579   3.034  18.583  0.00  0.00    +0.000 OA
ATOM     21  H   UNL     1       5.002   2.213  18.881  0.00  0.00    +0.000 HD
ENDBRANCH  17  20
BRANCH  12  22
ATOM     22  C   UNL     1       1.994   2.332  20.753  0.00  0.00    +0.000 C 
BRANCH  22  23
ATOM     23  O   UNL     1       2.706   2.555  21.959  0.00  0.00    +0.000 OA
ATOM     24  H   UNL     1       3.350   1.819  22.037  0.00  0.00    +0.000 HD
ENDBRANCH  22  23
ENDBRANCH  12  22
ENDBRANCH   1  15
BRANCH   6  25
ATOM     25  C   UNL     1       0.983  12.459  20.077  0.00  0.00    +0.000 C 
BRANCH  25  26
ATOM     26  C   UNL     1       2.051  13.490  19.682  0.00  0.00    +0.000 C 
ATOM     27  C   UNL     1       2.751  13.435  18.289  0.00  0.00    +0.000 C 
ATOM     28  C   UNL     1       2.578  14.960  18.183  0.00  0.00    +0.000 C 
ATOM     29  C   UNL     1       1.456  14.857  19.226  0.00  0.00    +0.000 C 
ENDBRANCH  25  26
BRANCH  25  30
ATOM     30  C   UNL     1      -0.345  13.230  19.976  0.00  0.00    +0.000 C 
ATOM     31  C   UNL     1      -1.567  12.687  19.185  0.00  0.00    +0.000 C 
ATOM     32  C   UNL     1      -2.475  13.110  20.354  0.00  0.00    +0.000 C 
ATOM     33  C   UNL     1      -1.233  13.186  21.254  0.00  0.00    +0.000 C 
ENDBRANCH  25  30
ENDBRANCH   6  25
TORSDOF 8
ENDMDL
MODEL 6
REMARK VINA RESULT:      -7.2      1.611      1.858
REMARK  Name = 
REMARK  8 active torsions:
REMARK  status: ('A' for Active; 'I' for Inactive)
REMARK    1  A    between atoms: O_1  and  C_2
REMARK    2  A    between atoms: C_2  and  C_3
REMARK    3  A    between atoms: C_6  and  N_7
REMARK    4  A    between atoms: N_12  and  C_13
REMARK    5  A    between atoms: C_13  and  C_14
REMARK    6  A    between atoms: C_13  and  C_18
REMARK    7  A    between atoms: C_26  and  O_27
REMARK    8  A    between atoms: C_28  and  O_29
REMARK                            x       y       z     vdW  Elec       q    Type
REMARK                         _______ _______ _______ _____ _____    ______ ____
ROOT
ATOM      1  N   UNL     1       2.949   7.285  18.405  0.00  0.00    +0.000 N 
ATOM      2  C   UNL     1       2.961   8.137  17.326  0.00  0.00    +0.000 A 
ATOM      3  N   UNL     1       2.147   9.159  17.484  0.00  0.00    +0.000 NA
ATOM      4  C   UNL     1       1.616   8.986  18.747  0.00  0.00    +0.000 A 
ATOM      5  C   UNL     1       0.693   9.753  19.497  0.00  0.00    +0.000 A 
ATOM      6  N   UNL     1       0.086  10.894  18.978  0.00  0.00    +0.000 N 
ATOM      7  N   UNL     1       0.400   9.311  20.751  0.00  0.00    +0.000 NA
ATOM      8  C   UNL     1       0.975   8.177  21.197  0.00  0.00    +0.000 A 
ATOM      9  N   UNL     1       1.849   7.368  20.569  0.00  0.00    +0.000 NA
ATOM     10  C   UNL     1       2.121   7.836  19.338  0.00  0.00    +0.000 A 
ATOM     11  H   UNL     1       0.520  11.181  18.101  0.00  0.00    +0.000 HD
ENDROOT
BRANCH   1  15
ATOM     12  C   UNL     1       5.648   4.704  17.722  0.00  0.00    +0.000 C 
ATOM     13  C   UNL     1       6.261   5.550  18.840  0.00  0.00    +0.000 C 
ATOM     14  C   UNL     1       5.185   6.141  17.991  0.00  0.00    +0.000 C 
ATOM     15  C   UNL     1       3.747   6.077  18.499  0.00  0.00    +0.000 C 
ATOM     16  C   UNL     1       3.194   4.838  17.774  0.00  0.00    +0.000 C 
ATOM     17  C   UNL     1       4.395   3.850  17.840  0.00  0.00    +0.000 C 
BRANCH  16  18
ATOM     18  O   UNL     1       2.049   4.297  18.431  0.00  0.00    +0.000 OA
ATOM     19  H   UNL     1       1.346   4.974  18.362  0.00  0.00    +0.000 HD
ENDBRANCH  16  18
BRANCH  17  20
ATOM     20  O   UNL     1       4.371   3.129  19.072  0.00  0.00    +0.000 OA
ATOM     21  H   UNL     1       5.139   3.392  19.605  0.00  0.00    +0.000 HD
ENDBRANCH  17  20
BRANCH  12  22
ATOM     22  C   UNL     1       6.645   4.195  16.711  0.00  0.00    +0.000 C 
BRANCH  22  23
ATOM     23  O   UNL     1       7.961   4.179  17.241  0.00  0.00    +0.000 OA
ATOM     24  H   UNL     1       8.377   3.352  16.919  0.00  0.00    +0.000 HD
ENDBRANCH  22  23
ENDBRANCH  12  22
ENDBRANCH   1  15
BRANCH   6  25
ATOM     25  C   UNL     1      -0.351  11.950  19.881  0.00  0.00    +0.000 C 
BRANCH  25  26
ATOM     26  C   UNL     1       0.618  13.141  19.844  0.00  0.00    +0.000 C 
ATOM     27  C   UNL     1       2.027  13.057  20.506  0.00  0.00    +0.000 C 
ATOM     28  C   UNL     1       2.613  13.742  19.260  0.00  0.00    +0.000 C 
ATOM     29  C   UNL     1       1.366  13.291  18.485  0.00  0.00    +0.000 C 
ENDBRANCH  25  26
BRANCH  25  30
ATOM     30  C   UNL     1      -1.703  12.546  19.448  0.00  0.00    +0.000 C 
ATOM     31  C   UNL     1      -2.820  11.691  18.790  0.00  0.00    +0.000 C 
ATOM     32  C   UNL     1      -3.849  12.391  19.698  0.00  0.00    +0.000 C 
ATOM     33  C   UNL     1      -2.697  12.840  20.608  0.00  0.00    +0.000 C 
ENDBRANCH  25  30
ENDBRANCH   6  25
TORSDOF 8
ENDMDL
MODEL 7
REMARK VINA RESULT:      -7.2      1.922      3.535
REMARK  Name = 
REMARK  8 active torsions:
REMARK  status: ('A' for Active; 'I' for Inactive)
REMARK    1  A    between atoms: O_1  and  C_2
REMARK    2  A    between atoms: C_2  and  C_3
REMARK    3  A    between atoms: C_6  and  N_7
REMARK    4  A    between atoms: N_12  and  C_13
REMARK    5  A    between atoms: C_13  and  C_14
REMARK    6  A    between atoms: C_13  and  C_18
REMARK    7  A    between atoms: C_26  and  O_27
REMARK    8  A    between atoms: C_28  and  O_29
REMARK                            x       y       z     vdW  Elec       q    Type
REMARK                         _______ _______ _______ _____ _____    ______ ____
ROOT
ATOM      1  N   UNL     1       2.224   6.702  19.384  0.00  0.00    +0.000 N 
ATOM      2  C   UNL     1       1.780   6.595  20.682  0.00  0.00    +0.000 A 
ATOM      3  N   UNL     1       1.346   7.742  21.160  0.00  0.00    +0.000 NA
ATOM      4  C   UNL     1       1.470   8.626  20.106  0.00  0.00    +0.000 A 
ATOM      5  C   UNL     1       1.162  10.002  19.986  0.00  0.00    +0.000 A 
ATOM      6  N   UNL     1       0.681  10.748  21.059  0.00  0.00    +0.000 N 
ATOM      7  N   UNL     1       1.381  10.578  18.772  0.00  0.00    +0.000 NA
ATOM      8  C   UNL     1       1.890   9.831  17.774  0.00  0.00    +0.000 A 
ATOM      9  N   UNL     1       2.231   8.528  17.782  0.00  0.00    +0.000 NA
ATOM     10  C   UNL     1       1.996   7.988  18.991  0.00  0.00    +0.000 A 
ATOM     11  H   UNL     1       0.424  10.151  21.843  0.00  0.00    +0.000 HD
ENDROOT
BRANCH   1  15
ATOM     12  C   UNL     1       3.377   3.212  18.436  0.00  0.00    +0.000 C 
ATOM     13  C   UNL     1       1.924   3.232  17.957  0.00  0.00    +0.000 C 
ATOM     14  C   UNL     1       2.349   4.186  19.024  0.00  0.00    +0.000 C 
ATOM     15  C   UNL     1       2.757   5.597  18.611  0.00  0.00    +0.000 C 
ATOM     16  C   UNL     1       4.290   5.493  18.544  0.00  0.00    +0.000 C 
ATOM     17  C   UNL     1       4.500   4.089  17.903  0.00  0.00    +0.000 C 
BRANCH  16  18
ATOM     18  O   UNL     1       4.864   6.516  17.733  0.00  0.00    +0.000 OA
ATOM     19  H   UNL     1       4.418   6.463  16.864  0.00  0.00    +0.000 HD
ENDBRANCH  16  18
BRANCH  17  20
ATOM     20  O   UNL     1       4.453   4.186  16.479  0.00  0.00    +0.000 OA
ATOM     21  H   UNL     1       4.160   3.334  16.116  0.00  0.00    +0.000 HD
ENDBRANCH  17  20
BRANCH  12  22
ATOM     22  C   UNL     1       3.839   1.876  18.963  0.00  0.00    +0.000 C 
BRANCH  22  23
ATOM     23  O   UNL     1       5.022   2.003  19.735  0.00  0.00    +0.000 OA
ATOM     24  H   UNL     1       5.747   1.628  19.191  0.00  0.00    +0.000 HD
ENDBRANCH  22  23
ENDBRANCH  12  22
ENDBRANCH   1  15
BRANCH   6  25
ATOM     25  C   UNL     1      -0.158  11.912  20.807  0.00  0.00    +0.000 C 
BRANCH  25  26
ATOM     26  C   UNL     1      -0.895  12.345  22.083  0.00  0.00    +0.000 C 
ATOM     27  C   UNL     1      -2.409  12.720  22.053  0.00  0.00    +0.000 C 
ATOM     28  C   UNL     1      -2.599  11.902  23.342  0.00  0.00    +0.000 C 
ATOM     29  C   UNL     1      -1.302  11.153  23.000  0.00  0.00    +0.000 C 
ENDBRANCH  25  26
BRANCH  25  30
ATOM     30  C   UNL     1       0.679  13.143  20.415  0.00  0.00    +0.000 C 
ATOM     31  C   UNL     1       0.100  14.314  19.575  0.00  0.00    +0.000 C 
ATOM     32  C   UNL     1       0.784  15.303  20.536  0.00  0.00    +0.000 C 
ATOM     33  C   UNL     1       0.922  14.169  21.561  0.00  0.00    +0.000 C 
ENDBRANCH  25  30
ENDBRANCH   6  25
TORSDOF 8
ENDMDL
MODEL 8
REMARK VINA RESULT:      -7.1      1.731      2.225
REMARK  Name = 
REMARK  8 active torsions:
REMARK  status: ('A' for Active; 'I' for Inactive)
REMARK    1  A    between atoms: O_1  and  C_2
REMARK    2  A    between atoms: C_2  and  C_3
REMARK    3  A    between atoms: C_6  and  N_7
REMARK    4  A    between atoms: N_12  and  C_13
REMARK    5  A    between atoms: C_13  and  C_14
REMARK    6  A    between atoms: C_13  and  C_18
REMARK    7  A    between atoms: C_26  and  O_27
REMARK    8  A    between atoms: C_28  and  O_29
REMARK                            x       y       z     vdW  Elec       q    Type
REMARK                         _______ _______ _______ _____ _____    ______ ____
ROOT
ATOM      1  N   UNL     1       2.387   7.791  18.629  0.00  0.00    +0.000 N 
ATOM      2  C   UNL     1       2.214   8.703  17.614  0.00  0.00    +0.000 A 
ATOM      3  N   UNL     1       1.445   9.711  17.971  0.00  0.00    +0.000 NA
ATOM      4  C   UNL     1       1.143   9.464  19.296  0.00  0.00    +0.000 A 
ATOM      5  C   UNL     1       0.371  10.182  20.239  0.00  0.00    +0.000 A 
ATOM      6  N   UNL     1      -0.313  11.348  19.899  0.00  0.00    +0.000 N 
ATOM      7  N   UNL     1       0.300   9.668  21.497  0.00  0.00    +0.000 NA
ATOM      8  C   UNL     1       0.938   8.514  21.771  0.00  0.00    +0.000 A 
ATOM      9  N   UNL     1       1.684   7.746  20.954  0.00  0.00    +0.000 NA
ATOM     10  C   UNL     1       1.739   8.284  19.723  0.00  0.00    +0.000 A 
ATOM     11  H   UNL     1      -0.038  11.686  18.978  0.00  0.00    +0.000 HD
ENDROOT
BRANCH   1  15
ATOM     12  C   UNL     1       4.594   5.075  17.159  0.00  0.00    +0.000 C 
ATOM     13  C   UNL     1       5.608   6.037  17.782  0.00  0.00    +0.000 C 
ATOM     14  C   UNL     1       4.251   6.545  17.423  0.00  0.00    +0.000 C 
ATOM     15  C   UNL     1       3.183   6.584  18.513  0.00  0.00    +0.000 C 
ATOM     16  C   UNL     1       2.407   5.279  18.263  0.00  0.00    +0.000 C 
ATOM     17  C   UNL     1       3.546   4.276  17.918  0.00  0.00    +0.000 C 
BRANCH  16  18
ATOM     18  O   UNL     1       1.682   4.855  19.415  0.00  0.00    +0.000 OA
ATOM     19  H   UNL     1       1.947   3.928  19.582  0.00  0.00    +0.000 HD
ENDBRANCH  16  18
BRANCH  17  20
ATOM     20  O   UNL     1       4.086   3.715  19.115  0.00  0.00    +0.000 OA
ATOM     21  H   UNL     1       4.655   2.963  18.880  0.00  0.00    +0.000 HD
ENDBRANCH  17  20
BRANCH  12  22
ATOM     22  C   UNL     1       5.064   4.417  15.885  0.00  0.00    +0.000 C 
BRANCH  22  23
ATOM     23  O   UNL     1       5.860   3.274  16.153  0.00  0.00    +0.000 OA
ATOM     24  H   UNL     1       5.921   3.204  17.129  0.00  0.00    +0.000 HD
ENDBRANCH  22  23
ENDBRANCH  12  22
ENDBRANCH   1  15
BRANCH   6  25
ATOM     25  C   UNL     1      -0.579  12.349  20.924  0.00  0.00    +0.000 C 
BRANCH  25  26
ATOM     26  C   UNL     1      -0.589  13.762  20.322  0.00  0.00    +0.000 C 
ATOM     27  C   UNL     1       0.679  14.669  20.370  0.00  0.00    +0.000 C 
ATOM     28  C   UNL     1       0.413  15.055  18.905  0.00  0.00    +0.000 C 
ATOM     29  C   UNL     1      -0.429  13.778  18.772  0.00  0.00    +0.000 C 
ENDBRANCH  25  26
BRANCH  25  30
ATOM     30  C   UNL     1      -1.984  12.184  21.529  0.00  0.00    +0.000 C 
ATOM     31  C   UNL     1      -2.215  11.900  23.039  0.00  0.00    +0.000 C 
ATOM     32  C   UNL     1      -3.347  12.944  23.032  0.00  0.00    +0.000 C 
ATOM     33  C   UNL     1      -2.781  13.508  21.721  0.00  0.00    +0.000 C 
ENDBRANCH  25  30
ENDBRANCH   6  25
TORSDOF 8
ENDMDL
MODEL 9
REMARK VINA RESULT:      -7.1      1.490      1.785
REMARK  Name = 
REMARK  8 active torsions:
REMARK  status: ('A' for Active; 'I' for Inactive)
REMARK    1  A    between atoms: O_1  and  C_2
REMARK    2  A    between atoms: C_2  and  C_3
REMARK    3  A    between atoms: C_6  and  N_7
REMARK    4  A    between atoms: N_12  and  C_13
REMARK    5  A    between atoms: C_13  and  C_14
REMARK    6  A    between atoms: C_13  and  C_18
REMARK    7  A    between atoms: C_26  and  O_27
REMARK    8  A    between atoms: C_28  and  O_29
REMARK                            x       y       z     vdW  Elec       q    Type
REMARK                         _______ _______ _______ _____ _____    ______ ____
ROOT
ATOM      1  N   UNL     1       2.507   7.623  18.591  0.00  0.00    +0.000 N 
ATOM      2  C   UNL     1       2.485   8.495  17.527  0.00  0.00    +0.000 A 
ATOM      3  N   UNL     1       1.715   9.539  17.751  0.00  0.00    +0.000 NA
ATOM      4  C   UNL     1       1.253   9.359  19.040  0.00  0.00    +0.000 A 
ATOM      5  C   UNL     1       0.401  10.141  19.855  0.00  0.00    +0.000 A 
ATOM      6  N   UNL     1      -0.198  11.310  19.392  0.00  0.00    +0.000 N 
ATOM      7  N   UNL     1       0.166   9.684  21.116  0.00  0.00    +0.000 NA
ATOM      8  C   UNL     1       0.728   8.525  21.509  0.00  0.00    +0.000 A 
ATOM      9  N   UNL     1       1.537   7.700  20.816  0.00  0.00    +0.000 NA
ATOM     10  C   UNL     1       1.753   8.183  19.580  0.00  0.00    +0.000 A 
ATOM     11  H   UNL     1       0.193  11.600  18.497  0.00  0.00    +0.000 HD
ENDROOT
BRANCH   1  15
ATOM     12  C   UNL     1       4.717   4.745  17.476  0.00  0.00    +0.000 C 
ATOM     13  C   UNL     1       5.718   5.723  18.095  0.00  0.00    +0.000 C 
ATOM     14  C   UNL     1       4.405   6.240  17.609  0.00  0.00    +0.000 C 
ATOM     15  C   UNL     1       3.269   6.389  18.617  0.00  0.00    +0.000 C 
ATOM     16  C   UNL     1       2.469   5.092  18.410  0.00  0.00    +0.000 C 
ATOM     17  C   UNL     1       3.595   4.034  18.218  0.00  0.00    +0.000 C 
BRANCH  16  18
ATOM     18  O   UNL     1       1.657   4.775  19.539  0.00  0.00    +0.000 OA
ATOM     19  H   UNL     1       1.439   5.626  19.970  0.00  0.00    +0.000 HD
ENDBRANCH  16  18
BRANCH  17  20
ATOM     20  O   UNL     1       4.037   3.549  19.487  0.00  0.00    +0.000 OA
ATOM     21  H   UNL     1       4.867   3.061  19.365  0.00  0.00    +0.000 HD
ENDBRANCH  17  20
BRANCH  12  22
ATOM     22  C   UNL     1       5.248   3.981  16.288  0.00  0.00    +0.000 C 
BRANCH  22  23
ATOM     23  O   UNL     1       6.649   3.781  16.383  0.00  0.00    +0.000 OA
ATOM     24  H   UNL     1       6.785   2.813  16.452  0.00  0.00    +0.000 HD
ENDBRANCH  22  23
ENDBRANCH  12  22
ENDBRANCH   1  15
BRANCH   6  25
ATOM     25  C   UNL     1      -0.547  12.362  20.337  0.00  0.00    +0.000 C 
BRANCH  25  26
ATOM     26  C   UNL     1       0.403  13.561  20.201  0.00  0.00    +0.000 C 
ATOM     27  C   UNL     1       1.547  13.568  19.141  0.00  0.00    +0.000 C 
ATOM     28  C   UNL     1       1.172  15.021  18.800  0.00  0.00    +0.000 C 
ATOM     29  C   UNL     1      -0.211  14.755  19.411  0.00  0.00    +0.000 C 
ENDBRANCH  25  26
BRANCH  25  30
ATOM     30  C   UNL     1      -1.941  12.948  20.047  0.00  0.00    +0.000 C 
ATOM     31  C   UNL     1      -3.028  12.167  19.259  0.00  0.00    +0.000 C 
ATOM     32  C   UNL     1      -4.067  12.622  20.300  0.00  0.00    +0.000 C 
ATOM     33  C   UNL     1      -2.918  12.959  21.259  0.00  0.00    +0.000 C 
ENDBRANCH  25  30
ENDBRANCH   6  25
TORSDOF 8
ENDMDL
