MODEL 1
REMARK VINA RESULT:      -7.0      0.000      0.000
REMARK  Name = 
REMARK  6 active torsions:
REMARK  status: ('A' for Active; 'I' for Inactive)
REMARK    1  A    between atoms: C_1  and  C_2
REMARK    2  A    between atoms: C_2  and  C_3
REMARK    3  A    between atoms: C_3  and  C_4
REMARK    4  A    between atoms: C_4  and  N_5
REMARK    5  A    between atoms: N_5  and  C_6
REMARK    6  A    between atoms: C_14  and  N_15
REMARK                            x       y       z     vdW  Elec       q    Type
REMARK                         _______ _______ _______ _____ _____    ______ ____
ROOT
ATOM      1  C   UNL     1       4.127   4.486  17.820  0.00  0.00    +0.000 A 
ATOM      2  C   UNL     1       4.287   5.835  17.482  0.00  0.00    +0.000 A 
ATOM      3  C   UNL     1       3.502   6.782  18.105  0.00  0.00    +0.000 A 
ATOM      4  N   UNL     1       2.570   6.476  19.018  0.00  0.00    +0.000 NA
ATOM      5  C   UNL     1       2.452   5.199  19.405  0.00  0.00    +0.000 A 
ATOM      6  C   UNL     1       1.461   4.954  20.348  0.00  0.00    +0.000 A 
ATOM      7  C   UNL     1       1.228   3.690  20.888  0.00  0.00    +0.000 A 
ATOM      8  C   UNL     1       2.058   2.651  20.523  0.00  0.00    +0.000 A 
ATOM      9  C   UNL     1       3.077   2.891  19.587  0.00  0.00    +0.000 A 
ATOM     10  C   UNL     1       3.257   4.145  18.912  0.00  0.00    +0.000 A 
ENDROOT
BRANCH   9  11
ATOM     11  N   UNL     1       4.049   1.825  19.463  0.00  0.00    +0.000 N 
ATOM     12  O   UNL     1       4.979   1.813  20.282  0.00  0.00    +0.000 OA
ATOM     13  O   UNL     1       3.913   1.031  18.517  0.00  0.00    +0.000 OA
ENDBRANCH   9  11
BRANCH   1  14
ATOM     14  N   UNL     1       4.914   3.606  17.063  0.00  0.00    +0.000 N 
ATOM     15  H   UNL     1       4.383   2.793  16.749  0.00  0.00    +0.000 HD
BRANCH  14  16
ATOM     16  C   UNL     1       5.901   4.068  16.096  0.00  0.00    +0.000 C 
BRANCH  16  17
ATOM     17  C   UNL     1       5.376   4.008  14.666  0.00  0.00    +0.000 C 
BRANCH  17  19
ATOM     18  C   UNL     1       6.017   3.345  12.339  0.00  0.00    +0.000 C 
ATOM     19  C   UNL     1       6.471   4.056  13.605  0.00  0.00    +0.000 C 
ENDBRANCH  17  19
ENDBRANCH  16  17
ENDBRANCH  14  16
ENDBRANCH   1  14
TORSDOF 5
ENDMDL
MODEL 2
REMARK VINA RESULT:      -7.0      1.238      2.045
REMARK  Name = 
REMARK  6 active torsions:
REMARK  status: ('A' for Active; 'I' for Inactive)
REMARK    1  A    between atoms: C_1  and  C_2
REMARK    2  A    between atoms: C_2  and  C_3
REMARK    3  A    between atoms: C_3  and  C_4
REMARK    4  A    between atoms: C_4  and  N_5
REMARK    5  A    between atoms: N_5  and  C_6
REMARK    6  A    between atoms: C_14  and  N_15
REMARK                            x       y       z     vdW  Elec       q    Type
REMARK                         _______ _______ _______ _____ _____    ______ ____
ROOT
ATOM      1  C   UNL     1       3.824   4.810  17.876  0.00  0.00    +0.000 A 
ATOM      2  C   UNL     1       3.870   6.192  17.659  0.00  0.00    +0.000 A 
ATOM      3  C   UNL     1       3.060   7.017  18.410  0.00  0.00    +0.000 A 
ATOM      4  N   UNL     1       2.209   6.562  19.340  0.00  0.00    +0.000 NA
ATOM      5  C   UNL     1       2.203   5.249  19.609  0.00  0.00    +0.000 A 
ATOM      6  C   UNL     1       1.291   4.847  20.577  0.00  0.00    +0.000 A 
ATOM      7  C   UNL     1       1.180   3.525  21.006  0.00  0.00    +0.000 A 
ATOM      8  C   UNL     1       2.056   2.588  20.500  0.00  0.00    +0.000 A 
ATOM      9  C   UNL     1       2.997   2.988  19.538  0.00  0.00    +0.000 A 
ATOM     10  C   UNL     1       3.048   4.307  18.976  0.00  0.00    +0.000 A 
ENDROOT
BRANCH   9  11
ATOM     11  N   UNL     1       4.032   2.013  19.261  0.00  0.00    +0.000 N 
ATOM     12  O   UNL     1       3.859   1.272  18.282  0.00  0.00    +0.000 OA
ATOM     13  O   UNL     1       4.991   1.953  20.049  0.00  0.00    +0.000 OA
ENDBRANCH   9  11
BRANCH   1  14
ATOM     14  N   UNL     1       4.623   4.064  16.997  0.00  0.00    +0.000 N 
ATOM     15  H   UNL     1       4.137   3.238  16.647  0.00  0.00    +0.000 HD
BRANCH  14  16
ATOM     16  C   UNL     1       5.504   4.684  16.016  0.00  0.00    +0.000 C 
BRANCH  16  17
ATOM     17  C   UNL     1       6.966   4.325  16.249  0.00  0.00    +0.000 C 
BRANCH  17  19
ATOM     18  C   UNL     1       7.474   6.229  17.794  0.00  0.00    +0.000 C 
ATOM     19  C   UNL     1       7.484   4.716  17.630  0.00  0.00    +0.000 C 
ENDBRANCH  17  19
ENDBRANCH  16  17
ENDBRANCH  14  16
ENDBRANCH   1  14
TORSDOF 5
ENDMDL
MODEL 3
REMARK VINA RESULT:      -6.8      1.757      5.110
REMARK  Name = 
REMARK  6 active torsions:
REMARK  status: ('A' for Active; 'I' for Inactive)
REMARK    1  A    between atoms: C_1  and  C_2
REMARK    2  A    between atoms: C_2  and  C_3
REMARK    3  A    between atoms: C_3  and  C_4
REMARK    4  A    between atoms: C_4  and  N_5
REMARK    5  A    between atoms: N_5  and  C_6
REMARK    6  A    between atoms: C_14  and  N_15
REMARK                            x       y       z     vdW  Elec       q    Type
REMARK                         _______ _______ _______ _____ _____    ______ ____
ROOT
ATOM      1  C   UNL     1       3.260   6.159  19.140  0.00  0.00    +0.000 A 
ATOM      2  C   UNL     1       2.496   7.327  19.042  0.00  0.00    +0.000 A 
ATOM      3  C   UNL     1       2.660   8.148  17.946  0.00  0.00    +0.000 A 
ATOM      4  N   UNL     1       3.535   7.892  16.963  0.00  0.00    +0.000 NA
ATOM      5  C   UNL     1       4.223   6.744  17.006  0.00  0.00    +0.000 A 
ATOM      6  C   UNL     1       5.116   6.548  15.959  0.00  0.00    +0.000 A 
ATOM      7  C   UNL     1       5.883   5.392  15.827  0.00  0.00    +0.000 A 
ATOM      8  C   UNL     1       5.701   4.369  16.734  0.00  0.00    +0.000 A 
ATOM      9  C   UNL     1       4.785   4.546  17.784  0.00  0.00    +0.000 A 
ATOM     10  C   UNL     1       4.081   5.773  18.026  0.00  0.00    +0.000 A 
ENDROOT
BRANCH   9  11
ATOM     11  N   UNL     1       4.470   3.341  18.523  0.00  0.00    +0.000 N 
ATOM     12  O   UNL     1       3.654   2.562  18.008  0.00  0.00    +0.000 OA
ATOM     13  O   UNL     1       4.998   3.197  19.638  0.00  0.00    +0.000 OA
ENDBRANCH   9  11
BRANCH   1  14
ATOM     14  N   UNL     1       3.073   5.448  20.336  0.00  0.00    +0.000 N 
ATOM     15  H   UNL     1       3.709   5.762  21.069  0.00  0.00    +0.000 HD
BRANCH  14  16
ATOM     16  C   UNL     1       1.755   5.070  20.827  0.00  0.00    +0.000 C 
BRANCH  16  17
ATOM     17  C   UNL     1       1.071   4.059  19.915  0.00  0.00    +0.000 C 
BRANCH  17  19
ATOM     18  C   UNL     1       1.777   2.573  21.802  0.00  0.00    +0.000 C 
ATOM     19  C   UNL     1       1.162   2.619  20.411  0.00  0.00    +0.000 C 
ENDBRANCH  17  19
ENDBRANCH  16  17
ENDBRANCH  14  16
ENDBRANCH   1  14
TORSDOF 5
ENDMDL
MODEL 4
REMARK VINA RESULT:      -6.7      1.786      4.905
REMARK  Name = 
REMARK  6 active torsions:
REMARK  status: ('A' for Active; 'I' for Inactive)
REMARK    1  A    between atoms: C_1  and  C_2
REMARK    2  A    between atoms: C_2  and  C_3
REMARK    3  A    between atoms: C_3  and  C_4
REMARK    4  A    between atoms: C_4  and  N_5
REMARK    5  A    between atoms: N_5  and  C_6
REMARK    6  A    between atoms: C_14  and  N_15
REMARK                            x       y       z     vdW  Elec       q    Type
REMARK                         _______ _______ _______ _____ _____    ______ ____
ROOT
ATOM      1  C   UNL     1       3.214   5.990  19.336  0.00  0.00    +0.000 A 
ATOM      2  C   UNL     1       2.399   7.127  19.327  0.00  0.00    +0.000 A 
ATOM      3  C   UNL     1       2.515   8.029  18.290  0.00  0.00    +0.000 A 
ATOM      4  N   UNL     1       3.388   7.881  17.283  0.00  0.00    +0.000 NA
ATOM      5  C   UNL     1       4.125   6.763  17.239  0.00  0.00    +0.000 A 
ATOM      6  C   UNL     1       5.013   6.681  16.173  0.00  0.00    +0.000 A 
ATOM      7  C   UNL     1       5.828   5.571  15.954  0.00  0.00    +0.000 A 
ATOM      8  C   UNL     1       5.701   4.480  16.789  0.00  0.00    +0.000 A 
ATOM      9  C   UNL     1       4.791   4.544  17.856  0.00  0.00    +0.000 A 
ATOM     10  C   UNL     1       4.038   5.719  18.190  0.00  0.00    +0.000 A 
ENDROOT
BRANCH   9  11
ATOM     11  N   UNL     1       4.537   3.278  18.512  0.00  0.00    +0.000 N 
ATOM     12  O   UNL     1       5.042   3.113  19.632  0.00  0.00    +0.000 OA
ATOM     13  O   UNL     1       3.877   2.430  17.888  0.00  0.00    +0.000 OA
ENDBRANCH   9  11
BRANCH   1  14
ATOM     14  N   UNL     1       3.074   5.191  20.481  0.00  0.00    +0.000 N 
ATOM     15  H   UNL     1       3.721   5.465  21.219  0.00  0.00    +0.000 HD
BRANCH  14  16
ATOM     16  C   UNL     1       1.777   4.747  20.975  0.00  0.00    +0.000 C 
BRANCH  16  17
ATOM     17  C   UNL     1       1.813   3.306  21.469  0.00  0.00    +0.000 C 
BRANCH  17  19
ATOM     18  C   UNL     1       0.687   2.859  19.278  0.00  0.00    +0.000 C 
ATOM     19  C   UNL     1       1.563   2.273  20.375  0.00  0.00    +0.000 C 
ENDBRANCH  17  19
ENDBRANCH  16  17
ENDBRANCH  14  16
ENDBRANCH   1  14
TORSDOF 5
ENDMDL
MODEL 5
REMARK VINA RESULT:      -6.5      1.657      2.132
REMARK  Name = 
REMARK  6 active torsions:
REMARK  status: ('A' for Active; 'I' for Inactive)
REMARK    1  A    between atoms: C_1  and  C_2
REMARK    2  A    between atoms: C_2  and  C_3
REMARK    3  A    between atoms: C_3  and  C_4
REMARK    4  A    between atoms: C_4  and  N_5
REMARK    5  A    between atoms: N_5  and  C_6
REMARK    6  A    between atoms: C_14  and  N_15
REMARK                            x       y       z     vdW  Elec       q    Type
REMARK                         _______ _______ _______ _____ _____    ______ ____
ROOT
ATOM      1  C   UNL     1       4.526   4.930  18.926  0.00  0.00    +0.000 A 
ATOM      2  C   UNL     1       4.388   6.261  18.514  0.00  0.00    +0.000 A 
ATOM      3  C   UNL     1       3.177   6.685  18.009  0.00  0.00    +0.000 A 
ATOM      4  N   UNL     1       2.115   5.879  17.874  0.00  0.00    +0.000 NA
ATOM      5  C   UNL     1       2.209   4.622  18.328  0.00  0.00    +0.000 A 
ATOM      6  C   UNL     1       1.073   3.841  18.149  0.00  0.00    +0.000 A 
ATOM      7  C   UNL     1       0.984   2.524  18.596  0.00  0.00    +0.000 A 
ATOM      8  C   UNL     1       2.041   1.993  19.306  0.00  0.00    +0.000 A 
ATOM      9  C   UNL     1       3.185   2.780  19.513  0.00  0.00    +0.000 A 
ATOM     10  C   UNL     1       3.362   4.088  18.950  0.00  0.00    +0.000 A 
ENDROOT
BRANCH   9  11
ATOM     11  N   UNL     1       4.123   2.244  20.478  0.00  0.00    +0.000 N 
ATOM     12  O   UNL     1       5.207   1.834  20.040  0.00  0.00    +0.000 OA
ATOM     13  O   UNL     1       3.756   2.186  21.664  0.00  0.00    +0.000 OA
ENDBRANCH   9  11
BRANCH   1  14
ATOM     14  N   UNL     1       5.822   4.588  19.339  0.00  0.00    +0.000 N 
ATOM     15  H   UNL     1       5.925   3.583  19.481  0.00  0.00    +0.000 HD
BRANCH  14  16
ATOM     16  C   UNL     1       7.015   5.226  18.797  0.00  0.00    +0.000 C 
BRANCH  16  17
ATOM     17  C   UNL     1       7.470   4.580  17.494  0.00  0.00    +0.000 C 
BRANCH  17  19
ATOM     18  C   UNL     1       6.718   4.419  15.111  0.00  0.00    +0.000 C 
ATOM     19  C   UNL     1       7.079   5.366  16.246  0.00  0.00    +0.000 C 
ENDBRANCH  17  19
ENDBRANCH  16  17
ENDBRANCH  14  16
ENDBRANCH   1  14
TORSDOF 5
ENDMDL
MODEL 6
REMARK VINA RESULT:      -6.3      2.831      3.793
REMARK  Name = 
REMARK  6 active torsions:
REMARK  status: ('A' for Active; 'I' for Inactive)
REMARK    1  A    between atoms: C_1  and  C_2
REMARK    2  A    between atoms: C_2  and  C_3
REMARK    3  A    between atoms: C_3  and  C_4
REMARK    4  A    between atoms: C_4  and  N_5
REMARK    5  A    between atoms: N_5  and  C_6
REMARK    6  A    between atoms: C_14  and  N_15
REMARK                            x       y       z     vdW  Elec       q    Type
REMARK                         _______ _______ _______ _____ _____    ______ ____
ROOT
ATOM      1  C   UNL     1       4.624   4.036  17.143  0.00  0.00    +0.000 A 
ATOM      2  C   UNL     1       3.966   2.806  17.255  0.00  0.00    +0.000 A 
ATOM      3  C   UNL     1       2.694   2.769  17.786  0.00  0.00    +0.000 A 
ATOM      4  N   UNL     1       2.049   3.861  18.220  0.00  0.00    +0.000 NA
ATOM      5  C   UNL     1       2.635   5.054  18.055  0.00  0.00    +0.000 A 
ATOM      6  C   UNL     1       1.912   6.140  18.535  0.00  0.00    +0.000 A 
ATOM      7  C   UNL     1       2.356   7.456  18.411  0.00  0.00    +0.000 A 
ATOM      8  C   UNL     1       3.528   7.698  17.724  0.00  0.00    +0.000 A 
ATOM      9  C   UNL     1       4.255   6.610  17.216  0.00  0.00    +0.000 A 
ATOM     10  C   UNL     1       3.897   5.239  17.443  0.00  0.00    +0.000 A 
ENDROOT
BRANCH   9  11
ATOM     11  N   UNL     1       5.316   6.967  16.297  0.00  0.00    +0.000 N 
ATOM     12  O   UNL     1       6.453   7.095  16.774  0.00  0.00    +0.000 OA
ATOM     13  O   UNL     1       5.006   7.169  15.111  0.00  0.00    +0.000 OA
ENDBRANCH   9  11
BRANCH   1  14
ATOM     14  N   UNL     1       5.942   3.943  16.673  0.00  0.00    +0.000 N 
ATOM     15  H   UNL     1       6.596   3.700  17.417  0.00  0.00    +0.000 HD
BRANCH  14  16
ATOM     16  C   UNL     1       6.277   3.352  15.384  0.00  0.00    +0.000 C 
BRANCH  16  17
ATOM     17  C   UNL     1       5.683   4.138  14.221  0.00  0.00    +0.000 C 
BRANCH  17  19
ATOM     18  C   UNL     1       4.987   3.295  11.969  0.00  0.00    +0.000 C 
ATOM     19  C   UNL     1       6.168   3.673  12.851  0.00  0.00    +0.000 C 
ENDBRANCH  17  19
ENDBRANCH  16  17
ENDBRANCH  14  16
ENDBRANCH   1  14
TORSDOF 5
ENDMDL
MODEL 7
REMARK VINA RESULT:      -6.3      2.268      3.055
REMARK  Name = 
REMARK  6 active torsions:
REMARK  status: ('A' for Active; 'I' for Inactive)
REMARK    1  A    between atoms: C_1  and  C_2
REMARK    2  A    between atoms: C_2  and  C_3
REMARK    3  A    between atoms: C_3  and  C_4
REMARK    4  A    between atoms: C_4  and  N_5
REMARK    5  A    between atoms: N_5  and  C_6
REMARK    6  A    between atoms: C_14  and  N_15
REMARK                            x       y       z     vdW  Elec       q    Type
REMARK                         _______ _______ _______ _____ _____    ______ ____
ROOT
ATOM      1  C   UNL     1       3.105   6.216  18.563  0.00  0.00    +0.000 A 
ATOM      2  C   UNL     1       2.552   7.433  18.980  0.00  0.00    +0.000 A 
ATOM      3  C   UNL     1       1.772   7.463  20.116  0.00  0.00    +0.000 A 
ATOM      4  N   UNL     1       1.498   6.373  20.847  0.00  0.00    +0.000 NA
ATOM      5  C   UNL     1       2.076   5.215  20.503  0.00  0.00    +0.000 A 
ATOM      6  C   UNL     1       1.741   4.126  21.300  0.00  0.00    +0.000 A 
ATOM      7  C   UNL     1       2.281   2.855  21.107  0.00  0.00    +0.000 A 
ATOM      8  C   UNL     1       3.239   2.683  20.129  0.00  0.00    +0.000 A 
ATOM      9  C   UNL     1       3.602   3.781  19.333  0.00  0.00    +0.000 A 
ATOM     10  C   UNL     1       2.968   5.066  19.414  0.00  0.00    +0.000 A 
ENDROOT
BRANCH   9  11
ATOM     11  N   UNL     1       4.783   3.577  18.521  0.00  0.00    +0.000 N 
ATOM     12  O   UNL     1       4.605   3.206  17.352  0.00  0.00    +0.000 OA
ATOM     13  O   UNL     1       5.889   3.737  19.065  0.00  0.00    +0.000 OA
ENDBRANCH   9  11
BRANCH   1  14
ATOM     14  N   UNL     1       3.805   6.288  17.350  0.00  0.00    +0.000 N 
ATOM     15  H   UNL     1       3.178   6.270  16.546  0.00  0.00    +0.000 HD
BRANCH  14  16
ATOM     16  C   UNL     1       4.970   7.143  17.164  0.00  0.00    +0.000 C 
BRANCH  16  17
ATOM     17  C   UNL     1       6.209   6.348  16.770  0.00  0.00    +0.000 C 
BRANCH  17  19
ATOM     18  C   UNL     1       7.760   8.122  17.616  0.00  0.00    +0.000 C 
ATOM     19  C   UNL     1       7.429   6.637  17.639  0.00  0.00    +0.000 C 
ENDBRANCH  17  19
ENDBRANCH  16  17
ENDBRANCH  14  16
ENDBRANCH   1  14
TORSDOF 5
ENDMDL
MODEL 8
REMARK VINA RESULT:      -6.3      1.209      1.468
REMARK  Name = 
REMARK  6 active torsions:
REMARK  status: ('A' for Active; 'I' for Inactive)
REMARK    1  A    between atoms: C_1  and  C_2
REMARK    2  A    between atoms: C_2  and  C_3
REMARK    3  A    between atoms: C_3  and  C_4
REMARK    4  A    between atoms: C_4  and  N_5
REMARK    5  A    between atoms: N_5  and  C_6
REMARK    6  A    between atoms: C_14  and  N_15
REMARK                            x       y       z     vdW  Elec       q    Type
REMARK                         _______ _______ _______ _____ _____    ______ ____
ROOT
ATOM      1  C   UNL     1       3.736   6.061  17.689  0.00  0.00    +0.000 A 
ATOM      2  C   UNL     1       3.575   7.446  17.570  0.00  0.00    +0.000 A 
ATOM      3  C   UNL     1       2.734   8.103  18.442  0.00  0.00    +0.000 A 
ATOM      4  N   UNL     1       2.040   7.478  19.404  0.00  0.00    +0.000 NA
ATOM      5  C   UNL     1       2.236   6.164  19.577  0.00  0.00    +0.000 A 
ATOM      6  C   UNL     1       1.479   5.580  20.586  0.00  0.00    +0.000 A 
ATOM      7  C   UNL     1       1.586   4.233  20.927  0.00  0.00    +0.000 A 
ATOM      8  C   UNL     1       2.530   3.460  20.284  0.00  0.00    +0.000 A 
ATOM      9  C   UNL     1       3.317   4.044  19.278  0.00  0.00    +0.000 A 
ATOM     10  C   UNL     1       3.138   5.389  18.810  0.00  0.00    +0.000 A 
ENDROOT
BRANCH   9  11
ATOM     11  N   UNL     1       4.443   3.243  18.847  0.00  0.00    +0.000 N 
ATOM     12  O   UNL     1       5.482   3.324  19.519  0.00  0.00    +0.000 OA
ATOM     13  O   UNL     1       4.307   2.571  17.811  0.00  0.00    +0.000 OA
ENDBRANCH   9  11
BRANCH   1  14
ATOM     14  N   UNL     1       4.543   5.487  16.696  0.00  0.00    +0.000 N 
ATOM     15  H   UNL     1       4.041   5.371  15.816  0.00  0.00    +0.000 HD
BRANCH  14  16
ATOM     16  C   UNL     1       5.948   5.837  16.526  0.00  0.00    +0.000 C 
BRANCH  16  17
ATOM     17  C   UNL     1       6.723   4.756  15.783  0.00  0.00    +0.000 C 
BRANCH  17  19
ATOM     18  C   UNL     1       6.287   3.905  13.469  0.00  0.00    +0.000 C 
ATOM     19  C   UNL     1       5.846   3.849  14.924  0.00  0.00    +0.000 C 
ENDBRANCH  17  19
ENDBRANCH  16  17
ENDBRANCH  14  16
ENDBRANCH   1  14
TORSDOF 5
ENDMDL
MODEL 9
REMARK VINA RESULT:      -6.3      3.133      6.277
REMARK  Name = 
REMARK  6 active torsions:
REMARK  status: ('A' for Active; 'I' for Inactive)
REMARK    1  A    between atoms: C_1  and  C_2
REMARK    2  A    between atoms: C_2  and  C_3
REMARK    3  A    between atoms: C_3  and  C_4
REMARK    4  A    between atoms: C_4  and  N_5
REMARK    5  A    between atoms: N_5  and  C_6
REMARK    6  A    between atoms: C_14  and  N_15
REMARK                            x       y       z     vdW  Elec       q    Type
REMARK                         _______ _______ _______ _____ _____    ______ ____
ROOT
ATOM      1  C   UNL     1       2.343   6.859  19.671  0.00  0.00    +0.000 A 
ATOM      2  C   UNL     1       2.382   7.906  18.743  0.00  0.00    +0.000 A 
ATOM      3  C   UNL     1       3.179   7.784  17.625  0.00  0.00    +0.000 A 
ATOM      4  N   UNL     1       3.940   6.708  17.380  0.00  0.00    +0.000 NA
ATOM      5  C   UNL     1       3.861   5.669  18.221  0.00  0.00    +0.000 A 
ATOM      6  C   UNL     1       4.683   4.592  17.911  0.00  0.00    +0.000 A 
ATOM      7  C   UNL     1       4.698   3.414  18.656  0.00  0.00    +0.000 A 
ATOM      8  C   UNL     1       3.813   3.283  19.706  0.00  0.00    +0.000 A 
ATOM      9  C   UNL     1       2.961   4.356  20.015  0.00  0.00    +0.000 A 
ATOM     10  C   UNL     1       3.015   5.629  19.355  0.00  0.00    +0.000 A 
ENDROOT
BRANCH   9  11
ATOM     11  N   UNL     1       1.901   4.038  20.948  0.00  0.00    +0.000 N 
ATOM     12  O   UNL     1       2.240   3.627  22.067  0.00  0.00    +0.000 OA
ATOM     13  O   UNL     1       0.730   4.151  20.547  0.00  0.00    +0.000 OA
ENDBRANCH   9  11
BRANCH   1  14
ATOM     14  N   UNL     1       1.570   7.129  20.810  0.00  0.00    +0.000 N 
ATOM     15  H   UNL     1       1.772   6.480  21.570  0.00  0.00    +0.000 HD
BRANCH  14  16
ATOM     16  C   UNL     1       1.278   8.484  21.260  0.00  0.00    +0.000 C 
BRANCH  16  17
ATOM     17  C   UNL     1      -0.145   8.619  21.788  0.00  0.00    +0.000 C 
BRANCH  17  19
ATOM     18  C   UNL     1      -0.924  10.712  22.919  0.00  0.00    +0.000 C 
ATOM     19  C   UNL     1      -0.242   9.366  23.114  0.00  0.00    +0.000 C 
ENDBRANCH  17  19
ENDBRANCH  16  17
ENDBRANCH  14  16
ENDBRANCH   1  14
TORSDOF 5
ENDMDL
