MODEL 1
REMARK VINA RESULT:      -7.4      0.000      0.000
REMARK  Name = 
REMARK  6 active torsions:
REMARK  status: ('A' for Active; 'I' for Inactive)
REMARK    1  A    between atoms: C_1  and  C_2
REMARK    2  A    between atoms: C_5  and  C_6
REMARK    3  A    between atoms: N_11  and  C_12
REMARK    4  A    between atoms: C_13  and  C_14
REMARK    5  A    between atoms: N_15  and  C_16
REMARK    6  A    between atoms: N_17  and  C_18
REMARK                            x       y       z     vdW  Elec       q    Type
REMARK                         _______ _______ _______ _____ _____    ______ ____
ROOT
ATOM      1  C   UNL     1       1.064   8.608  21.377  0.00  0.00    +0.000 C 
ATOM      2  C   UNL     1       0.325   9.679  21.061  0.00  0.00    +0.000 C 
ATOM      3  S   UNL     1      -0.143  10.185  19.492  0.00  0.00    +0.000 S 
ATOM      4  C   UNL     1      -0.828  11.694  20.088  0.00  0.00    +0.000 C 
ATOM      5  S   UNL     1      -1.188  12.927  19.010  0.00  0.00    +0.000 S 
ATOM      6  N   UNL     1      -0.838  11.699  21.486  0.00  0.00    +0.000 N 
ATOM      7  C   UNL     1      -0.204  10.623  22.089  0.00  0.00    +0.000 C 
ATOM      8  O   UNL     1      -0.098  10.400  23.291  0.00  0.00    +0.000 OA
ENDROOT
BRANCH   6   9
ATOM      9  C   UNL     1      -1.430  12.714  22.217  0.00  0.00    +0.000 A 
ATOM     10  C   UNL     1      -2.713  13.067  22.453  0.00  0.00    +0.000 A 
ATOM     11  C   UNL     1      -3.966  12.439  21.926  0.00  0.00    +0.000 C 
ATOM     12  N   UNL     1      -2.802  14.089  23.417  0.00  0.00    +0.000 N 
ATOM     13  C   UNL     1      -3.874  15.081  23.472  0.00  0.00    +0.000 C 
ATOM     14  N   UNL     1      -1.478  14.518  23.664  0.00  0.00    +0.000 N 
ATOM     15  C   UNL     1      -0.616  13.815  22.837  0.00  0.00    +0.000 A 
ATOM     16  O   UNL     1       0.559  14.022  22.578  0.00  0.00    +0.000 OA
BRANCH  14  17
ATOM     17  C   UNL     1      -1.177  15.674  24.398  0.00  0.00    +0.000 A 
ATOM     18  C   UNL     1      -0.810  16.855  23.745  0.00  0.00    +0.000 A 
ATOM     19  C   UNL     1      -0.498  17.997  24.484  0.00  0.00    +0.000 A 
ATOM     20  C   UNL     1      -0.500  17.948  25.878  0.00  0.00    +0.000 A 
ATOM     21  C   UNL     1      -0.837  16.763  26.534  0.00  0.00    +0.000 A 
ATOM     22  C   UNL     1      -1.197  15.634  25.795  0.00  0.00    +0.000 A 
ENDBRANCH  14  17
ENDBRANCH   6   9
BRANCH   1  27
ATOM     23  C   UNL     1       3.208   4.768  17.623  0.00  0.00    +0.000 C 
ATOM     24  C   UNL     1       2.641   5.774  18.583  0.00  0.00    +0.000 A 
ATOM     25  C   UNL     1       2.667   7.143  18.293  0.00  0.00    +0.000 A 
ATOM     26  C   UNL     1       2.150   8.071  19.203  0.00  0.00    +0.000 A 
ATOM     27  C   UNL     1       1.601   7.640  20.415  0.00  0.00    +0.000 A 
ATOM     28  C   UNL     1       1.567   6.273  20.703  0.00  0.00    +0.000 A 
ATOM     29  C   UNL     1       2.086   5.346  19.795  0.00  0.00    +0.000 A 
ENDBRANCH   1  27
TORSDOF 3
ENDMDL
MODEL 2
REMARK VINA RESULT:      -7.2      2.940      3.870
REMARK  Name = 
REMARK  6 active torsions:
REMARK  status: ('A' for Active; 'I' for Inactive)
REMARK    1  A    between atoms: C_1  and  C_2
REMARK    2  A    between atoms: C_5  and  C_6
REMARK    3  A    between atoms: N_11  and  C_12
REMARK    4  A    between atoms: C_13  and  C_14
REMARK    5  A    between atoms: N_15  and  C_16
REMARK    6  A    between atoms: N_17  and  C_18
REMARK                            x       y       z     vdW  Elec       q    Type
REMARK                         _______ _______ _______ _____ _____    ______ ____
ROOT
ATOM      1  C   UNL     1       2.412   7.398  18.036  0.00  0.00    +0.000 C 
ATOM      2  C   UNL     1       1.917   8.213  18.975  0.00  0.00    +0.000 C 
ATOM      3  S   UNL     1       1.484   7.797  20.580  0.00  0.00    +0.000 S 
ATOM      4  C   UNL     1       0.780   9.380  20.895  0.00  0.00    +0.000 C 
ATOM      5  S   UNL     1      -0.203   9.602  22.234  0.00  0.00    +0.000 S 
ATOM      6  N   UNL     1       1.044  10.244  19.827  0.00  0.00    +0.000 N 
ATOM      7  C   UNL     1       1.657   9.662  18.728  0.00  0.00    +0.000 C 
ATOM      8  O   UNL     1       2.000  10.215  17.688  0.00  0.00    +0.000 OA
ENDROOT
BRANCH   6   9
ATOM      9  C   UNL     1       0.707  11.586  19.863  0.00  0.00    +0.000 A 
ATOM     10  C   UNL     1      -0.200  12.336  19.198  0.00  0.00    +0.000 A 
ATOM     11  C   UNL     1      -1.154  11.915  18.124  0.00  0.00    +0.000 C 
ATOM     12  N   UNL     1      -0.278  13.641  19.721  0.00  0.00    +0.000 N 
ATOM     13  C   UNL     1      -0.648  14.822  18.943  0.00  0.00    +0.000 C 
ATOM     14  N   UNL     1       0.777  13.757  20.656  0.00  0.00    +0.000 N 
ATOM     15  C   UNL     1       1.504  12.577  20.661  0.00  0.00    +0.000 A 
ATOM     16  O   UNL     1       2.597  12.337  21.150  0.00  0.00    +0.000 OA
BRANCH  14  17
ATOM     17  C   UNL     1       1.163  14.981  21.219  0.00  0.00    +0.000 A 
ATOM     18  C   UNL     1       2.256  15.686  20.706  0.00  0.00    +0.000 A 
ATOM     19  C   UNL     1       2.643  16.898  21.282  0.00  0.00    +0.000 A 
ATOM     20  C   UNL     1       1.972  17.381  22.406  0.00  0.00    +0.000 A 
ATOM     21  C   UNL     1       0.900  16.666  22.939  0.00  0.00    +0.000 A 
ATOM     22  C   UNL     1       0.481  15.479  22.334  0.00  0.00    +0.000 A 
ENDBRANCH  14  17
ENDBRANCH   6   9
BRANCH   1  27
ATOM     23  C   UNL     1       3.591   1.782  18.745  0.00  0.00    +0.000 C 
ATOM     24  C   UNL     1       3.267   3.237  18.569  0.00  0.00    +0.000 A 
ATOM     25  C   UNL     1       2.034   3.645  18.049  0.00  0.00    +0.000 A 
ATOM     26  C   UNL     1       1.751   5.004  17.876  0.00  0.00    +0.000 A 
ATOM     27  C   UNL     1       2.700   5.972  18.221  0.00  0.00    +0.000 A 
ATOM     28  C   UNL     1       3.929   5.568  18.748  0.00  0.00    +0.000 A 
ATOM     29  C   UNL     1       4.213   4.210  18.918  0.00  0.00    +0.000 A 
ENDBRANCH   1  27
TORSDOF 3
ENDMDL
MODEL 3
REMARK VINA RESULT:      -7.2      2.861      3.814
REMARK  Name = 
REMARK  6 active torsions:
REMARK  status: ('A' for Active; 'I' for Inactive)
REMARK    1  A    between atoms: C_1  and  C_2
REMARK    2  A    between atoms: C_5  and  C_6
REMARK    3  A    between atoms: N_11  and  C_12
REMARK    4  A    between atoms: C_13  and  C_14
REMARK    5  A    between atoms: N_15  and  C_16
REMARK    6  A    between atoms: N_17  and  C_18
REMARK                            x       y       z     vdW  Elec       q    Type
REMARK                         _______ _______ _______ _____ _____    ______ ____
ROOT
ATOM      1  C   UNL     1       2.359   7.461  18.092  0.00  0.00    +0.000 C 
ATOM      2  C   UNL     1       1.864   8.250  19.053  0.00  0.00    +0.000 C 
ATOM      3  S   UNL     1       1.461   7.797  20.656  0.00  0.00    +0.000 S 
ATOM      4  C   UNL     1       0.735   9.361  21.010  0.00  0.00    +0.000 C 
ATOM      5  S   UNL     1      -0.232   9.541  22.367  0.00  0.00    +0.000 S 
ATOM      6  N   UNL     1       0.970  10.249  19.956  0.00  0.00    +0.000 N 
ATOM      7  C   UNL     1       1.576   9.698  18.837  0.00  0.00    +0.000 C 
ATOM      8  O   UNL     1       1.896  10.276  17.803  0.00  0.00    +0.000 OA
ENDROOT
BRANCH   6   9
ATOM      9  C   UNL     1       0.611  11.584  20.021  0.00  0.00    +0.000 A 
ATOM     10  C   UNL     1      -0.351  12.321  19.422  0.00  0.00    +0.000 A 
ATOM     11  C   UNL     1      -1.366  11.887  18.410  0.00  0.00    +0.000 C 
ATOM     12  N   UNL     1      -0.419  13.621  19.956  0.00  0.00    +0.000 N 
ATOM     13  C   UNL     1      -0.861  14.799  19.212  0.00  0.00    +0.000 C 
ATOM     14  N   UNL     1       0.693  13.753  20.821  0.00  0.00    +0.000 N 
ATOM     15  C   UNL     1       1.441  12.587  20.771  0.00  0.00    +0.000 A 
ATOM     16  O   UNL     1       2.568  12.365  21.186  0.00  0.00    +0.000 OA
BRANCH  14  17
ATOM     17  C   UNL     1       1.093  14.982  21.364  0.00  0.00    +0.000 A 
ATOM     18  C   UNL     1       0.430  15.519  22.472  0.00  0.00    +0.000 A 
ATOM     19  C   UNL     1       0.826  16.750  22.997  0.00  0.00    +0.000 A 
ATOM     20  C   UNL     1       1.850  17.472  22.385  0.00  0.00    +0.000 A 
ATOM     21  C   UNL     1       2.495  16.954  21.262  0.00  0.00    +0.000 A 
ATOM     22  C   UNL     1       2.133  15.700  20.765  0.00  0.00    +0.000 A 
ENDBRANCH  14  17
ENDBRANCH   6   9
BRANCH   1  27
ATOM     23  C   UNL     1       3.551   1.839  18.724  0.00  0.00    +0.000 C 
ATOM     24  C   UNL     1       3.260   3.301  18.551  0.00  0.00    +0.000 A 
ATOM     25  C   UNL     1       4.202   4.272  18.908  0.00  0.00    +0.000 A 
ATOM     26  C   UNL     1       3.911   5.632  18.757  0.00  0.00    +0.000 A 
ATOM     27  C   UNL     1       2.673   6.036  18.246  0.00  0.00    +0.000 A 
ATOM     28  C   UNL     1       1.734   5.068  17.882  0.00  0.00    +0.000 A 
ATOM     29  C   UNL     1       2.024   3.710  18.036  0.00  0.00    +0.000 A 
ENDBRANCH   1  27
TORSDOF 3
ENDMDL
MODEL 4
REMARK VINA RESULT:      -7.0      2.139      2.708
REMARK  Name = 
REMARK  6 active torsions:
REMARK  status: ('A' for Active; 'I' for Inactive)
REMARK    1  A    between atoms: C_1  and  C_2
REMARK    2  A    between atoms: C_5  and  C_6
REMARK    3  A    between atoms: N_11  and  C_12
REMARK    4  A    between atoms: C_13  and  C_14
REMARK    5  A    between atoms: N_15  and  C_16
REMARK    6  A    between atoms: N_17  and  C_18
REMARK                            x       y       z     vdW  Elec       q    Type
REMARK                         _______ _______ _______ _____ _____    ______ ____
ROOT
ATOM      1  C   UNL     1       1.981   8.701  18.036  0.00  0.00    +0.000 C 
ATOM      2  C   UNL     1       1.479   9.233  19.157  0.00  0.00    +0.000 C 
ATOM      3  S   UNL     1       1.365   8.486  20.695  0.00  0.00    +0.000 S 
ATOM      4  C   UNL     1       0.426   9.814  21.369  0.00  0.00    +0.000 C 
ATOM      5  S   UNL     1      -0.381   9.609  22.824  0.00  0.00    +0.000 S 
ATOM      6  N   UNL     1       0.368  10.873  20.457  0.00  0.00    +0.000 N 
ATOM      7  C   UNL     1       0.918  10.615  19.210  0.00  0.00    +0.000 C 
ATOM      8  O   UNL     1       0.999  11.386  18.259  0.00  0.00    +0.000 OA
ENDROOT
BRANCH   6   9
ATOM      9  C   UNL     1      -0.208  12.091  20.775  0.00  0.00    +0.000 A 
ATOM     10  C   UNL     1      -1.415  12.645  20.523  0.00  0.00    +0.000 A 
ATOM     11  C   UNL     1      -2.557  12.078  19.737  0.00  0.00    +0.000 C 
ATOM     12  N   UNL     1      -1.585  13.857  21.217  0.00  0.00    +0.000 N 
ATOM     13  C   UNL     1      -2.422  14.963  20.755  0.00  0.00    +0.000 C 
ATOM     14  N   UNL     1      -0.333  14.161  21.798  0.00  0.00    +0.000 N 
ATOM     15  C   UNL     1       0.583  13.190  21.424  0.00  0.00    +0.000 A 
ATOM     16  O   UNL     1       1.801  13.187  21.524  0.00  0.00    +0.000 OA
BRANCH  14  17
ATOM     17  C   UNL     1      -0.045  15.403  22.380  0.00  0.00    +0.000 A 
ATOM     18  C   UNL     1       0.709  16.356  21.688  0.00  0.00    +0.000 A 
ATOM     19  C   UNL     1       1.003  17.585  22.281  0.00  0.00    +0.000 A 
ATOM     20  C   UNL     1       0.589  17.845  23.587  0.00  0.00    +0.000 A 
ATOM     21  C   UNL     1      -0.138  16.886  24.293  0.00  0.00    +0.000 A 
ATOM     22  C   UNL     1      -0.475  15.676  23.683  0.00  0.00    +0.000 A 
ENDBRANCH  14  17
ENDBRANCH   6   9
BRANCH   1  27
ATOM     23  C   UNL     1       4.225   3.387  17.638  0.00  0.00    +0.000 C 
ATOM     24  C   UNL     1       3.652   4.772  17.724  0.00  0.00    +0.000 A 
ATOM     25  C   UNL     1       4.458   5.900  17.537  0.00  0.00    +0.000 A 
ATOM     26  C   UNL     1       3.914   7.184  17.636  0.00  0.00    +0.000 A 
ATOM     27  C   UNL     1       2.556   7.356  17.924  0.00  0.00    +0.000 A 
ATOM     28  C   UNL     1       1.747   6.231  18.104  0.00  0.00    +0.000 A 
ATOM     29  C   UNL     1       2.292   4.947  18.008  0.00  0.00    +0.000 A 
ENDBRANCH   1  27
TORSDOF 3
ENDMDL
MODEL 5
REMARK VINA RESULT:      -6.9      2.099      2.881
REMARK  Name = 
REMARK  6 active torsions:
REMARK  status: ('A' for Active; 'I' for Inactive)
REMARK    1  A    between atoms: C_1  and  C_2
REMARK    2  A    between atoms: C_5  and  C_6
REMARK    3  A    between atoms: N_11  and  C_12
REMARK    4  A    between atoms: C_13  and  C_14
REMARK    5  A    between atoms: N_15  and  C_16
REMARK    6  A    between atoms: N_17  and  C_18
REMARK                            x       y       z     vdW  Elec       q    Type
REMARK                         _______ _______ _______ _____ _____    ______ ____
ROOT
ATOM      1  C   UNL     1       1.934   8.804  18.047  0.00  0.00    +0.000 C 
ATOM      2  C   UNL     1       1.436   9.326  19.175  0.00  0.00    +0.000 C 
ATOM      3  S   UNL     1       1.336   8.567  20.708  0.00  0.00    +0.000 S 
ATOM      4  C   UNL     1       0.393   9.884  21.397  0.00  0.00    +0.000 C 
ATOM      5  S   UNL     1      -0.403   9.663  22.855  0.00  0.00    +0.000 S 
ATOM      6  N   UNL     1       0.323  10.949  20.493  0.00  0.00    +0.000 N 
ATOM      7  C   UNL     1       0.866  10.703  19.241  0.00  0.00    +0.000 C 
ATOM      8  O   UNL     1       0.937  11.481  18.295  0.00  0.00    +0.000 OA
ENDROOT
BRANCH   6   9
ATOM      9  C   UNL     1      -0.259  12.160  20.822  0.00  0.00    +0.000 A 
ATOM     10  C   UNL     1      -1.473  12.706  20.586  0.00  0.00    +0.000 A 
ATOM     11  C   UNL     1      -2.619  12.135  19.810  0.00  0.00    +0.000 C 
ATOM     12  N   UNL     1      -1.646  13.914  21.288  0.00  0.00    +0.000 N 
ATOM     13  C   UNL     1      -2.496  15.016  20.841  0.00  0.00    +0.000 C 
ATOM     14  N   UNL     1      -0.390  14.225  21.858  0.00  0.00    +0.000 N 
ATOM     15  C   UNL     1       0.530  13.263  21.469  0.00  0.00    +0.000 A 
ATOM     16  O   UNL     1       1.748  13.269  21.556  0.00  0.00    +0.000 OA
BRANCH  14  17
ATOM     17  C   UNL     1      -0.105  15.466  22.443  0.00  0.00    +0.000 A 
ATOM     18  C   UNL     1      -0.533  15.755  23.743  0.00  0.00    +0.000 A 
ATOM     19  C   UNL     1      -0.258  16.999  24.312  0.00  0.00    +0.000 A 
ATOM     20  C   UNL     1       0.398  17.978  23.565  0.00  0.00    +0.000 A 
ATOM     21  C   UNL     1       0.800  17.705  22.257  0.00  0.00    +0.000 A 
ATOM     22  C   UNL     1       0.569  16.444  21.704  0.00  0.00    +0.000 A 
ENDBRANCH  14  17
ENDBRANCH   6   9
BRANCH   1  27
ATOM     23  C   UNL     1       4.253   3.535  17.509  0.00  0.00    +0.000 C 
ATOM     24  C   UNL     1       3.643   4.897  17.666  0.00  0.00    +0.000 A 
ATOM     25  C   UNL     1       2.299   5.050  18.027  0.00  0.00    +0.000 A 
ATOM     26  C   UNL     1       1.740   6.325  18.154  0.00  0.00    +0.000 A 
ATOM     27  C   UNL     1       2.517   7.464  17.922  0.00  0.00    +0.000 A 
ATOM     28  C   UNL     1       3.861   7.315  17.569  0.00  0.00    +0.000 A 
ATOM     29  C   UNL     1       4.420   6.040  17.439  0.00  0.00    +0.000 A 
ENDBRANCH   1  27
TORSDOF 3
ENDMDL
MODEL 6
REMARK VINA RESULT:      -6.8      1.740      2.678
REMARK  Name = 
REMARK  6 active torsions:
REMARK  status: ('A' for Active; 'I' for Inactive)
REMARK    1  A    between atoms: C_1  and  C_2
REMARK    2  A    between atoms: C_5  and  C_6
REMARK    3  A    between atoms: N_11  and  C_12
REMARK    4  A    between atoms: C_13  and  C_14
REMARK    5  A    between atoms: N_15  and  C_16
REMARK    6  A    between atoms: N_17  and  C_18
REMARK                            x       y       z     vdW  Elec       q    Type
REMARK                         _______ _______ _______ _____ _____    ______ ____
ROOT
ATOM      1  C   UNL     1       1.757   7.926  20.854  0.00  0.00    +0.000 C 
ATOM      2  C   UNL     1       1.059   9.009  20.492  0.00  0.00    +0.000 C 
ATOM      3  S   UNL     1       0.204   9.245  19.026  0.00  0.00    +0.000 S 
ATOM      4  C   UNL     1      -0.140  10.932  19.394  0.00  0.00    +0.000 C 
ATOM      5  S   UNL     1      -0.684  11.954  18.183  0.00  0.00    +0.000 S 
ATOM      6  N   UNL     1       0.257  11.228  20.702  0.00  0.00    +0.000 N 
ATOM      7  C   UNL     1       0.938  10.216  21.361  0.00  0.00    +0.000 C 
ATOM      8  O   UNL     1       1.368  10.234  22.510  0.00  0.00    +0.000 OA
ENDROOT
BRANCH   6   9
ATOM      9  C   UNL     1      -0.003  12.453  21.293  0.00  0.00    +0.000 A 
ATOM     10  C   UNL     1       0.691  13.608  21.388  0.00  0.00    +0.000 A 
ATOM     11  C   UNL     1       2.063  13.919  20.874  0.00  0.00    +0.000 C 
ATOM     12  N   UNL     1      -0.086  14.637  21.951  0.00  0.00    +0.000 N 
ATOM     13  C   UNL     1       0.456  15.753  22.725  0.00  0.00    +0.000 C 
ATOM     14  N   UNL     1      -1.283  14.031  22.397  0.00  0.00    +0.000 N 
ATOM     15  C   UNL     1      -1.212  12.668  22.159  0.00  0.00    +0.000 A 
ATOM     16  O   UNL     1      -1.920  11.765  22.577  0.00  0.00    +0.000 OA
BRANCH  14  17
ATOM     17  C   UNL     1      -2.212  14.691  23.214  0.00  0.00    +0.000 A 
ATOM     18  C   UNL     1      -3.249  15.441  22.651  0.00  0.00    +0.000 A 
ATOM     19  C   UNL     1      -4.160  16.106  23.472  0.00  0.00    +0.000 A 
ATOM     20  C   UNL     1      -4.007  16.068  24.858  0.00  0.00    +0.000 A 
ATOM     21  C   UNL     1      -2.956  15.346  25.424  0.00  0.00    +0.000 A 
ATOM     22  C   UNL     1      -2.073  14.640  24.605  0.00  0.00    +0.000 A 
ENDBRANCH  14  17
ENDBRANCH   6   9
BRANCH   1  27
ATOM     23  C   UNL     1       2.316   3.150  17.644  0.00  0.00    +0.000 C 
ATOM     24  C   UNL     1       2.176   4.379  18.493  0.00  0.00    +0.000 A 
ATOM     25  C   UNL     1       1.507   4.336  19.722  0.00  0.00    +0.000 A 
ATOM     26  C   UNL     1       1.371   5.493  20.496  0.00  0.00    +0.000 A 
ATOM     27  C   UNL     1       1.903   6.708  20.050  0.00  0.00    +0.000 A 
ATOM     28  C   UNL     1       2.579   6.751  18.828  0.00  0.00    +0.000 A 
ATOM     29  C   UNL     1       2.712   5.596  18.053  0.00  0.00    +0.000 A 
ENDBRANCH   1  27
TORSDOF 3
ENDMDL
MODEL 7
REMARK VINA RESULT:      -6.8      1.766      2.523
REMARK  Name = 
REMARK  6 active torsions:
REMARK  status: ('A' for Active; 'I' for Inactive)
REMARK    1  A    between atoms: C_1  and  C_2
REMARK    2  A    between atoms: C_5  and  C_6
REMARK    3  A    between atoms: N_11  and  C_12
REMARK    4  A    between atoms: C_13  and  C_14
REMARK    5  A    between atoms: N_15  and  C_16
REMARK    6  A    between atoms: N_17  and  C_18
REMARK                            x       y       z     vdW  Elec       q    Type
REMARK                         _______ _______ _______ _____ _____    ______ ____
ROOT
ATOM      1  C   UNL     1       1.781   7.613  19.448  0.00  0.00    +0.000 C 
ATOM      2  C   UNL     1       1.508   8.904  19.219  0.00  0.00    +0.000 C 
ATOM      3  S   UNL     1       2.132   9.885  17.961  0.00  0.00    +0.000 S 
ATOM      4  C   UNL     1       1.409  11.348  18.623  0.00  0.00    +0.000 C 
ATOM      5  S   UNL     1       1.910  12.848  18.068  0.00  0.00    +0.000 S 
ATOM      6  N   UNL     1       0.566  11.025  19.692  0.00  0.00    +0.000 N 
ATOM      7  C   UNL     1       0.584   9.696  20.083  0.00  0.00    +0.000 C 
ATOM      8  O   UNL     1      -0.076   9.174  20.977  0.00  0.00    +0.000 OA
ENDROOT
BRANCH   6   9
ATOM      9  C   UNL     1      -0.222  11.973  20.322  0.00  0.00    +0.000 A 
ATOM     10  C   UNL     1      -1.488  12.408  20.133  0.00  0.00    +0.000 A 
ATOM     11  C   UNL     1      -2.473  11.988  19.086  0.00  0.00    +0.000 C 
ATOM     12  N   UNL     1      -1.897  13.279  21.159  0.00  0.00    +0.000 N 
ATOM     13  C   UNL     1      -2.878  14.349  20.993  0.00  0.00    +0.000 C 
ATOM     14  N   UNL     1      -0.748  13.538  21.942  0.00  0.00    +0.000 N 
ATOM     15  C   UNL     1       0.337  12.886  21.375  0.00  0.00    +0.000 A 
ATOM     16  O   UNL     1       1.530  13.017  21.602  0.00  0.00    +0.000 OA
BRANCH  14  17
ATOM     17  C   UNL     1      -0.705  14.538  22.923  0.00  0.00    +0.000 A 
ATOM     18  C   UNL     1       0.058  15.693  22.728  0.00  0.00    +0.000 A 
ATOM     19  C   UNL     1       0.106  16.677  23.717  0.00  0.00    +0.000 A 
ATOM     20  C   UNL     1      -0.564  16.485  24.925  0.00  0.00    +0.000 A 
ATOM     21  C   UNL     1      -1.302  15.320  25.136  0.00  0.00    +0.000 A 
ATOM     22  C   UNL     1      -1.391  14.358  24.128  0.00  0.00    +0.000 A 
ENDBRANCH  14  17
ENDBRANCH   6   9
BRANCH   1  27
ATOM     23  C   UNL     1       5.277   4.364  16.184  0.00  0.00    +0.000 C 
ATOM     24  C   UNL     1       4.371   5.194  17.047  0.00  0.00    +0.000 A 
ATOM     25  C   UNL     1       3.329   4.608  17.773  0.00  0.00    +0.000 A 
ATOM     26  C   UNL     1       2.483   5.396  18.560  0.00  0.00    +0.000 A 
ATOM     27  C   UNL     1       2.669   6.780  18.629  0.00  0.00    +0.000 A 
ATOM     28  C   UNL     1       3.714   7.367  17.911  0.00  0.00    +0.000 A 
ATOM     29  C   UNL     1       4.558   6.580  17.122  0.00  0.00    +0.000 A 
ENDBRANCH   1  27
TORSDOF 3
ENDMDL
MODEL 8
REMARK VINA RESULT:      -6.7      1.795      2.724
REMARK  Name = 
REMARK  6 active torsions:
REMARK  status: ('A' for Active; 'I' for Inactive)
REMARK    1  A    between atoms: C_1  and  C_2
REMARK    2  A    between atoms: C_5  and  C_6
REMARK    3  A    between atoms: N_11  and  C_12
REMARK    4  A    between atoms: C_13  and  C_14
REMARK    5  A    between atoms: N_15  and  C_16
REMARK    6  A    between atoms: N_17  and  C_18
REMARK                            x       y       z     vdW  Elec       q    Type
REMARK                         _______ _______ _______ _____ _____    ______ ____
ROOT
ATOM      1  C   UNL     1       1.825   7.724  20.815  0.00  0.00    +0.000 C 
ATOM      2  C   UNL     1       1.115   8.806  20.473  0.00  0.00    +0.000 C 
ATOM      3  S   UNL     1       0.158   9.014  19.066  0.00  0.00    +0.000 S 
ATOM      4  C   UNL     1      -0.137  10.715  19.410  0.00  0.00    +0.000 C 
ATOM      5  S   UNL     1      -0.755  11.711  18.212  0.00  0.00    +0.000 S 
ATOM      6  N   UNL     1       0.357  11.042  20.677  0.00  0.00    +0.000 N 
ATOM      7  C   UNL     1       1.072  10.039  21.314  0.00  0.00    +0.000 C 
ATOM      8  O   UNL     1       1.584  10.083  22.428  0.00  0.00    +0.000 OA
ENDROOT
BRANCH   6   9
ATOM      9  C   UNL     1       0.155  12.285  21.250  0.00  0.00    +0.000 A 
ATOM     10  C   UNL     1       0.877  13.428  21.276  0.00  0.00    +0.000 A 
ATOM     11  C   UNL     1       2.224  13.696  20.678  0.00  0.00    +0.000 C 
ATOM     12  N   UNL     1       0.154  14.487  21.855  0.00  0.00    +0.000 N 
ATOM     13  C   UNL     1       0.760  15.610  22.568  0.00  0.00    +0.000 C 
ATOM     14  N   UNL     1      -1.029  13.918  22.382  0.00  0.00    +0.000 N 
ATOM     15  C   UNL     1      -0.998  12.548  22.176  0.00  0.00    +0.000 A 
ATOM     16  O   UNL     1      -1.700  11.671  22.655  0.00  0.00    +0.000 OA
BRANCH  14  17
ATOM     17  C   UNL     1      -1.896  14.617  23.232  0.00  0.00    +0.000 A 
ATOM     18  C   UNL     1      -1.704  14.598  24.617  0.00  0.00    +0.000 A 
ATOM     19  C   UNL     1      -2.582  15.285  25.457  0.00  0.00    +0.000 A 
ATOM     20  C   UNL     1      -3.684  15.950  24.920  0.00  0.00    +0.000 A 
ATOM     21  C   UNL     1      -3.897  15.948  23.541  0.00  0.00    +0.000 A 
ATOM     22  C   UNL     1      -2.992  15.302  22.696  0.00  0.00    +0.000 A 
ENDBRANCH  14  17
ENDBRANCH   6   9
BRANCH   1  27
ATOM     23  C   UNL     1       2.122   2.803  17.794  0.00  0.00    +0.000 C 
ATOM     24  C   UNL     1       2.040   4.090  18.561  0.00  0.00    +0.000 A 
ATOM     25  C   UNL     1       2.652   5.255  18.085  0.00  0.00    +0.000 A 
ATOM     26  C   UNL     1       2.581   6.444  18.818  0.00  0.00    +0.000 A 
ATOM     27  C   UNL     1       1.897   6.482  20.038  0.00  0.00    +0.000 A 
ATOM     28  C   UNL     1       1.278   5.322  20.512  0.00  0.00    +0.000 A 
ATOM     29  C   UNL     1       1.352   4.133  19.780  0.00  0.00    +0.000 A 
ENDBRANCH   1  27
TORSDOF 3
ENDMDL
MODEL 9
REMARK VINA RESULT:      -6.7      1.829      2.769
REMARK  Name = 
REMARK  6 active torsions:
REMARK  status: ('A' for Active; 'I' for Inactive)
REMARK    1  A    between atoms: C_1  and  C_2
REMARK    2  A    between atoms: C_5  and  C_6
REMARK    3  A    between atoms: N_11  and  C_12
REMARK    4  A    between atoms: C_13  and  C_14
REMARK    5  A    between atoms: N_15  and  C_16
REMARK    6  A    between atoms: N_17  and  C_18
REMARK                            x       y       z     vdW  Elec       q    Type
REMARK                         _______ _______ _______ _____ _____    ______ ____
ROOT
ATOM      1  C   UNL     1       1.914   7.425  19.755  0.00  0.00    +0.000 C 
ATOM      2  C   UNL     1       1.475   8.657  19.468  0.00  0.00    +0.000 C 
ATOM      3  S   UNL     1       2.083   9.716  18.267  0.00  0.00    +0.000 S 
ATOM      4  C   UNL     1       1.073  11.053  18.809  0.00  0.00    +0.000 C 
ATOM      5  S   UNL     1       1.399  12.610  18.281  0.00  0.00    +0.000 S 
ATOM      6  N   UNL     1       0.172  10.610  19.783  0.00  0.00    +0.000 N 
ATOM      7  C   UNL     1       0.348   9.301  20.204  0.00  0.00    +0.000 C 
ATOM      8  O   UNL     1      -0.323   8.688  21.029  0.00  0.00    +0.000 OA
ENDROOT
BRANCH   6   9
ATOM      9  C   UNL     1      -0.819  11.427  20.298  0.00  0.00    +0.000 A 
ATOM     10  C   UNL     1      -1.995  11.884  19.815  0.00  0.00    +0.000 A 
ATOM     11  C   UNL     1      -2.603  11.655  18.466  0.00  0.00    +0.000 C 
ATOM     12  N   UNL     1      -2.737  12.557  20.803  0.00  0.00    +0.000 N 
ATOM     13  C   UNL     1      -3.685  13.637  20.533  0.00  0.00    +0.000 C 
ATOM     14  N   UNL     1      -1.886  12.677  21.926  0.00  0.00    +0.000 N 
ATOM     15  C   UNL     1      -0.648  12.140  21.609  0.00  0.00    +0.000 A 
ATOM     16  O   UNL     1       0.417  12.233  22.201  0.00  0.00    +0.000 OA
BRANCH  14  17
ATOM     17  C   UNL     1      -2.190  13.486  23.029  0.00  0.00    +0.000 A 
ATOM     18  C   UNL     1      -1.433  14.629  23.303  0.00  0.00    +0.000 A 
ATOM     19  C   UNL     1      -1.734  15.421  24.412  0.00  0.00    +0.000 A 
ATOM     20  C   UNL     1      -2.759  15.045  25.280  0.00  0.00    +0.000 A 
ATOM     21  C   UNL     1      -3.499  13.889  25.027  0.00  0.00    +0.000 A 
ATOM     22  C   UNL     1      -3.230  13.123  23.891  0.00  0.00    +0.000 A 
ENDBRANCH  14  17
ENDBRANCH   6   9
BRANCH   1  27
ATOM     23  C   UNL     1       6.253   4.711  17.064  0.00  0.00    +0.000 C 
ATOM     24  C   UNL     1       5.116   5.414  17.746  0.00  0.00    +0.000 A 
ATOM     25  C   UNL     1       4.447   6.476  17.126  0.00  0.00    +0.000 A 
ATOM     26  C   UNL     1       3.399   7.132  17.779  0.00  0.00    +0.000 A 
ATOM     27  C   UNL     1       3.008   6.735  19.062  0.00  0.00    +0.000 A 
ATOM     28  C   UNL     1       3.669   5.671  19.680  0.00  0.00    +0.000 A 
ATOM     29  C   UNL     1       4.718   5.017  19.028  0.00  0.00    +0.000 A 
ENDBRANCH   1  27
TORSDOF 3
ENDMDL
