MODEL 1
REMARK VINA RESULT:      -5.9      0.000      0.000
REMARK  Name = 
REMARK  5 active torsions:
REMARK  status: ('A' for Active; 'I' for Inactive)
REMARK    1  A    between atoms: C_1  and  C_2
REMARK    2  A    between atoms: C_6  and  C_7
REMARK    3  A    between atoms: C_11  and  C_12
REMARK    4  A    between atoms: N_14  and  C_15
REMARK    5  A    between atoms: C_15  and  C_16
REMARK                            x       y       z     vdW  Elec       q    Type
REMARK                         _______ _______ _______ _____ _____    ______ ____
ROOT
ATOM      1  C   UNL     1       2.178   3.852  18.115  0.00  0.00    +0.000 C 
ATOM      2  O   UNL     1       1.202   3.849  17.354  0.00  0.00    +0.000 OA
ATOM      3  N   UNL     1       3.445   4.153  17.583  0.00  0.00    +0.000 N 
ATOM      4  C   UNL     1       4.705   4.272  18.278  0.00  0.00    +0.000 C 
ATOM      5  C   UNL     1       5.791   4.101  17.214  0.00  0.00    +0.000 C 
ATOM      6  C   UNL     1       5.116   4.631  15.902  0.00  0.00    +0.000 C 
ATOM      7  C   UNL     1       5.376   3.696  14.701  0.00  0.00    +0.000 C 
ATOM      8  C   UNL     1       6.802   3.799  14.197  0.00  0.00    +0.000 C 
ATOM      9  O   UNL     1       7.114   5.134  13.824  0.00  0.00    +0.000 OA
ATOM     10  C   UNL     1       6.933   6.105  14.853  0.00  0.00    +0.000 C 
ATOM     11  C   UNL     1       5.538   6.050  15.474  0.00  0.00    +0.000 C 
ATOM     12  C   UNL     1       3.589   4.592  16.211  0.00  0.00    +0.000 C 
ENDROOT
BRANCH   1  18
ATOM     13  C   UNL     1       1.789   5.784  20.609  0.00  0.00    +0.000 C 
ATOM     14  C   UNL     1       1.836   4.290  20.624  0.00  0.00    +0.000 A 
ATOM     15  C   UNL     1       1.614   3.522  21.817  0.00  0.00    +0.000 A 
ATOM     16  C   UNL     1       1.783   2.171  21.617  0.00  0.00    +0.000 A 
ATOM     17  S   UNL     1       2.351   1.849  20.047  0.00  0.00    +0.000 S 
ATOM     18  C   UNL     1       2.051   3.461  19.518  0.00  0.00    +0.000 A 
ENDBRANCH   1  18
BRANCH   5  19
ATOM     19  C   UNL     1       7.056   4.786  17.745  0.00  0.00    +0.000 C 
ATOM     20  O   UNL     1       8.161   4.249  17.684  0.00  0.00    +0.000 OA
ATOM     21  N   UNL     1       6.897   6.034  18.313  0.00  0.00    +0.000 N 
ATOM     22  H   UNL     1       5.980   6.404  18.513  0.00  0.00    +0.000 HD
BRANCH  21  23
ATOM     23  C   UNL     1       8.044   6.698  18.897  0.00  0.00    +0.000 C 
BRANCH  23  24
ATOM     24  C   UNL     1       8.505   7.862  18.078  0.00  0.00    +0.000 C 
ATOM     25  C   UNL     1       7.624   9.042  17.744  0.00  0.00    +0.000 C 
ATOM     26  C   UNL     1       8.715   9.191  18.767  0.00  0.00    +0.000 C 
ENDBRANCH  23  24
ENDBRANCH  21  23
ENDBRANCH   5  19
TORSDOF 4
ENDMDL
MODEL 2
REMARK VINA RESULT:      -5.9      5.179      7.814
REMARK  Name = 
REMARK  5 active torsions:
REMARK  status: ('A' for Active; 'I' for Inactive)
REMARK    1  A    between atoms: C_1  and  C_2
REMARK    2  A    between atoms: C_6  and  C_7
REMARK    3  A    between atoms: C_11  and  C_12
REMARK    4  A    between atoms: N_14  and  C_15
REMARK    5  A    between atoms: C_15  and  C_16
REMARK                            x       y       z     vdW  Elec       q    Type
REMARK                         _______ _______ _______ _____ _____    ______ ____
ROOT
ATOM      1  C   UNL     1       3.283   6.795  17.712  0.00  0.00    +0.000 C 
ATOM      2  O   UNL     1       3.681   7.002  16.558  0.00  0.00    +0.000 OA
ATOM      3  N   UNL     1       2.491   7.776  18.337  0.00  0.00    +0.000 N 
ATOM      4  C   UNL     1       1.872   7.733  19.640  0.00  0.00    +0.000 C 
ATOM      5  C   UNL     1       1.583   9.187  20.018  0.00  0.00    +0.000 C 
ATOM      6  C   UNL     1       1.370   9.897  18.637  0.00  0.00    +0.000 C 
ATOM      7  C   UNL     1       2.115  11.247  18.561  0.00  0.00    +0.000 C 
ATOM      8  C   UNL     1       1.438  12.319  19.394  0.00  0.00    +0.000 C 
ATOM      9  O   UNL     1       0.090  12.506  18.985  0.00  0.00    +0.000 OA
ATOM     10  C   UNL     1      -0.719  11.333  19.024  0.00  0.00    +0.000 C 
ATOM     11  C   UNL     1      -0.100  10.165  18.257  0.00  0.00    +0.000 C 
ATOM     12  C   UNL     1       2.027   8.934  17.602  0.00  0.00    +0.000 C 
ENDROOT
BRANCH   1  18
ATOM     13  C   UNL     1       1.494   4.266  18.420  0.00  0.00    +0.000 C 
ATOM     14  C   UNL     1       2.939   4.467  18.744  0.00  0.00    +0.000 A 
ATOM     15  C   UNL     1       3.740   3.451  19.367  0.00  0.00    +0.000 A 
ATOM     16  C   UNL     1       5.019   3.879  19.643  0.00  0.00    +0.000 A 
ATOM     17  S   UNL     1       5.201   5.533  19.295  0.00  0.00    +0.000 S 
ATOM     18  C   UNL     1       3.697   5.608  18.460  0.00  0.00    +0.000 A 
ENDBRANCH   1  18
BRANCH   5  19
ATOM     19  C   UNL     1       0.444   9.169  21.044  0.00  0.00    +0.000 C 
ATOM     20  O   UNL     1      -0.439   8.312  21.022  0.00  0.00    +0.000 OA
ATOM     21  N   UNL     1       0.443  10.173  21.991  0.00  0.00    +0.000 N 
ATOM     22  H   UNL     1       1.063  10.965  21.914  0.00  0.00    +0.000 HD
BRANCH  21  23
ATOM     23  C   UNL     1      -0.649  10.250  22.941  0.00  0.00    +0.000 C 
BRANCH  23  24
ATOM     24  C   UNL     1      -1.198  11.637  23.065  0.00  0.00    +0.000 C 
ATOM     25  C   UNL     1      -2.156  12.241  22.067  0.00  0.00    +0.000 C 
ATOM     26  C   UNL     1      -2.659  11.805  23.413  0.00  0.00    +0.000 C 
ENDBRANCH  23  24
ENDBRANCH  21  23
ENDBRANCH   5  19
TORSDOF 4
ENDMDL
MODEL 3
REMARK VINA RESULT:      -5.7      5.579      8.344
REMARK  Name = 
REMARK  5 active torsions:
REMARK  status: ('A' for Active; 'I' for Inactive)
REMARK    1  A    between atoms: C_1  and  C_2
REMARK    2  A    between atoms: C_6  and  C_7
REMARK    3  A    between atoms: C_11  and  C_12
REMARK    4  A    between atoms: N_14  and  C_15
REMARK    5  A    between atoms: C_15  and  C_16
REMARK                            x       y       z     vdW  Elec       q    Type
REMARK                         _______ _______ _______ _____ _____    ______ ____
ROOT
ATOM      1  C   UNL     1       2.951   7.378  17.787  0.00  0.00    +0.000 C 
ATOM      2  O   UNL     1       3.330   7.631  16.636  0.00  0.00    +0.000 OA
ATOM      3  N   UNL     1       2.158   8.325  18.458  0.00  0.00    +0.000 N 
ATOM      4  C   UNL     1       1.556   8.227  19.767  0.00  0.00    +0.000 C 
ATOM      5  C   UNL     1       1.258   9.663  20.203  0.00  0.00    +0.000 C 
ATOM      6  C   UNL     1       1.018  10.422  18.852  0.00  0.00    +0.000 C 
ATOM      7  C   UNL     1       1.748  11.782  18.817  0.00  0.00    +0.000 C 
ATOM      8  C   UNL     1       1.072  12.814  19.699  0.00  0.00    +0.000 C 
ATOM      9  O   UNL     1      -0.284  13.001  19.315  0.00  0.00    +0.000 OA
ATOM     10  C   UNL     1      -1.081  11.819  19.320  0.00  0.00    +0.000 C 
ATOM     11  C   UNL     1      -0.460  10.687  18.502  0.00  0.00    +0.000 C 
ATOM     12  C   UNL     1       1.671   9.505  17.774  0.00  0.00    +0.000 C 
ENDROOT
BRANCH   1  18
ATOM     13  C   UNL     1       5.919   6.263  18.000  0.00  0.00    +0.000 C 
ATOM     14  C   UNL     1       4.692   5.684  18.626  0.00  0.00    +0.000 A 
ATOM     15  C   UNL     1       4.735   4.552  19.508  0.00  0.00    +0.000 A 
ATOM     16  C   UNL     1       3.483   4.140  19.904  0.00  0.00    +0.000 A 
ATOM     17  S   UNL     1       2.266   5.014  19.101  0.00  0.00    +0.000 S 
ATOM     18  C   UNL     1       3.387   6.168  18.483  0.00  0.00    +0.000 A 
ENDBRANCH   1  18
BRANCH   5  19
ATOM     19  C   UNL     1       0.133   9.594  21.243  0.00  0.00    +0.000 C 
ATOM     20  O   UNL     1      -0.647   8.644  21.297  0.00  0.00    +0.000 OA
ATOM     21  N   UNL     1       0.023  10.660  22.112  0.00  0.00    +0.000 N 
ATOM     22  H   UNL     1       0.548  11.509  21.968  0.00  0.00    +0.000 HD
BRANCH  21  23
ATOM     23  C   UNL     1      -1.066  10.685  23.069  0.00  0.00    +0.000 C 
BRANCH  23  24
ATOM     24  C   UNL     1      -1.716  12.030  23.154  0.00  0.00    +0.000 C 
ATOM     25  C   UNL     1      -2.871  12.450  22.276  0.00  0.00    +0.000 C 
ATOM     26  C   UNL     1      -3.116  12.120  23.721  0.00  0.00    +0.000 C 
ENDBRANCH  23  24
ENDBRANCH  21  23
ENDBRANCH   5  19
TORSDOF 4
ENDMDL
MODEL 4
REMARK VINA RESULT:      -5.7      9.386     11.380
REMARK  Name = 
REMARK  5 active torsions:
REMARK  status: ('A' for Active; 'I' for Inactive)
REMARK    1  A    between atoms: C_1  and  C_2
REMARK    2  A    between atoms: C_6  and  C_7
REMARK    3  A    between atoms: C_11  and  C_12
REMARK    4  A    between atoms: N_14  and  C_15
REMARK    5  A    between atoms: C_15  and  C_16
REMARK                            x       y       z     vdW  Elec       q    Type
REMARK                         _______ _______ _______ _____ _____    ______ ____
ROOT
ATOM      1  C   UNL     1      -4.851  11.700  18.348  0.00  0.00    +0.000 C 
ATOM      2  O   UNL     1      -5.045  11.409  17.160  0.00  0.00    +0.000 OA
ATOM      3  N   UNL     1      -3.526  11.824  18.803  0.00  0.00    +0.000 N 
ATOM      4  C   UNL     1      -3.060  12.208  20.114  0.00  0.00    +0.000 C 
ATOM      5  C   UNL     1      -1.621  11.699  20.215  0.00  0.00    +0.000 C 
ATOM      6  C   UNL     1      -1.111  11.721  18.733  0.00  0.00    +0.000 C 
ATOM      7  C   UNL     1      -0.346  10.431  18.367  0.00  0.00    +0.000 C 
ATOM      8  C   UNL     1       1.029  10.384  19.004  0.00  0.00    +0.000 C 
ATOM      9  O   UNL     1       1.806  11.511  18.622  0.00  0.00    +0.000 OA
ATOM     10  C   UNL     1       1.218  12.776  18.921  0.00  0.00    +0.000 C 
ATOM     11  C   UNL     1      -0.200  12.911  18.369  0.00  0.00    +0.000 C 
ATOM     12  C   UNL     1      -2.414  11.759  17.878  0.00  0.00    +0.000 C 
ENDROOT
BRANCH   1  18
ATOM     13  C   UNL     1      -6.792   9.380  19.321  0.00  0.00    +0.000 C 
ATOM     14  C   UNL     1      -6.798  10.806  19.767  0.00  0.00    +0.000 A 
ATOM     15  C   UNL     1      -7.670  11.289  20.800  0.00  0.00    +0.000 A 
ATOM     16  C   UNL     1      -7.562  12.647  20.993  0.00  0.00    +0.000 A 
ATOM     17  S   UNL     1      -6.533  13.352  19.838  0.00  0.00    +0.000 S 
ATOM     18  C   UNL     1      -5.960  11.821  19.293  0.00  0.00    +0.000 A 
ENDBRANCH   1  18
BRANCH   5  19
ATOM     19  C   UNL     1      -0.912  12.556  21.272  0.00  0.00    +0.000 C 
ATOM     20  O   UNL     1       0.058  12.139  21.904  0.00  0.00    +0.000 OA
ATOM     21  N   UNL     1      -1.423  13.818  21.496  0.00  0.00    +0.000 N 
ATOM     22  H   UNL     1      -2.308  14.101  21.104  0.00  0.00    +0.000 HD
BRANCH  21  23
ATOM     23  C   UNL     1      -0.840  14.645  22.533  0.00  0.00    +0.000 C 
BRANCH  23  24
ATOM     24  C   UNL     1      -1.582  14.538  23.829  0.00  0.00    +0.000 C 
ATOM     25  C   UNL     1      -1.191  15.299  25.073  0.00  0.00    +0.000 C 
ATOM     26  C   UNL     1      -2.401  15.722  24.290  0.00  0.00    +0.000 C 
ENDBRANCH  23  24
ENDBRANCH  21  23
ENDBRANCH   5  19
TORSDOF 4
ENDMDL
MODEL 5
REMARK VINA RESULT:      -5.7      2.777      6.698
REMARK  Name = 
REMARK  5 active torsions:
REMARK  status: ('A' for Active; 'I' for Inactive)
REMARK    1  A    between atoms: C_1  and  C_2
REMARK    2  A    between atoms: C_6  and  C_7
REMARK    3  A    between atoms: C_11  and  C_12
REMARK    4  A    between atoms: N_14  and  C_15
REMARK    5  A    between atoms: C_15  and  C_16
REMARK                            x       y       z     vdW  Elec       q    Type
REMARK                         _______ _______ _______ _____ _____    ______ ____
ROOT
ATOM      1  C   UNL     1       6.458   4.912  18.416  0.00  0.00    +0.000 C 
ATOM      2  O   UNL     1       7.170   3.918  18.221  0.00  0.00    +0.000 OA
ATOM      3  N   UNL     1       5.145   4.719  18.882  0.00  0.00    +0.000 N 
ATOM      4  C   UNL     1       4.160   5.715  19.232  0.00  0.00    +0.000 C 
ATOM      5  C   UNL     1       2.806   5.006  19.178  0.00  0.00    +0.000 C 
ATOM      6  C   UNL     1       3.148   3.517  19.529  0.00  0.00    +0.000 C 
ATOM      7  C   UNL     1       2.436   2.524  18.585  0.00  0.00    +0.000 C 
ATOM      8  C   UNL     1       0.953   2.418  18.884  0.00  0.00    +0.000 C 
ATOM      9  O   UNL     1       0.733   2.022  20.231  0.00  0.00    +0.000 OA
ATOM     10  C   UNL     1       1.326   2.869  21.213  0.00  0.00    +0.000 C 
ATOM     11  C   UNL     1       2.819   3.091  20.973  0.00  0.00    +0.000 C 
ATOM     12  C   UNL     1       4.681   3.403  19.269  0.00  0.00    +0.000 C 
ENDROOT
BRANCH   1  18
ATOM     13  C   UNL     1       5.444   6.739  16.021  0.00  0.00    +0.000 C 
ATOM     14  C   UNL     1       6.457   7.095  17.060  0.00  0.00    +0.000 A 
ATOM     15  C   UNL     1       7.052   8.399  17.144  0.00  0.00    +0.000 A 
ATOM     16  C   UNL     1       8.015   8.481  18.124  0.00  0.00    +0.000 A 
ATOM     17  S   UNL     1       8.304   6.961  18.828  0.00  0.00    +0.000 S 
ATOM     18  C   UNL     1       6.920   6.258  18.081  0.00  0.00    +0.000 A 
ENDBRANCH   1  18
BRANCH   5  19
ATOM     19  C   UNL     1       1.847   5.795  20.079  0.00  0.00    +0.000 C 
ATOM     20  O   UNL     1       0.766   5.332  20.441  0.00  0.00    +0.000 OA
ATOM     21  N   UNL     1       2.245   7.062  20.454  0.00  0.00    +0.000 N 
ATOM     22  H   UNL     1       3.045   7.505  20.030  0.00  0.00    +0.000 HD
BRANCH  21  23
ATOM     23  C   UNL     1       1.348   7.881  21.244  0.00  0.00    +0.000 C 
BRANCH  23  24
ATOM     24  C   UNL     1       1.208   9.265  20.691  0.00  0.00    +0.000 C 
ATOM     25  C   UNL     1       0.755   9.552  19.280  0.00  0.00    +0.000 C 
ATOM     26  C   UNL     1      -0.182   9.798  20.428  0.00  0.00    +0.000 C 
ENDBRANCH  23  24
ENDBRANCH  21  23
ENDBRANCH   5  19
TORSDOF 4
ENDMDL
MODEL 6
REMARK VINA RESULT:      -5.6     10.319     13.938
REMARK  Name = 
REMARK  5 active torsions:
REMARK  status: ('A' for Active; 'I' for Inactive)
REMARK    1  A    between atoms: C_1  and  C_2
REMARK    2  A    between atoms: C_6  and  C_7
REMARK    3  A    between atoms: C_11  and  C_12
REMARK    4  A    between atoms: N_14  and  C_15
REMARK    5  A    between atoms: C_15  and  C_16
REMARK                            x       y       z     vdW  Elec       q    Type
REMARK                         _______ _______ _______ _____ _____    ______ ____
ROOT
ATOM      1  C   UNL     1      -1.212  13.435  19.699  0.00  0.00    +0.000 C 
ATOM      2  O   UNL     1      -0.441  14.349  19.380  0.00  0.00    +0.000 OA
ATOM      3  N   UNL     1      -2.068  13.629  20.798  0.00  0.00    +0.000 N 
ATOM      4  C   UNL     1      -3.081  12.740  21.316  0.00  0.00    +0.000 C 
ATOM      5  C   UNL     1      -3.338  13.186  22.756  0.00  0.00    +0.000 C 
ATOM      6  C   UNL     1      -3.020  14.721  22.734  0.00  0.00    +0.000 C 
ATOM      7  C   UNL     1      -2.167  15.151  23.947  0.00  0.00    +0.000 C 
ATOM      8  C   UNL     1      -2.974  15.177  25.231  0.00  0.00    +0.000 C 
ATOM      9  O   UNL     1      -4.091  16.049  25.112  0.00  0.00    +0.000 OA
ATOM     10  C   UNL     1      -4.976  15.751  24.034  0.00  0.00    +0.000 C 
ATOM     11  C   UNL     1      -4.253  15.646  22.692  0.00  0.00    +0.000 C 
ATOM     12  C   UNL     1      -2.155  14.918  21.452  0.00  0.00    +0.000 C 
ENDROOT
BRANCH   1  18
ATOM     13  C   UNL     1       1.004  11.177  20.002  0.00  0.00    +0.000 C 
ATOM     14  C   UNL     1      -0.238  11.115  19.174  0.00  0.00    +0.000 A 
ATOM     15  C   UNL     1      -0.629   9.936  18.455  0.00  0.00    +0.000 A 
ATOM     16  C   UNL     1      -1.762  10.128  17.697  0.00  0.00    +0.000 A 
ATOM     17  S   UNL     1      -2.258  11.753  17.735  0.00  0.00    +0.000 S 
ATOM     18  C   UNL     1      -1.179  12.139  19.022  0.00  0.00    +0.000 A 
ENDBRANCH   1  18
BRANCH   5  19
ATOM     19  C   UNL     1      -4.746  12.710  23.132  0.00  0.00    +0.000 C 
ATOM     20  O   UNL     1      -5.038  12.385  24.282  0.00  0.00    +0.000 OA
ATOM     21  N   UNL     1      -5.675  12.645  22.113  0.00  0.00    +0.000 N 
ATOM     22  H   UNL     1      -5.400  12.750  21.148  0.00  0.00    +0.000 HD
BRANCH  21  23
ATOM     23  C   UNL     1      -7.001  12.133  22.394  0.00  0.00    +0.000 C 
BRANCH  23  24
ATOM     24  C   UNL     1      -7.681  11.613  21.167  0.00  0.00    +0.000 C 
ATOM     25  C   UNL     1      -6.971  10.812  20.102  0.00  0.00    +0.000 C 
ATOM     26  C   UNL     1      -7.914  10.124  21.048  0.00  0.00    +0.000 C 
ENDBRANCH  23  24
ENDBRANCH  21  23
ENDBRANCH   5  19
TORSDOF 4
ENDMDL
MODEL 7
REMARK VINA RESULT:      -5.6      9.452     12.987
REMARK  Name = 
REMARK  5 active torsions:
REMARK  status: ('A' for Active; 'I' for Inactive)
REMARK    1  A    between atoms: C_1  and  C_2
REMARK    2  A    between atoms: C_6  and  C_7
REMARK    3  A    between atoms: C_11  and  C_12
REMARK    4  A    between atoms: N_14  and  C_15
REMARK    5  A    between atoms: C_15  and  C_16
REMARK                            x       y       z     vdW  Elec       q    Type
REMARK                         _______ _______ _______ _____ _____    ______ ____
ROOT
ATOM      1  C   UNL     1       0.827  12.580  21.053  0.00  0.00    +0.000 C 
ATOM      2  O   UNL     1       1.811  13.273  21.341  0.00  0.00    +0.000 OA
ATOM      3  N   UNL     1      -0.435  12.970  21.535  0.00  0.00    +0.000 N 
ATOM      4  C   UNL     1      -1.720  12.360  21.286  0.00  0.00    +0.000 C 
ATOM      5  C   UNL     1      -2.639  12.838  22.411  0.00  0.00    +0.000 C 
ATOM      6  C   UNL     1      -2.059  14.242  22.798  0.00  0.00    +0.000 C 
ATOM      7  C   UNL     1      -1.962  14.425  24.328  0.00  0.00    +0.000 C 
ATOM      8  C   UNL     1      -3.322  14.637  24.964  0.00  0.00    +0.000 C 
ATOM      9  O   UNL     1      -3.977  15.765  24.400  0.00  0.00    +0.000 OA
ATOM     10  C   UNL     1      -4.148  15.717  22.985  0.00  0.00    +0.000 C 
ATOM     11  C   UNL     1      -2.839  15.450  22.243  0.00  0.00    +0.000 C 
ATOM     12  C   UNL     1      -0.608  14.230  22.228  0.00  0.00    +0.000 C 
ENDROOT
BRANCH   1  18
ATOM     13  C   UNL     1       0.733   9.634  22.242  0.00  0.00    +0.000 C 
ATOM     14  C   UNL     1       0.885  10.022  20.807  0.00  0.00    +0.000 A 
ATOM     15  C   UNL     1       0.923   9.057  19.745  0.00  0.00    +0.000 A 
ATOM     16  C   UNL     1       1.148   9.630  18.514  0.00  0.00    +0.000 A 
ATOM     17  S   UNL     1       1.463  11.294  18.661  0.00  0.00    +0.000 S 
ATOM     18  C   UNL     1       0.967  11.328  20.310  0.00  0.00    +0.000 A 
ENDBRANCH   1  18
BRANCH   5  19
ATOM     19  C   UNL     1      -4.079  12.730  21.894  0.00  0.00    +0.000 C 
ATOM     20  O   UNL     1      -5.019  12.455  22.640  0.00  0.00    +0.000 OA
ATOM     21  N   UNL     1      -4.274  12.940  20.545  0.00  0.00    +0.000 N 
ATOM     22  H   UNL     1      -3.495  13.002  19.907  0.00  0.00    +0.000 HD
BRANCH  21  23
ATOM     23  C   UNL     1      -5.602  12.780  19.987  0.00  0.00    +0.000 C 
BRANCH  23  24
ATOM     24  C   UNL     1      -5.700  11.589  19.087  0.00  0.00    +0.000 C 
ATOM     25  C   UNL     1      -6.799  10.557  19.193  0.00  0.00    +0.000 C 
ATOM     26  C   UNL     1      -6.812  11.547  18.063  0.00  0.00    +0.000 C 
ENDBRANCH  23  24
ENDBRANCH  21  23
ENDBRANCH   5  19
TORSDOF 4
ENDMDL
MODEL 8
REMARK VINA RESULT:      -5.5      9.973     13.566
REMARK  Name = 
REMARK  5 active torsions:
REMARK  status: ('A' for Active; 'I' for Inactive)
REMARK    1  A    between atoms: C_1  and  C_2
REMARK    2  A    between atoms: C_6  and  C_7
REMARK    3  A    between atoms: C_11  and  C_12
REMARK    4  A    between atoms: N_14  and  C_15
REMARK    5  A    between atoms: C_15  and  C_16
REMARK                            x       y       z     vdW  Elec       q    Type
REMARK                         _______ _______ _______ _____ _____    ______ ____
ROOT
ATOM      1  C   UNL     1      -0.142  13.092  20.473  0.00  0.00    +0.000 C 
ATOM      2  O   UNL     1       0.701  13.971  20.252  0.00  0.00    +0.000 OA
ATOM      3  N   UNL     1      -1.166  13.359  21.400  0.00  0.00    +0.000 N 
ATOM      4  C   UNL     1      -2.280  12.521  21.773  0.00  0.00    +0.000 C 
ATOM      5  C   UNL     1      -2.764  13.042  23.128  0.00  0.00    +0.000 C 
ATOM      6  C   UNL     1      -2.398  14.566  23.096  0.00  0.00    +0.000 C 
ATOM      7  C   UNL     1      -1.750  15.032  24.417  0.00  0.00    +0.000 C 
ATOM      8  C   UNL     1      -2.762  15.138  25.542  0.00  0.00    +0.000 C 
ATOM      9  O   UNL     1      -3.813  16.031  25.197  0.00  0.00    +0.000 OA
ATOM     10  C   UNL     1      -4.511  15.705  23.997  0.00  0.00    +0.000 C 
ATOM     11  C   UNL     1      -3.574  15.518  22.804  0.00  0.00    +0.000 C 
ATOM     12  C   UNL     1      -1.321  14.680  21.974  0.00  0.00    +0.000 C 
ENDROOT
BRANCH   1  18
ATOM     13  C   UNL     1      -1.671  12.047  17.890  0.00  0.00    +0.000 C 
ATOM     14  C   UNL     1      -0.666  11.300  18.707  0.00  0.00    +0.000 A 
ATOM     15  C   UNL     1      -0.195   9.993  18.346  0.00  0.00    +0.000 A 
ATOM     16  C   UNL     1       0.665   9.463  19.281  0.00  0.00    +0.000 A 
ATOM     17  S   UNL     1       0.780  10.466  20.648  0.00  0.00    +0.000 S 
ATOM     18  C   UNL     1      -0.037  11.765  19.867  0.00  0.00    +0.000 A 
ENDBRANCH   1  18
BRANCH   5  19
ATOM     19  C   UNL     1      -4.231  12.619  23.276  0.00  0.00    +0.000 C 
ATOM     20  O   UNL     1      -4.694  12.242  24.353  0.00  0.00    +0.000 OA
ATOM     21  N   UNL     1      -5.011  12.665  22.139  0.00  0.00    +0.000 N 
ATOM     22  H   UNL     1      -4.601  12.813  21.230  0.00  0.00    +0.000 HD
BRANCH  21  23
ATOM     23  C   UNL     1      -6.385  12.208  22.203  0.00  0.00    +0.000 C 
BRANCH  23  24
ATOM     24  C   UNL     1      -7.010  12.098  20.849  0.00  0.00    +0.000 C 
ATOM     25  C   UNL     1      -6.343  11.413  19.680  0.00  0.00    +0.000 C 
ATOM     26  C   UNL     1      -7.489  10.741  20.383  0.00  0.00    +0.000 C 
ENDBRANCH  23  24
ENDBRANCH  21  23
ENDBRANCH   5  19
TORSDOF 4
ENDMDL
MODEL 9
REMARK VINA RESULT:      -5.5     10.423     14.051
REMARK  Name = 
REMARK  5 active torsions:
REMARK  status: ('A' for Active; 'I' for Inactive)
REMARK    1  A    between atoms: C_1  and  C_2
REMARK    2  A    between atoms: C_6  and  C_7
REMARK    3  A    between atoms: C_11  and  C_12
REMARK    4  A    between atoms: N_14  and  C_15
REMARK    5  A    between atoms: C_15  and  C_16
REMARK                            x       y       z     vdW  Elec       q    Type
REMARK                         _______ _______ _______ _____ _____    ______ ____
ROOT
ATOM      1  C   UNL     1      -1.373  12.310  22.123  0.00  0.00    +0.000 C 
ATOM      2  O   UNL     1      -0.696  12.466  23.148  0.00  0.00    +0.000 OA
ATOM      3  N   UNL     1      -2.731  12.675  22.151  0.00  0.00    +0.000 N 
ATOM      4  C   UNL     1      -3.693  12.640  21.076  0.00  0.00    +0.000 C 
ATOM      5  C   UNL     1      -5.070  12.642  21.741  0.00  0.00    +0.000 C 
ATOM      6  C   UNL     1      -4.836  13.416  23.085  0.00  0.00    +0.000 C 
ATOM      7  C   UNL     1      -5.506  12.710  24.282  0.00  0.00    +0.000 C 
ATOM      8  C   UNL     1      -7.014  12.873  24.269  0.00  0.00    +0.000 C 
ATOM      9  O   UNL     1      -7.377  14.247  24.275  0.00  0.00    +0.000 OA
ATOM     10  C   UNL     1      -6.834  15.018  23.204  0.00  0.00    +0.000 C 
ATOM     11  C   UNL     1      -5.317  14.881  23.090  0.00  0.00    +0.000 C 
ATOM     12  C   UNL     1      -3.293  13.354  23.300  0.00  0.00    +0.000 C 
ENDROOT
BRANCH   1  18
ATOM     13  C   UNL     1      -0.341   9.316  21.867  0.00  0.00    +0.000 C 
ATOM     14  C   UNL     1      -0.397  10.345  20.785  0.00  0.00    +0.000 A 
ATOM     15  C   UNL     1      -0.052  10.054  19.422  0.00  0.00    +0.000 A 
ATOM     16  C   UNL     1      -0.099  11.167  18.614  0.00  0.00    +0.000 A 
ATOM     17  S   UNL     1      -0.406  12.572  19.520  0.00  0.00    +0.000 S 
ATOM     18  C   UNL     1      -0.816  11.672  20.931  0.00  0.00    +0.000 A 
ENDBRANCH   1  18
BRANCH   5  19
ATOM     19  C   UNL     1      -6.067  13.193  20.714  0.00  0.00    +0.000 C 
ATOM     20  O   UNL     1      -7.274  12.960  20.789  0.00  0.00    +0.000 OA
ATOM     21  N   UNL     1      -5.548  13.953  19.687  0.00  0.00    +0.000 N 
ATOM     22  H   UNL     1      -4.553  14.008  19.529  0.00  0.00    +0.000 HD
BRANCH  21  23
ATOM     23  C   UNL     1      -6.433  14.439  18.647  0.00  0.00    +0.000 C 
BRANCH  23  24
ATOM     24  C   UNL     1      -6.366  13.602  17.408  0.00  0.00    +0.000 C 
ATOM     25  C   UNL     1      -5.559  12.330  17.308  0.00  0.00    +0.000 C 
ATOM     26  C   UNL     1      -7.056  12.257  17.408  0.00  0.00    +0.000 C 
ENDBRANCH  23  24
ENDBRANCH  21  23
ENDBRANCH   5  19
TORSDOF 4
ENDMDL
