MODEL 1
REMARK VINA RESULT:      -8.6      0.000      0.000
REMARK  Name = 
REMARK  8 active torsions:
REMARK  status: ('A' for Active; 'I' for Inactive)
REMARK    1  A    between atoms: C_1  and  C_2
REMARK    2  A    between atoms: C_2  and  C_3
REMARK    3  A    between atoms: C_2  and  C_4
REMARK    4  A    between atoms: C_12  and  C_13
REMARK    5  A    between atoms: N_15  and  C_16
REMARK    6  A    between atoms: C_16  and  C_17
REMARK    7  A    between atoms: C_17  and  N_18
REMARK    8  A    between atoms: C_21  and  C_22
REMARK                            x       y       z     vdW  Elec       q    Type
REMARK                         _______ _______ _______ _____ _____    ______ ____
ROOT
ATOM      1  C   UNL     1       5.022   5.594  17.363  0.00  0.00    +0.000 A 
ATOM      2  C   UNL     1       4.890   4.835  18.534  0.00  0.00    +0.000 A 
ATOM      3  C   UNL     1       3.979   5.208  19.533  0.00  0.00    +0.000 A 
ATOM      4  C   UNL     1       3.180   6.341  19.382  0.00  0.00    +0.000 A 
ATOM      5  N   UNL     1       2.299   6.700  20.412  0.00  0.00    +0.000 NA
ATOM      6  C   UNL     1       1.585   7.772  20.258  0.00  0.00    +0.000 A 
ATOM      7  C   UNL     1       0.655   8.180  21.348  0.00  0.00    +0.000 A 
ATOM      8  C   UNL     1      -0.100   9.277  21.208  0.00  0.00    +0.000 A 
ATOM      9  C   UNL     1      -0.030  10.088  20.008  0.00  0.00    +0.000 A 
ATOM     10  C   UNL     1       0.831   9.732  19.044  0.00  0.00    +0.000 A 
ATOM     11  N   UNL     1       1.625   8.591  19.134  0.00  0.00    +0.000 N 
ATOM     12  C   UNL     1       2.465   8.285  18.066  0.00  0.00    +0.000 A 
ATOM     13  O   UNL     1       2.544   8.948  17.030  0.00  0.00    +0.000 OA
ATOM     14  C   UNL     1       3.300   7.083  18.212  0.00  0.00    +0.000 A 
ATOM     15  C   UNL     1       4.202   6.719  17.204  0.00  0.00    +0.000 A 
ENDROOT
BRANCH   9  16
ATOM     16  C   UNL     1      -0.846  11.344  19.920  0.00  0.00    +0.000 C 
ATOM     17  O   UNL     1      -1.042  11.885  18.833  0.00  0.00    +0.000 OA
ATOM     18  N   UNL     1      -1.316  11.863  21.101  0.00  0.00    +0.000 N 
ATOM     19  H   UNL     1      -0.972  11.539  21.997  0.00  0.00    +0.000 HD
BRANCH  18  20
ATOM     20  C   UNL     1      -2.042  13.119  21.107  0.00  0.00    +0.000 C 
BRANCH  20  21
ATOM     21  C   UNL     1      -2.413  13.580  22.526  0.00  0.00    +0.000 C 
BRANCH  21  22
ATOM     22  N   UNL     1      -3.815  14.052  22.676  0.00  0.00    +0.000 NA
ATOM     23  C   UNL     1      -4.282  14.676  21.422  0.00  0.00    +0.000 C 
ATOM     24  C   UNL     1      -5.783  14.984  21.408  0.00  0.00    +0.000 C 
ATOM     25  C   UNL     1      -6.634  13.735  21.708  0.00  0.00    +0.000 C 
ATOM     26  C   UNL     1      -6.151  13.240  23.085  0.00  0.00    +0.000 C 
ATOM     27  C   UNL     1      -4.657  12.904  23.065  0.00  0.00    +0.000 C 
BRANCH  25  28
ATOM     28  C   UNL     1      -6.653  12.664  20.609  0.00  0.00    +0.000 A 
ATOM     29  C   UNL     1      -7.179  11.380  20.848  0.00  0.00    +0.000 A 
ATOM     30  C   UNL     1      -7.188  10.393  19.857  0.00  0.00    +0.000 A 
ATOM     31  C   UNL     1      -6.701  10.675  18.588  0.00  0.00    +0.000 A 
ATOM     32  C   UNL     1      -6.224  11.951  18.307  0.00  0.00    +0.000 A 
ATOM     33  C   UNL     1      -6.210  12.935  19.302  0.00  0.00    +0.000 A 
ENDBRANCH  25  28
ENDBRANCH  21  22
ENDBRANCH  20  21
ENDBRANCH  18  20
ENDBRANCH   9  16
BRANCH   1  35
ATOM     34  C   UNL     1       7.290   4.617  16.902  0.00  0.00    +0.000 C 
ATOM     35  C   UNL     1       6.046   5.266  16.291  0.00  0.00    +0.000 C 
ATOM     36  C   UNL     1       5.465   4.401  15.174  0.00  0.00    +0.000 C 
ENDBRANCH   1  35
TORSDOF 6
ENDMDL
MODEL 2
REMARK VINA RESULT:      -8.6      0.631      1.174
REMARK  Name = 
REMARK  8 active torsions:
REMARK  status: ('A' for Active; 'I' for Inactive)
REMARK    1  A    between atoms: C_1  and  C_2
REMARK    2  A    between atoms: C_2  and  C_3
REMARK    3  A    between atoms: C_2  and  C_4
REMARK    4  A    between atoms: C_12  and  C_13
REMARK    5  A    between atoms: N_15  and  C_16
REMARK    6  A    between atoms: C_16  and  C_17
REMARK    7  A    between atoms: C_17  and  N_18
REMARK    8  A    between atoms: C_21  and  C_22
REMARK                            x       y       z     vdW  Elec       q    Type
REMARK                         _______ _______ _______ _____ _____    ______ ____
ROOT
ATOM      1  C   UNL     1       4.818   4.928  17.356  0.00  0.00    +0.000 A 
ATOM      2  C   UNL     1       4.622   4.139  18.498  0.00  0.00    +0.000 A 
ATOM      3  C   UNL     1       3.760   4.559  19.522  0.00  0.00    +0.000 A 
ATOM      4  C   UNL     1       3.077   5.771  19.426  0.00  0.00    +0.000 A 
ATOM      5  N   UNL     1       2.245   6.173  20.481  0.00  0.00    +0.000 NA
ATOM      6  C   UNL     1       1.640   7.316  20.378  0.00  0.00    +0.000 A 
ATOM      7  C   UNL     1       0.764   7.769  21.495  0.00  0.00    +0.000 A 
ATOM      8  C   UNL     1       0.121   8.940  21.408  0.00  0.00    +0.000 A 
ATOM      9  C   UNL     1       0.262   9.789  20.241  0.00  0.00    +0.000 A 
ATOM     10  C   UNL     1       1.074   9.389  19.253  0.00  0.00    +0.000 A 
ATOM     11  N   UNL     1       1.751   8.172  19.287  0.00  0.00    +0.000 N 
ATOM     12  C   UNL     1       2.548   7.828  18.198  0.00  0.00    +0.000 A 
ATOM     13  O   UNL     1       2.684   8.521  17.188  0.00  0.00    +0.000 OA
ATOM     14  C   UNL     1       3.261   6.544  18.285  0.00  0.00    +0.000 A 
ATOM     15  C   UNL     1       4.113   6.134  17.253  0.00  0.00    +0.000 A 
ENDROOT
BRANCH   9  16
ATOM     16  C   UNL     1      -0.426  11.122  20.213  0.00  0.00    +0.000 C 
ATOM     17  O   UNL     1      -0.523  11.751  19.160  0.00  0.00    +0.000 OA
ATOM     18  N   UNL     1      -0.895  11.604  21.410  0.00  0.00    +0.000 N 
ATOM     19  H   UNL     1      -0.622  11.188  22.292  0.00  0.00    +0.000 HD
BRANCH  18  20
ATOM     20  C   UNL     1      -1.497  12.922  21.479  0.00  0.00    +0.000 C 
BRANCH  20  21
ATOM     21  C   UNL     1      -2.485  13.059  22.649  0.00  0.00    +0.000 C 
BRANCH  21  22
ATOM     22  N   UNL     1      -3.698  13.862  22.343  0.00  0.00    +0.000 NA
ATOM     23  C   UNL     1      -3.836  14.047  20.885  0.00  0.00    +0.000 C 
ATOM     24  C   UNL     1      -5.174  14.663  20.465  0.00  0.00    +0.000 C 
ATOM     25  C   UNL     1      -6.376  13.858  20.995  0.00  0.00    +0.000 C 
ATOM     26  C   UNL     1      -6.198  13.832  22.526  0.00  0.00    +0.000 C 
ATOM     27  C   UNL     1      -4.871  13.179  22.923  0.00  0.00    +0.000 C 
BRANCH  25  28
ATOM     28  C   UNL     1      -6.592  12.482  20.349  0.00  0.00    +0.000 A 
ATOM     29  C   UNL     1      -6.034  12.169  19.095  0.00  0.00    +0.000 A 
ATOM     30  C   UNL     1      -6.236  10.923  18.492  0.00  0.00    +0.000 A 
ATOM     31  C   UNL     1      -6.974   9.944  19.143  0.00  0.00    +0.000 A 
ATOM     32  C   UNL     1      -7.492  10.207  20.407  0.00  0.00    +0.000 A 
ATOM     33  C   UNL     1      -7.294  11.457  21.006  0.00  0.00    +0.000 A 
ENDBRANCH  25  28
ENDBRANCH  21  22
ENDBRANCH  20  21
ENDBRANCH  18  20
ENDBRANCH   9  16
BRANCH   1  35
ATOM     34  C   UNL     1       5.479   5.285  14.959  0.00  0.00    +0.000 C 
ATOM     35  C   UNL     1       5.796   4.544  16.260  0.00  0.00    +0.000 C 
ATOM     36  C   UNL     1       7.251   4.758  16.675  0.00  0.00    +0.000 C 
ENDBRANCH   1  35
TORSDOF 6
ENDMDL
MODEL 3
REMARK VINA RESULT:      -8.5      2.079      3.152
REMARK  Name = 
REMARK  8 active torsions:
REMARK  status: ('A' for Active; 'I' for Inactive)
REMARK    1  A    between atoms: C_1  and  C_2
REMARK    2  A    between atoms: C_2  and  C_3
REMARK    3  A    between atoms: C_2  and  C_4
REMARK    4  A    between atoms: C_12  and  C_13
REMARK    5  A    between atoms: N_15  and  C_16
REMARK    6  A    between atoms: C_16  and  C_17
REMARK    7  A    between atoms: C_17  and  N_18
REMARK    8  A    between atoms: C_21  and  C_22
REMARK                            x       y       z     vdW  Elec       q    Type
REMARK                         _______ _______ _______ _____ _____    ______ ____
ROOT
ATOM      1  C   UNL     1       2.447   5.499  19.984  0.00  0.00    +0.000 A 
ATOM      2  C   UNL     1       3.062   5.905  18.791  0.00  0.00    +0.000 A 
ATOM      3  C   UNL     1       2.862   7.197  18.285  0.00  0.00    +0.000 A 
ATOM      4  C   UNL     1       2.049   8.110  18.958  0.00  0.00    +0.000 A 
ATOM      5  N   UNL     1       1.849   9.384  18.408  0.00  0.00    +0.000 NA
ATOM      6  C   UNL     1       1.069  10.205  19.041  0.00  0.00    +0.000 A 
ATOM      7  C   UNL     1       0.830  11.558  18.465  0.00  0.00    +0.000 A 
ATOM      8  C   UNL     1       0.038  12.427  19.104  0.00  0.00    +0.000 A 
ATOM      9  C   UNL     1      -0.605  12.076  20.357  0.00  0.00    +0.000 A 
ATOM     10  C   UNL     1      -0.410  10.846  20.854  0.00  0.00    +0.000 A 
ATOM     11  N   UNL     1       0.420   9.913  20.236  0.00  0.00    +0.000 N 
ATOM     12  C   UNL     1       0.587   8.672  20.846  0.00  0.00    +0.000 A 
ATOM     13  O   UNL     1       0.062   8.343  21.912  0.00  0.00    +0.000 OA
ATOM     14  C   UNL     1       1.454   7.710  20.149  0.00  0.00    +0.000 A 
ATOM     15  C   UNL     1       1.650   6.425  20.669  0.00  0.00    +0.000 A 
ENDROOT
BRANCH   9  16
ATOM     16  C   UNL     1      -1.536  13.057  21.006  0.00  0.00    +0.000 C 
ATOM     17  O   UNL     1      -1.888  14.072  20.407  0.00  0.00    +0.000 OA
ATOM     18  N   UNL     1      -1.932  12.779  22.291  0.00  0.00    +0.000 N 
ATOM     19  H   UNL     1      -1.472  12.067  22.845  0.00  0.00    +0.000 HD
BRANCH  18  20
ATOM     20  C   UNL     1      -2.765  13.721  23.016  0.00  0.00    +0.000 C 
BRANCH  20  21
ATOM     21  C   UNL     1      -3.961  13.043  23.704  0.00  0.00    +0.000 C 
BRANCH  21  22
ATOM     22  N   UNL     1      -5.290  13.560  23.283  0.00  0.00    +0.000 NA
ATOM     23  C   UNL     1      -5.300  13.830  21.832  0.00  0.00    +0.000 C 
ATOM     24  C   UNL     1      -6.690  14.147  21.273  0.00  0.00    +0.000 C 
ATOM     25  C   UNL     1      -7.712  13.039  21.595  0.00  0.00    +0.000 C 
ATOM     26  C   UNL     1      -7.711  12.927  23.133  0.00  0.00    +0.000 C 
ATOM     27  C   UNL     1      -6.319  12.574  23.666  0.00  0.00    +0.000 C 
BRANCH  25  28
ATOM     28  C   UNL     1      -7.509  11.711  20.853  0.00  0.00    +0.000 A 
ATOM     29  C   UNL     1      -6.844  11.662  19.613  0.00  0.00    +0.000 A 
ATOM     30  C   UNL     1      -6.666  10.459  18.922  0.00  0.00    +0.000 A 
ATOM     31  C   UNL     1      -7.120   9.266  19.470  0.00  0.00    +0.000 A 
ATOM     32  C   UNL     1      -7.734   9.278  20.718  0.00  0.00    +0.000 A 
ATOM     33  C   UNL     1      -7.916  10.484  21.405  0.00  0.00    +0.000 A 
ENDBRANCH  25  28
ENDBRANCH  21  22
ENDBRANCH  20  21
ENDBRANCH  18  20
ENDBRANCH   9  16
BRANCH   1  35
ATOM     34  C   UNL     1       1.226   3.374  20.537  0.00  0.00    +0.000 C 
ATOM     35  C   UNL     1       2.580   4.087  20.529  0.00  0.00    +0.000 C 
ATOM     36  C   UNL     1       3.630   3.270  19.779  0.00  0.00    +0.000 C 
ENDBRANCH   1  35
TORSDOF 6
ENDMDL
MODEL 4
REMARK VINA RESULT:      -8.4      0.900      1.249
REMARK  Name = 
REMARK  8 active torsions:
REMARK  status: ('A' for Active; 'I' for Inactive)
REMARK    1  A    between atoms: C_1  and  C_2
REMARK    2  A    between atoms: C_2  and  C_3
REMARK    3  A    between atoms: C_2  and  C_4
REMARK    4  A    between atoms: C_12  and  C_13
REMARK    5  A    between atoms: N_15  and  C_16
REMARK    6  A    between atoms: C_16  and  C_17
REMARK    7  A    between atoms: C_17  and  N_18
REMARK    8  A    between atoms: C_21  and  C_22
REMARK                            x       y       z     vdW  Elec       q    Type
REMARK                         _______ _______ _______ _____ _____    ______ ____
ROOT
ATOM      1  C   UNL     1       4.214   5.598  17.836  0.00  0.00    +0.000 A 
ATOM      2  C   UNL     1       3.985   4.892  19.025  0.00  0.00    +0.000 A 
ATOM      3  C   UNL     1       3.123   5.401  20.008  0.00  0.00    +0.000 A 
ATOM      4  C   UNL     1       2.473   6.621  19.824  0.00  0.00    +0.000 A 
ATOM      5  N   UNL     1       1.640   7.113  20.838  0.00  0.00    +0.000 NA
ATOM      6  C   UNL     1       1.067   8.262  20.652  0.00  0.00    +0.000 A 
ATOM      7  C   UNL     1       0.191   8.810  21.726  0.00  0.00    +0.000 A 
ATOM      8  C   UNL     1      -0.421   9.989  21.553  0.00  0.00    +0.000 A 
ATOM      9  C   UNL     1      -0.245  10.755  20.334  0.00  0.00    +0.000 A 
ATOM     10  C   UNL     1       0.568  10.269  19.385  0.00  0.00    +0.000 A 
ATOM     11  N   UNL     1       1.212   9.040  19.509  0.00  0.00    +0.000 N 
ATOM     12  C   UNL     1       2.012   8.605  18.455  0.00  0.00    +0.000 A 
ATOM     13  O   UNL     1       2.177   9.225  17.403  0.00  0.00    +0.000 OA
ATOM     14  C   UNL     1       2.689   7.312  18.636  0.00  0.00    +0.000 A 
ATOM     15  C   UNL     1       3.543   6.812  17.644  0.00  0.00    +0.000 A 
ENDROOT
BRANCH   9  16
ATOM     16  C   UNL     1      -0.897  12.100  20.209  0.00  0.00    +0.000 C 
ATOM     17  O   UNL     1      -0.467  12.929  19.408  0.00  0.00    +0.000 OA
ATOM     18  N   UNL     1      -1.952  12.359  21.049  0.00  0.00    +0.000 N 
ATOM     19  H   UNL     1      -2.155  11.764  21.843  0.00  0.00    +0.000 HD
BRANCH  18  20
ATOM     20  C   UNL     1      -2.580  13.666  21.046  0.00  0.00    +0.000 C 
BRANCH  20  21
ATOM     21  C   UNL     1      -2.762  14.237  22.463  0.00  0.00    +0.000 C 
BRANCH  21  22
ATOM     22  N   UNL     1      -4.172  14.525  22.836  0.00  0.00    +0.000 NA
ATOM     23  C   UNL     1      -4.846  15.272  21.757  0.00  0.00    +0.000 C 
ATOM     24  C   UNL     1      -6.358  15.413  21.954  0.00  0.00    +0.000 C 
ATOM     25  C   UNL     1      -7.049  14.047  22.141  0.00  0.00    +0.000 C 
ATOM     26  C   UNL     1      -6.355  13.410  23.361  0.00  0.00    +0.000 C 
ATOM     27  C   UNL     1      -4.851  13.247  23.126  0.00  0.00    +0.000 C 
BRANCH  25  28
ATOM     28  C   UNL     1      -7.105  13.155  20.894  0.00  0.00    +0.000 A 
ATOM     29  C   UNL     1      -7.129  13.708  19.599  0.00  0.00    +0.000 A 
ATOM     30  C   UNL     1      -7.193  12.903  18.457  0.00  0.00    +0.000 A 
ATOM     31  C   UNL     1      -7.201  11.520  18.578  0.00  0.00    +0.000 A 
ATOM     32  C   UNL     1      -7.124  10.945  19.842  0.00  0.00    +0.000 A 
ATOM     33  C   UNL     1      -7.066  11.752  20.984  0.00  0.00    +0.000 A 
ENDBRANCH  25  28
ENDBRANCH  21  22
ENDBRANCH  20  21
ENDBRANCH  18  20
ENDBRANCH   9  16
BRANCH   1  35
ATOM     34  C   UNL     1       4.805   3.731  16.262  0.00  0.00    +0.000 C 
ATOM     35  C   UNL     1       5.194   5.117  16.780  0.00  0.00    +0.000 C 
ATOM     36  C   UNL     1       5.346   6.112  15.631  0.00  0.00    +0.000 C 
ENDBRANCH   1  35
TORSDOF 6
ENDMDL
MODEL 5
REMARK VINA RESULT:      -8.4      2.353      3.290
REMARK  Name = 
REMARK  8 active torsions:
REMARK  status: ('A' for Active; 'I' for Inactive)
REMARK    1  A    between atoms: C_1  and  C_2
REMARK    2  A    between atoms: C_2  and  C_3
REMARK    3  A    between atoms: C_2  and  C_4
REMARK    4  A    between atoms: C_12  and  C_13
REMARK    5  A    between atoms: N_15  and  C_16
REMARK    6  A    between atoms: C_16  and  C_17
REMARK    7  A    between atoms: C_17  and  N_18
REMARK    8  A    between atoms: C_21  and  C_22
REMARK                            x       y       z     vdW  Elec       q    Type
REMARK                         _______ _______ _______ _____ _____    ______ ____
ROOT
ATOM      1  C   UNL     1       2.400   6.243  19.403  0.00  0.00    +0.000 A 
ATOM      2  C   UNL     1       2.636   6.874  18.173  0.00  0.00    +0.000 A 
ATOM      3  C   UNL     1       2.275   8.214  17.973  0.00  0.00    +0.000 A 
ATOM      4  C   UNL     1       1.676   8.951  18.994  0.00  0.00    +0.000 A 
ATOM      5  N   UNL     1       1.303  10.280  18.751  0.00  0.00    +0.000 NA
ATOM      6  C   UNL     1       0.725  10.936  19.709  0.00  0.00    +0.000 A 
ATOM      7  C   UNL     1       0.306  12.345  19.465  0.00  0.00    +0.000 A 
ATOM      8  C   UNL     1      -0.283  13.047  20.441  0.00  0.00    +0.000 A 
ATOM      9  C   UNL     1      -0.529  12.459  21.744  0.00  0.00    +0.000 A 
ATOM     10  C   UNL     1      -0.177  11.182  21.947  0.00  0.00    +0.000 A 
ATOM     11  N   UNL     1       0.455  10.416  20.970  0.00  0.00    +0.000 N 
ATOM     12  C   UNL     1       0.813   9.107  21.286  0.00  0.00    +0.000 A 
ATOM     13  O   UNL     1       0.626   8.579  22.384  0.00  0.00    +0.000 OA
ATOM     14  C   UNL     1       1.459   8.328  20.218  0.00  0.00    +0.000 A 
ATOM     15  C   UNL     1       1.819   6.992  20.434  0.00  0.00    +0.000 A 
ENDROOT
BRANCH   9  16
ATOM     16  C   UNL     1      -1.250  13.260  22.789  0.00  0.00    +0.000 C 
ATOM     17  O   UNL     1      -0.665  14.150  23.405  0.00  0.00    +0.000 OA
ATOM     18  N   UNL     1      -2.558  12.922  23.037  0.00  0.00    +0.000 N 
ATOM     19  H   UNL     1      -2.958  12.060  22.688  0.00  0.00    +0.000 HD
BRANCH  18  20
ATOM     20  C   UNL     1      -3.295  13.595  24.090  0.00  0.00    +0.000 C 
BRANCH  20  21
ATOM     21  C   UNL     1      -4.194  14.721  23.553  0.00  0.00    +0.000 C 
BRANCH  21  22
ATOM     22  N   UNL     1      -5.651  14.427  23.607  0.00  0.00    +0.000 NA
ATOM     23  C   UNL     1      -6.325  14.957  22.406  0.00  0.00    +0.000 C 
ATOM     24  C   UNL     1      -7.781  14.503  22.264  0.00  0.00    +0.000 C 
ATOM     25  C   UNL     1      -7.916  12.969  22.293  0.00  0.00    +0.000 C 
ATOM     26  C   UNL     1      -7.295  12.535  23.635  0.00  0.00    +0.000 C 
ATOM     27  C   UNL     1      -5.830  12.968  23.738  0.00  0.00    +0.000 C 
BRANCH  25  28
ATOM     28  C   UNL     1      -7.370  12.231  21.063  0.00  0.00    +0.000 A 
ATOM     29  C   UNL     1      -7.569  10.847  20.893  0.00  0.00    +0.000 A 
ATOM     30  C   UNL     1      -7.064  10.164  19.782  0.00  0.00    +0.000 A 
ATOM     31  C   UNL     1      -6.374  10.853  18.793  0.00  0.00    +0.000 A 
ATOM     32  C   UNL     1      -6.208  12.229  18.908  0.00  0.00    +0.000 A 
ATOM     33  C   UNL     1      -6.709  12.910  20.024  0.00  0.00    +0.000 A 
ENDBRANCH  25  28
ENDBRANCH  21  22
ENDBRANCH  20  21
ENDBRANCH  18  20
ENDBRANCH   9  16
BRANCH   1  35
ATOM     34  C   UNL     1       1.888   4.220  20.803  0.00  0.00    +0.000 C 
ATOM     35  C   UNL     1       2.710   4.774  19.637  0.00  0.00    +0.000 C 
ATOM     36  C   UNL     1       2.519   3.931  18.378  0.00  0.00    +0.000 C 
ENDBRANCH   1  35
TORSDOF 6
ENDMDL
MODEL 6
REMARK VINA RESULT:      -8.3      3.662     10.768
REMARK  Name = 
REMARK  8 active torsions:
REMARK  status: ('A' for Active; 'I' for Inactive)
REMARK    1  A    between atoms: C_1  and  C_2
REMARK    2  A    between atoms: C_2  and  C_3
REMARK    3  A    between atoms: C_2  and  C_4
REMARK    4  A    between atoms: C_12  and  C_13
REMARK    5  A    between atoms: N_15  and  C_16
REMARK    6  A    between atoms: C_16  and  C_17
REMARK    7  A    between atoms: C_17  and  N_18
REMARK    8  A    between atoms: C_21  and  C_22
REMARK                            x       y       z     vdW  Elec       q    Type
REMARK                         _______ _______ _______ _____ _____    ______ ____
ROOT
ATOM      1  C   UNL     1       0.122  16.058  19.684  0.00  0.00    +0.000 A 
ATOM      2  C   UNL     1      -0.815  16.038  20.727  0.00  0.00    +0.000 A 
ATOM      3  C   UNL     1      -1.093  14.851  21.419  0.00  0.00    +0.000 A 
ATOM      4  C   UNL     1      -0.442  13.662  21.088  0.00  0.00    +0.000 A 
ATOM      5  N   UNL     1      -0.764  12.488  21.782  0.00  0.00    +0.000 NA
ATOM      6  C   UNL     1      -0.162  11.392  21.439  0.00  0.00    +0.000 A 
ATOM      7  C   UNL     1      -0.503  10.130  22.153  0.00  0.00    +0.000 A 
ATOM      8  C   UNL     1       0.112   8.987  21.824  0.00  0.00    +0.000 A 
ATOM      9  C   UNL     1       1.111   8.948  20.772  0.00  0.00    +0.000 A 
ATOM     10  C   UNL     1       1.391  10.082  20.113  0.00  0.00    +0.000 A 
ATOM     11  N   UNL     1       0.792  11.299  20.431  0.00  0.00    +0.000 N 
ATOM     12  C   UNL     1       1.172  12.429  19.711  0.00  0.00    +0.000 A 
ATOM     13  O   UNL     1       2.021  12.434  18.818  0.00  0.00    +0.000 OA
ATOM     14  C   UNL     1       0.499  13.689  20.065  0.00  0.00    +0.000 A 
ATOM     15  C   UNL     1       0.791  14.869  19.369  0.00  0.00    +0.000 A 
ENDROOT
BRANCH   9  16
ATOM     16  C   UNL     1       1.728   7.635  20.392  0.00  0.00    +0.000 C 
ATOM     17  O   UNL     1       2.245   7.487  19.285  0.00  0.00    +0.000 OA
ATOM     18  N   UNL     1       1.650   6.621  21.315  0.00  0.00    +0.000 N 
ATOM     19  H   UNL     1       1.041   6.685  22.121  0.00  0.00    +0.000 HD
BRANCH  18  20
ATOM     20  C   UNL     1       2.150   5.299  20.988  0.00  0.00    +0.000 C 
BRANCH  20  21
ATOM     21  C   UNL     1       1.085   4.416  20.317  0.00  0.00    +0.000 C 
BRANCH  21  22
ATOM     22  N   UNL     1       1.622   3.452  19.319  0.00  0.00    +0.000 NA
ATOM     23  C   UNL     1       1.705   4.085  17.988  0.00  0.00    +0.000 C 
ATOM     24  C   UNL     1       2.457   3.246  16.951  0.00  0.00    +0.000 C 
ATOM     25  C   UNL     1       3.873   2.867  17.428  0.00  0.00    +0.000 C 
ATOM     26  C   UNL     1       3.661   2.109  18.753  0.00  0.00    +0.000 C 
ATOM     27  C   UNL     1       2.940   2.980  19.786  0.00  0.00    +0.000 C 
BRANCH  25  28
ATOM     28  C   UNL     1       4.881   4.022  17.501  0.00  0.00    +0.000 A 
ATOM     29  C   UNL     1       5.478   4.395  18.720  0.00  0.00    +0.000 A 
ATOM     30  C   UNL     1       6.388   5.454  18.799  0.00  0.00    +0.000 A 
ATOM     31  C   UNL     1       6.751   6.148  17.652  0.00  0.00    +0.000 A 
ATOM     32  C   UNL     1       6.217   5.768  16.425  0.00  0.00    +0.000 A 
ATOM     33  C   UNL     1       5.303   4.712  16.350  0.00  0.00    +0.000 A 
ENDBRANCH  25  28
ENDBRANCH  21  22
ENDBRANCH  20  21
ENDBRANCH  18  20
ENDBRANCH   9  16
BRANCH   1  35
ATOM     34  C   UNL     1       1.594  17.093  17.930  0.00  0.00    +0.000 C 
ATOM     35  C   UNL     1       0.399  17.305  18.863  0.00  0.00    +0.000 C 
ATOM     36  C   UNL     1      -0.829  17.777  18.087  0.00  0.00    +0.000 C 
ENDBRANCH   1  35
TORSDOF 6
ENDMDL
MODEL 7
REMARK VINA RESULT:      -8.2      2.548     11.456
REMARK  Name = 
REMARK  8 active torsions:
REMARK  status: ('A' for Active; 'I' for Inactive)
REMARK    1  A    between atoms: C_1  and  C_2
REMARK    2  A    between atoms: C_2  and  C_3
REMARK    3  A    between atoms: C_2  and  C_4
REMARK    4  A    between atoms: C_12  and  C_13
REMARK    5  A    between atoms: N_15  and  C_16
REMARK    6  A    between atoms: C_16  and  C_17
REMARK    7  A    between atoms: C_17  and  N_18
REMARK    8  A    between atoms: C_21  and  C_22
REMARK                            x       y       z     vdW  Elec       q    Type
REMARK                         _______ _______ _______ _____ _____    ______ ____
ROOT
ATOM      1  C   UNL     1      -2.861  15.094  23.256  0.00  0.00    +0.000 A 
ATOM      2  C   UNL     1      -3.729  15.327  22.179  0.00  0.00    +0.000 A 
ATOM      3  C   UNL     1      -3.636  14.565  21.005  0.00  0.00    +0.000 A 
ATOM      4  C   UNL     1      -2.681  13.557  20.883  0.00  0.00    +0.000 A 
ATOM      5  N   UNL     1      -2.598  12.834  19.684  0.00  0.00    +0.000 NA
ATOM      6  C   UNL     1      -1.685  11.918  19.587  0.00  0.00    +0.000 A 
ATOM      7  C   UNL     1      -1.570  11.149  18.315  0.00  0.00    +0.000 A 
ATOM      8  C   UNL     1      -0.642  10.192  18.194  0.00  0.00    +0.000 A 
ATOM      9  C   UNL     1       0.267   9.885  19.282  0.00  0.00    +0.000 A 
ATOM     10  C   UNL     1       0.177  10.600  20.412  0.00  0.00    +0.000 A 
ATOM     11  N   UNL     1      -0.782  11.594  20.594  0.00  0.00    +0.000 N 
ATOM     12  C   UNL     1      -0.818  12.261  21.816  0.00  0.00    +0.000 A 
ATOM     13  O   UNL     1      -0.067  12.021  22.764  0.00  0.00    +0.000 OA
ATOM     14  C   UNL     1      -1.833  13.317  21.958  0.00  0.00    +0.000 A 
ATOM     15  C   UNL     1      -1.918  14.065  23.138  0.00  0.00    +0.000 A 
ENDROOT
BRANCH   9  16
ATOM     16  C   UNL     1       1.333   8.849  19.080  0.00  0.00    +0.000 C 
ATOM     17  O   UNL     1       1.981   8.817  18.035  0.00  0.00    +0.000 OA
ATOM     18  N   UNL     1       1.512   7.936  20.091  0.00  0.00    +0.000 N 
ATOM     19  H   UNL     1       0.837   7.837  20.839  0.00  0.00    +0.000 HD
BRANCH  18  20
ATOM     20  C   UNL     1       2.465   6.854  19.934  0.00  0.00    +0.000 C 
BRANCH  20  21
ATOM     21  C   UNL     1       1.944   5.523  20.500  0.00  0.00    +0.000 C 
BRANCH  21  22
ATOM     22  N   UNL     1       2.127   4.355  19.597  0.00  0.00    +0.000 NA
ATOM     23  C   UNL     1       2.021   4.776  18.186  0.00  0.00    +0.000 C 
ATOM     24  C   UNL     1       2.422   3.688  17.186  0.00  0.00    +0.000 C 
ATOM     25  C   UNL     1       3.840   3.146  17.454  0.00  0.00    +0.000 C 
ATOM     26  C   UNL     1       3.802   2.624  18.904  0.00  0.00    +0.000 C 
ATOM     27  C   UNL     1       3.435   3.737  19.889  0.00  0.00    +0.000 C 
BRANCH  25  28
ATOM     28  C   UNL     1       4.990   4.114  17.148  0.00  0.00    +0.000 A 
ATOM     29  C   UNL     1       5.782   3.967  15.993  0.00  0.00    +0.000 A 
ATOM     30  C   UNL     1       6.840   4.837  15.712  0.00  0.00    +0.000 A 
ATOM     31  C   UNL     1       7.115   5.899  16.563  0.00  0.00    +0.000 A 
ATOM     32  C   UNL     1       6.316   6.100  17.684  0.00  0.00    +0.000 A 
ATOM     33  C   UNL     1       5.262   5.225  17.967  0.00  0.00    +0.000 A 
ENDBRANCH  25  28
ENDBRANCH  21  22
ENDBRANCH  20  21
ENDBRANCH  18  20
ENDBRANCH   9  16
BRANCH   1  35
ATOM     34  C   UNL     1      -4.306  16.378  24.861  0.00  0.00    +0.000 C 
ATOM     35  C   UNL     1      -2.881  15.942  24.515  0.00  0.00    +0.000 C 
ATOM     36  C   UNL     1      -2.215  15.243  25.699  0.00  0.00    +0.000 C 
ENDBRANCH   1  35
TORSDOF 6
ENDMDL
MODEL 8
REMARK VINA RESULT:      -8.2      1.310      2.721
REMARK  Name = 
REMARK  8 active torsions:
REMARK  status: ('A' for Active; 'I' for Inactive)
REMARK    1  A    between atoms: C_1  and  C_2
REMARK    2  A    between atoms: C_2  and  C_3
REMARK    3  A    between atoms: C_2  and  C_4
REMARK    4  A    between atoms: C_12  and  C_13
REMARK    5  A    between atoms: N_15  and  C_16
REMARK    6  A    between atoms: C_16  and  C_17
REMARK    7  A    between atoms: C_17  and  N_18
REMARK    8  A    between atoms: C_21  and  C_22
REMARK                            x       y       z     vdW  Elec       q    Type
REMARK                         _______ _______ _______ _____ _____    ______ ____
ROOT
ATOM      1  C   UNL     1       5.068   5.838  17.443  0.00  0.00    +0.000 A 
ATOM      2  C   UNL     1       4.958   5.089  18.624  0.00  0.00    +0.000 A 
ATOM      3  C   UNL     1       4.003   5.418  19.596  0.00  0.00    +0.000 A 
ATOM      4  C   UNL     1       3.138   6.496  19.411  0.00  0.00    +0.000 A 
ATOM      5  N   UNL     1       2.214   6.813  20.416  0.00  0.00    +0.000 NA
ATOM      6  C   UNL     1       1.437   7.835  20.229  0.00  0.00    +0.000 A 
ATOM      7  C   UNL     1       0.459   8.199  21.293  0.00  0.00    +0.000 A 
ATOM      8  C   UNL     1      -0.360   9.244  21.119  0.00  0.00    +0.000 A 
ATOM      9  C   UNL     1      -0.315  10.040  19.908  0.00  0.00    +0.000 A 
ATOM     10  C   UNL     1       0.588   9.726  18.968  0.00  0.00    +0.000 A 
ATOM     11  N   UNL     1       1.450   8.638  19.094  0.00  0.00    +0.000 N 
ATOM     12  C   UNL     1       2.331   8.371  18.049  0.00  0.00    +0.000 A 
ATOM     13  O   UNL     1       2.392   9.022  17.004  0.00  0.00    +0.000 OA
ATOM     14  C   UNL     1       3.237   7.226  18.232  0.00  0.00    +0.000 A 
ATOM     15  C   UNL     1       4.183   6.906  17.250  0.00  0.00    +0.000 A 
ENDROOT
BRANCH   9  16
ATOM     16  C   UNL     1      -1.206  11.241  19.783  0.00  0.00    +0.000 C 
ATOM     17  O   UNL     1      -1.014  12.235  20.481  0.00  0.00    +0.000 OA
ATOM     18  N   UNL     1      -2.247  11.151  18.892  0.00  0.00    +0.000 N 
ATOM     19  H   UNL     1      -2.524  10.264  18.489  0.00  0.00    +0.000 HD
BRANCH  18  20
ATOM     20  C   UNL     1      -3.201  12.237  18.775  0.00  0.00    +0.000 C 
BRANCH  20  21
ATOM     21  C   UNL     1      -4.467  11.831  18.003  0.00  0.00    +0.000 C 
BRANCH  21  22
ATOM     22  N   UNL     1      -5.743  12.212  18.663  0.00  0.00    +0.000 NA
ATOM     23  C   UNL     1      -6.169  11.158  19.604  0.00  0.00    +0.000 C 
ATOM     24  C   UNL     1      -7.347  11.565  20.495  0.00  0.00    +0.000 C 
ATOM     25  C   UNL     1      -7.064  12.864  21.274  0.00  0.00    +0.000 C 
ATOM     26  C   UNL     1      -6.753  13.920  20.195  0.00  0.00    +0.000 C 
ATOM     27  C   UNL     1      -5.550  13.509  19.341  0.00  0.00    +0.000 C 
BRANCH  25  28
ATOM     28  C   UNL     1      -6.014  12.755  22.389  0.00  0.00    +0.000 A 
ATOM     29  C   UNL     1      -6.392  12.546  23.729  0.00  0.00    +0.000 A 
ATOM     30  C   UNL     1      -5.444  12.457  24.754  0.00  0.00    +0.000 A 
ATOM     31  C   UNL     1      -4.089  12.544  24.460  0.00  0.00    +0.000 A 
ATOM     32  C   UNL     1      -3.685  12.698  23.138  0.00  0.00    +0.000 A 
ATOM     33  C   UNL     1      -4.635  12.791  22.116  0.00  0.00    +0.000 A 
ENDBRANCH  25  28
ENDBRANCH  21  22
ENDBRANCH  20  21
ENDBRANCH  18  20
ENDBRANCH   9  16
BRANCH   1  35
ATOM     34  C   UNL     1       7.223   4.642  16.958  0.00  0.00    +0.000 C 
ATOM     35  C   UNL     1       6.135   5.560  16.399  0.00  0.00    +0.000 C 
ATOM     36  C   UNL     1       5.550   4.997  15.104  0.00  0.00    +0.000 C 
ENDBRANCH   1  35
TORSDOF 6
ENDMDL
MODEL 9
REMARK VINA RESULT:      -8.0      1.825     11.359
REMARK  Name = 
REMARK  8 active torsions:
REMARK  status: ('A' for Active; 'I' for Inactive)
REMARK    1  A    between atoms: C_1  and  C_2
REMARK    2  A    between atoms: C_2  and  C_3
REMARK    3  A    between atoms: C_2  and  C_4
REMARK    4  A    between atoms: C_12  and  C_13
REMARK    5  A    between atoms: N_15  and  C_16
REMARK    6  A    between atoms: C_16  and  C_17
REMARK    7  A    between atoms: C_17  and  N_18
REMARK    8  A    between atoms: C_21  and  C_22
REMARK                            x       y       z     vdW  Elec       q    Type
REMARK                         _______ _______ _______ _____ _____    ______ ____
ROOT
ATOM      1  C   UNL     1      -5.640  13.607  19.568  0.00  0.00    +0.000 A 
ATOM      2  C   UNL     1      -5.153  14.419  20.602  0.00  0.00    +0.000 A 
ATOM      3  C   UNL     1      -3.884  14.196  21.153  0.00  0.00    +0.000 A 
ATOM      4  C   UNL     1      -3.074  13.162  20.684  0.00  0.00    +0.000 A 
ATOM      5  N   UNL     1      -1.821  12.950  21.276  0.00  0.00    +0.000 NA
ATOM      6  C   UNL     1      -1.098  11.966  20.838  0.00  0.00    +0.000 A 
ATOM      7  C   UNL     1       0.229  11.714  21.465  0.00  0.00    +0.000 A 
ATOM      8  C   UNL     1       0.999  10.711  21.023  0.00  0.00    +0.000 A 
ATOM      9  C   UNL     1       0.563   9.853  19.938  0.00  0.00    +0.000 A 
ATOM     10  C   UNL     1      -0.645  10.067  19.398  0.00  0.00    +0.000 A 
ATOM     11  N   UNL     1      -1.475  11.108  19.810  0.00  0.00    +0.000 N 
ATOM     12  C   UNL     1      -2.699  11.271  19.165  0.00  0.00    +0.000 A 
ATOM     13  O   UNL     1      -3.096  10.566  18.236  0.00  0.00    +0.000 OA
ATOM     14  C   UNL     1      -3.552  12.369  19.646  0.00  0.00    +0.000 A 
ATOM     15  C   UNL     1      -4.816  12.584  19.083  0.00  0.00    +0.000 A 
ENDROOT
BRANCH   9  16
ATOM     16  C   UNL     1       1.429   8.702  19.517  0.00  0.00    +0.000 C 
ATOM     17  O   UNL     1       1.830   8.615  18.357  0.00  0.00    +0.000 OA
ATOM     18  N   UNL     1       1.707   7.754  20.471  0.00  0.00    +0.000 N 
ATOM     19  H   UNL     1       1.201   7.719  21.347  0.00  0.00    +0.000 HD
BRANCH  18  20
ATOM     20  C   UNL     1       2.468   6.570  20.119  0.00  0.00    +0.000 C 
BRANCH  20  21
ATOM     21  C   UNL     1       1.737   5.268  20.488  0.00  0.00    +0.000 C 
BRANCH  21  22
ATOM     22  N   UNL     1       2.055   4.111  19.611  0.00  0.00    +0.000 NA
ATOM     23  C   UNL     1       1.973   4.505  18.191  0.00  0.00    +0.000 C 
ATOM     24  C   UNL     1       2.506   3.444  17.223  0.00  0.00    +0.000 C 
ATOM     25  C   UNL     1       3.952   3.029  17.557  0.00  0.00    +0.000 C 
ATOM     26  C   UNL     1       3.899   2.522  19.012  0.00  0.00    +0.000 C 
ATOM     27  C   UNL     1       3.398   3.610  19.965  0.00  0.00    +0.000 C 
BRANCH  25  28
ATOM     28  C   UNL     1       5.028   4.089  17.284  0.00  0.00    +0.000 A 
ATOM     29  C   UNL     1       5.046   4.819  16.080  0.00  0.00    +0.000 A 
ATOM     30  C   UNL     1       6.029   5.777  15.816  0.00  0.00    +0.000 A 
ATOM     31  C   UNL     1       7.004   6.056  16.766  0.00  0.00    +0.000 A 
ATOM     32  C   UNL     1       6.980   5.388  17.986  0.00  0.00    +0.000 A 
ATOM     33  C   UNL     1       5.999   4.425  18.245  0.00  0.00    +0.000 A 
ENDBRANCH  25  28
ENDBRANCH  21  22
ENDBRANCH  20  21
ENDBRANCH  18  20
ENDBRANCH   9  16
BRANCH   1  35
ATOM     34  C   UNL     1      -7.917  14.610  19.921  0.00  0.00    +0.000 C 
ATOM     35  C   UNL     1      -7.036  13.770  18.993  0.00  0.00    +0.000 C 
ATOM     36  C   UNL     1      -7.021  14.346  17.578  0.00  0.00    +0.000 C 
ENDBRANCH   1  35
TORSDOF 6
ENDMDL
