MODEL 1
REMARK VINA RESULT:      -7.2      0.000      0.000
REMARK  Name = 
REMARK  14 active torsions:
REMARK  status: ('A' for Active; 'I' for Inactive)
REMARK    1  A    between atoms: C_1  and  C_2
REMARK    2  A    between atoms: C_2  and  N_3
REMARK    3  A    between atoms: N_3  and  C_4
REMARK    4  A    between atoms: N_3  and  C_6
REMARK    5  A    between atoms: C_4  and  C_5
REMARK    6  A    between atoms: C_6  and  C_7
REMARK    7  A    between atoms: C_7  and  N_8
REMARK    8  A    between atoms: C_9  and  C_11
REMARK    9  A    between atoms: C_15  and  N_16
REMARK   10  A    between atoms: C_17  and  C_19
REMARK   11  A    between atoms: C_19  and  O_20
REMARK   12  A    between atoms: O_20  and  C_21
REMARK   13  A    between atoms: C_29  and  O_30
REMARK   14  A    between atoms: O_30  and  C_31
REMARK                            x       y       z     vdW  Elec       q    Type
REMARK                         _______ _______ _______ _____ _____    ______ ____
ROOT
ATOM      1  C   UNL     1       2.734   6.115  19.408  0.00  0.00    +0.000 A 
ATOM      2  C   UNL     1       2.498   7.426  18.931  0.00  0.00    +0.000 A 
ATOM      3  C   UNL     1       1.624   8.276  19.587  0.00  0.00    +0.000 A 
ATOM      4 CL   UNL     1       1.386   9.871  18.965  0.00  0.00    +0.000 Cl
ATOM      5  C   UNL     1       0.997   7.858  20.760  0.00  0.00    +0.000 A 
ATOM      6  C   UNL     1       1.249   6.578  21.266  0.00  0.00    +0.000 A 
ATOM      7  C   UNL     1       2.091   5.678  20.583  0.00  0.00    +0.000 A 
ENDROOT
BRANCH   1   9
ATOM      8  N   UNL     1       4.898   4.966  19.038  0.00  0.00    +0.000 N 
ATOM      9  C   UNL     1       3.651   5.297  18.559  0.00  0.00    +0.000 C 
ATOM     10  O   UNL     1       3.283   4.973  17.430  0.00  0.00    +0.000 OA
ATOM     11  H   UNL     1       5.108   5.070  20.027  0.00  0.00    +0.000 HD
BRANCH   8  12
ATOM     12  C   UNL     1       5.821   4.241  18.183  0.00  0.00    +0.000 C 
BRANCH  12  13
ATOM     13  C   UNL     1       7.220   4.876  18.078  0.00  0.00    +0.000 C 
BRANCH  13  14
ATOM     14  N   UNL     1       7.400   5.835  16.963  0.00  0.00    +0.000 NA
BRANCH  14  16
ATOM     15  C   UNL     1       5.524   5.888  15.281  0.00  0.00    +0.000 C 
ATOM     16  C   UNL     1       6.865   5.298  15.700  0.00  0.00    +0.000 C 
ENDBRANCH  14  16
BRANCH  14  17
ATOM     17  C   UNL     1       6.873   7.165  17.319  0.00  0.00    +0.000 C 
ATOM     18  C   UNL     1       7.898   8.242  17.675  0.00  0.00    +0.000 C 
ENDBRANCH  14  17
ENDBRANCH  13  14
ENDBRANCH  12  13
ENDBRANCH   8  12
ENDBRANCH   1   9
BRANCH   5  19
ATOM     19  N   UNL     1       0.018   8.653  21.403  0.00  0.00    +0.000 N 
ATOM     20  C   UNL     1       0.388   9.451  22.484  0.00  0.00    +0.000 C 
ATOM     21  O   UNL     1       1.526   9.512  22.942  0.00  0.00    +0.000 OA
ATOM     22  H   UNL     1      -0.634   9.116  20.775  0.00  0.00    +0.000 HD
BRANCH  20  23
ATOM     23  C   UNL     1      -0.776  10.230  23.090  0.00  0.00    +0.000 C 
BRANCH  23  24
ATOM     24  O   UNL     1      -0.406  11.599  22.955  0.00  0.00    +0.000 OA
BRANCH  24  25
ATOM     25  C   UNL     1      -1.363  12.551  23.135  0.00  0.00    +0.000 A 
ATOM     26  C   UNL     1      -1.158  13.928  23.221  0.00  0.00    +0.000 A 
ATOM     27  C   UNL     1      -2.254  14.788  23.382  0.00  0.00    +0.000 A 
ATOM     28  C   UNL     1      -3.545  14.267  23.464  0.00  0.00    +0.000 A 
ATOM     29 CL   UNL     1      -4.888  15.325  23.645  0.00  0.00    +0.000 Cl
ATOM     30  C   UNL     1      -3.755  12.892  23.393  0.00  0.00    +0.000 A 
ATOM     31  C   UNL     1      -2.662  12.041  23.228  0.00  0.00    +0.000 A 
ENDBRANCH  24  25
ENDBRANCH  23  24
ENDBRANCH  20  23
ENDBRANCH   5  19
BRANCH   7  32
ATOM     32  O   UNL     1       2.304   4.390  21.006  0.00  0.00    +0.000 OA
ATOM     33  C   UNL     1       1.269   3.451  20.709  0.00  0.00    +0.000 C 
ENDBRANCH   7  32
TORSDOF 11
ENDMDL
MODEL 2
REMARK VINA RESULT:      -7.2      3.852     10.101
REMARK  Name = 
REMARK  14 active torsions:
REMARK  status: ('A' for Active; 'I' for Inactive)
REMARK    1  A    between atoms: C_1  and  C_2
REMARK    2  A    between atoms: C_2  and  N_3
REMARK    3  A    between atoms: N_3  and  C_4
REMARK    4  A    between atoms: N_3  and  C_6
REMARK    5  A    between atoms: C_4  and  C_5
REMARK    6  A    between atoms: C_6  and  C_7
REMARK    7  A    between atoms: C_7  and  N_8
REMARK    8  A    between atoms: C_9  and  C_11
REMARK    9  A    between atoms: C_15  and  N_16
REMARK   10  A    between atoms: C_17  and  C_19
REMARK   11  A    between atoms: C_19  and  O_20
REMARK   12  A    between atoms: O_20  and  C_21
REMARK   13  A    between atoms: C_29  and  O_30
REMARK   14  A    between atoms: O_30  and  C_31
REMARK                            x       y       z     vdW  Elec       q    Type
REMARK                         _______ _______ _______ _____ _____    ______ ____
ROOT
ATOM      1  C   UNL     1       1.206   9.359  19.280  0.00  0.00    +0.000 A 
ATOM      2  C   UNL     1       1.956   8.855  18.191  0.00  0.00    +0.000 A 
ATOM      3  C   UNL     1       2.708   7.700  18.318  0.00  0.00    +0.000 A 
ATOM      4 CL   UNL     1       3.594   7.125  16.950  0.00  0.00    +0.000 Cl
ATOM      5  C   UNL     1       2.695   6.991  19.519  0.00  0.00    +0.000 A 
ATOM      6  C   UNL     1       1.928   7.454  20.593  0.00  0.00    +0.000 A 
ATOM      7  C   UNL     1       1.202   8.658  20.502  0.00  0.00    +0.000 A 
ENDROOT
BRANCH   1   9
ATOM      8  N   UNL     1      -0.797  10.622  18.551  0.00  0.00    +0.000 N 
ATOM      9  C   UNL     1       0.500  10.647  19.008  0.00  0.00    +0.000 C 
ATOM     10  O   UNL     1       1.113  11.703  19.163  0.00  0.00    +0.000 OA
ATOM     11  H   UNL     1      -1.344   9.768  18.616  0.00  0.00    +0.000 HD
BRANCH   8  12
ATOM     12  C   UNL     1      -1.458  11.869  18.210  0.00  0.00    +0.000 C 
BRANCH  12  13
ATOM     13  C   UNL     1      -2.975  11.877  18.475  0.00  0.00    +0.000 C 
BRANCH  13  14
ATOM     14  N   UNL     1      -3.771  10.949  17.638  0.00  0.00    +0.000 NA
BRANCH  14  16
ATOM     15  C   UNL     1      -5.895  12.249  17.247  0.00  0.00    +0.000 C 
ATOM     16  C   UNL     1      -5.210  11.067  17.924  0.00  0.00    +0.000 C 
ENDBRANCH  14  16
BRANCH  14  17
ATOM     17  C   UNL     1      -3.429  11.100  16.211  0.00  0.00    +0.000 C 
ATOM     18  C   UNL     1      -3.037   9.829  15.456  0.00  0.00    +0.000 C 
ENDBRANCH  14  17
ENDBRANCH  13  14
ENDBRANCH  12  13
ENDBRANCH   8  12
ENDBRANCH   1   9
BRANCH   5  19
ATOM     19  N   UNL     1       3.528   5.866  19.726  0.00  0.00    +0.000 N 
ATOM     20  C   UNL     1       3.073   4.600  19.359  0.00  0.00    +0.000 C 
ATOM     21  O   UNL     1       1.970   4.379  18.866  0.00  0.00    +0.000 OA
ATOM     22  H   UNL     1       4.508   6.013  19.499  0.00  0.00    +0.000 HD
BRANCH  20  23
ATOM     23  C   UNL     1       4.067   3.484  19.665  0.00  0.00    +0.000 C 
BRANCH  23  24
ATOM     24  O   UNL     1       5.338   4.026  19.324  0.00  0.00    +0.000 OA
BRANCH  24  25
ATOM     25  C   UNL     1       5.658   4.153  18.006  0.00  0.00    +0.000 A 
ATOM     26  C   UNL     1       4.854   3.808  16.920  0.00  0.00    +0.000 A 
ATOM     27  C   UNL     1       5.315   4.024  15.613  0.00  0.00    +0.000 A 
ATOM     28  C   UNL     1       6.579   4.576  15.401  0.00  0.00    +0.000 A 
ATOM     29 CL   UNL     1       7.135   4.854  13.798  0.00  0.00    +0.000 Cl
ATOM     30  C   UNL     1       7.391   4.910  16.481  0.00  0.00    +0.000 A 
ATOM     31  C   UNL     1       6.927   4.697  17.779  0.00  0.00    +0.000 A 
ENDBRANCH  24  25
ENDBRANCH  23  24
ENDBRANCH  20  23
ENDBRANCH   5  19
BRANCH   7  32
ATOM     32  O   UNL     1       0.498   9.186  21.556  0.00  0.00    +0.000 OA
ATOM     33  C   UNL     1      -0.729   8.531  21.885  0.00  0.00    +0.000 C 
ENDBRANCH   7  32
TORSDOF 11
ENDMDL
MODEL 3
REMARK VINA RESULT:      -7.1      3.364     10.442
REMARK  Name = 
REMARK  14 active torsions:
REMARK  status: ('A' for Active; 'I' for Inactive)
REMARK    1  A    between atoms: C_1  and  C_2
REMARK    2  A    between atoms: C_2  and  N_3
REMARK    3  A    between atoms: N_3  and  C_4
REMARK    4  A    between atoms: N_3  and  C_6
REMARK    5  A    between atoms: C_4  and  C_5
REMARK    6  A    between atoms: C_6  and  C_7
REMARK    7  A    between atoms: C_7  and  N_8
REMARK    8  A    between atoms: C_9  and  C_11
REMARK    9  A    between atoms: C_15  and  N_16
REMARK   10  A    between atoms: C_17  and  C_19
REMARK   11  A    between atoms: C_19  and  O_20
REMARK   12  A    between atoms: O_20  and  C_21
REMARK   13  A    between atoms: C_29  and  O_30
REMARK   14  A    between atoms: O_30  and  C_31
REMARK                            x       y       z     vdW  Elec       q    Type
REMARK                         _______ _______ _______ _____ _____    ______ ____
ROOT
ATOM      1  C   UNL     1       0.530   9.584  19.641  0.00  0.00    +0.000 A 
ATOM      2  C   UNL     1       1.404   9.241  18.583  0.00  0.00    +0.000 A 
ATOM      3  C   UNL     1       2.237   8.139  18.676  0.00  0.00    +0.000 A 
ATOM      4 CL   UNL     1       3.274   7.761  17.346  0.00  0.00    +0.000 Cl
ATOM      5  C   UNL     1       2.188   7.324  19.807  0.00  0.00    +0.000 A 
ATOM      6  C   UNL     1       1.302   7.627  20.846  0.00  0.00    +0.000 A 
ATOM      7  C   UNL     1       0.487   8.776  20.795  0.00  0.00    +0.000 A 
ENDROOT
BRANCH   1   9
ATOM      8  N   UNL     1      -1.528  10.747  18.899  0.00  0.00    +0.000 N 
ATOM      9  C   UNL     1      -0.257  10.834  19.420  0.00  0.00    +0.000 C 
ATOM     10  O   UNL     1       0.267  11.918  19.674  0.00  0.00    +0.000 OA
ATOM     11  H   UNL     1      -2.012   9.854  18.880  0.00  0.00    +0.000 HD
BRANCH   8  12
ATOM     12  C   UNL     1      -2.264  11.965  18.608  0.00  0.00    +0.000 C 
BRANCH  12  13
ATOM     13  C   UNL     1      -3.662  11.732  18.006  0.00  0.00    +0.000 C 
BRANCH  13  14
ATOM     14  N   UNL     1      -4.769  11.645  18.987  0.00  0.00    +0.000 NA
BRANCH  14  16
ATOM     15  C   UNL     1      -5.032  12.640  21.287  0.00  0.00    +0.000 C 
ATOM     16  C   UNL     1      -4.875  12.875  19.789  0.00  0.00    +0.000 C 
ENDBRANCH  14  16
BRANCH  14  17
ATOM     17  C   UNL     1      -6.028  11.247  18.329  0.00  0.00    +0.000 C 
ATOM     18  C   UNL     1      -6.881  10.200  19.045  0.00  0.00    +0.000 C 
ENDBRANCH  14  17
ENDBRANCH  13  14
ENDBRANCH  12  13
ENDBRANCH   8  12
ENDBRANCH   1   9
BRANCH   5  19
ATOM     19  N   UNL     1       3.093   6.252  19.989  0.00  0.00    +0.000 N 
ATOM     20  C   UNL     1       2.796   5.005  19.441  0.00  0.00    +0.000 C 
ATOM     21  O   UNL     1       1.776   4.755  18.803  0.00  0.00    +0.000 OA
ATOM     22  H   UNL     1       4.075   6.501  19.893  0.00  0.00    +0.000 HD
BRANCH  20  23
ATOM     23  C   UNL     1       3.849   3.943  19.740  0.00  0.00    +0.000 C 
BRANCH  23  24
ATOM     24  O   UNL     1       5.091   4.562  19.421  0.00  0.00    +0.000 OA
BRANCH  24  25
ATOM     25  C   UNL     1       5.502   4.562  18.122  0.00  0.00    +0.000 A 
ATOM     26  C   UNL     1       4.896   3.891  17.060  0.00  0.00    +0.000 A 
ATOM     27  C   UNL     1       5.426   4.009  15.767  0.00  0.00    +0.000 A 
ATOM     28  C   UNL     1       6.560   4.791  15.545  0.00  0.00    +0.000 A 
ATOM     29 CL   UNL     1       7.197   4.947  13.956  0.00  0.00    +0.000 Cl
ATOM     30  C   UNL     1       7.177   5.452  16.603  0.00  0.00    +0.000 A 
ATOM     31  C   UNL     1       6.645   5.334  17.888  0.00  0.00    +0.000 A 
ENDBRANCH  24  25
ENDBRANCH  23  24
ENDBRANCH  20  23
ENDBRANCH   5  19
BRANCH   7  32
ATOM     32  O   UNL     1      -0.340   9.149  21.825  0.00  0.00    +0.000 OA
ATOM     33  C   UNL     1       0.300   9.458  23.065  0.00  0.00    +0.000 C 
ENDBRANCH   7  32
TORSDOF 11
ENDMDL
MODEL 4
REMARK VINA RESULT:      -6.9      3.058     10.244
REMARK  Name = 
REMARK  14 active torsions:
REMARK  status: ('A' for Active; 'I' for Inactive)
REMARK    1  A    between atoms: C_1  and  C_2
REMARK    2  A    between atoms: C_2  and  N_3
REMARK    3  A    between atoms: N_3  and  C_4
REMARK    4  A    between atoms: N_3  and  C_6
REMARK    5  A    between atoms: C_4  and  C_5
REMARK    6  A    between atoms: C_6  and  C_7
REMARK    7  A    between atoms: C_7  and  N_8
REMARK    8  A    between atoms: C_9  and  C_11
REMARK    9  A    between atoms: C_15  and  N_16
REMARK   10  A    between atoms: C_17  and  C_19
REMARK   11  A    between atoms: C_19  and  O_20
REMARK   12  A    between atoms: O_20  and  C_21
REMARK   13  A    between atoms: C_29  and  O_30
REMARK   14  A    between atoms: O_30  and  C_31
REMARK                            x       y       z     vdW  Elec       q    Type
REMARK                         _______ _______ _______ _____ _____    ______ ____
ROOT
ATOM      1  C   UNL     1       0.649   9.710  19.601  0.00  0.00    +0.000 A 
ATOM      2  C   UNL     1       1.523   9.330  18.555  0.00  0.00    +0.000 A 
ATOM      3  C   UNL     1       2.291   8.183  18.651  0.00  0.00    +0.000 A 
ATOM      4 CL   UNL     1       3.331   7.762  17.336  0.00  0.00    +0.000 Cl
ATOM      5  C   UNL     1       2.176   7.361  19.771  0.00  0.00    +0.000 A 
ATOM      6  C   UNL     1       1.288   7.701  20.797  0.00  0.00    +0.000 A 
ATOM      7  C   UNL     1       0.539   8.894  20.744  0.00  0.00    +0.000 A 
ENDROOT
BRANCH   1   9
ATOM      8  N   UNL     1      -1.400  11.100  19.693  0.00  0.00    +0.000 N 
ATOM      9  C   UNL     1      -0.064  11.004  19.380  0.00  0.00    +0.000 C 
ATOM     10  O   UNL     1       0.555  11.945  18.884  0.00  0.00    +0.000 OA
ATOM     11  H   UNL     1      -1.841  10.391  20.274  0.00  0.00    +0.000 HD
BRANCH   8  12
ATOM     12  C   UNL     1      -2.115  12.331  19.404  0.00  0.00    +0.000 C 
BRANCH  12  13
ATOM     13  C   UNL     1      -2.215  13.301  20.595  0.00  0.00    +0.000 C 
BRANCH  13  14
ATOM     14  N   UNL     1      -3.493  13.260  21.343  0.00  0.00    +0.000 NA
BRANCH  14  16
ATOM     15  C   UNL     1      -5.592  13.918  20.113  0.00  0.00    +0.000 C 
ATOM     16  C   UNL     1      -4.604  12.818  20.484  0.00  0.00    +0.000 C 
ENDBRANCH  14  16
BRANCH  14  17
ATOM     17  C   UNL     1      -3.352  12.484  22.589  0.00  0.00    +0.000 C 
ATOM     18  C   UNL     1      -1.942  12.343  23.161  0.00  0.00    +0.000 C 
ENDBRANCH  14  17
ENDBRANCH  13  14
ENDBRANCH  12  13
ENDBRANCH   8  12
ENDBRANCH   1   9
BRANCH   5  19
ATOM     19  N   UNL     1       3.016   6.237  19.958  0.00  0.00    +0.000 N 
ATOM     20  C   UNL     1       2.707   5.037  19.320  0.00  0.00    +0.000 C 
ATOM     21  O   UNL     1       1.728   4.871  18.597  0.00  0.00    +0.000 OA
ATOM     22  H   UNL     1       4.013   6.444  19.948  0.00  0.00    +0.000 HD
BRANCH  20  23
ATOM     23  C   UNL     1       3.687   3.911  19.635  0.00  0.00    +0.000 C 
BRANCH  23  24
ATOM     24  O   UNL     1       4.975   4.511  19.535  0.00  0.00    +0.000 OA
BRANCH  24  25
ATOM     25  C   UNL     1       5.508   4.700  18.296  0.00  0.00    +0.000 A 
ATOM     26  C   UNL     1       6.493   5.625  17.949  0.00  0.00    +0.000 A 
ATOM     27  C   UNL     1       6.961   5.683  16.628  0.00  0.00    +0.000 A 
ATOM     28  C   UNL     1       6.438   4.823  15.662  0.00  0.00    +0.000 A 
ATOM     29 CL   UNL     1       7.026   4.886  14.048  0.00  0.00    +0.000 Cl
ATOM     30  C   UNL     1       5.446   3.908  16.000  0.00  0.00    +0.000 A 
ATOM     31  C   UNL     1       4.985   3.851  17.316  0.00  0.00    +0.000 A 
ENDBRANCH  24  25
ENDBRANCH  23  24
ENDBRANCH  20  23
ENDBRANCH   5  19
BRANCH   7  32
ATOM     32  O   UNL     1      -0.285   9.302  21.763  0.00  0.00    +0.000 OA
ATOM     33  C   UNL     1       0.328   9.458  23.045  0.00  0.00    +0.000 C 
ENDBRANCH   7  32
TORSDOF 11
ENDMDL
MODEL 5
REMARK VINA RESULT:      -6.9      3.686      9.806
REMARK  Name = 
REMARK  14 active torsions:
REMARK  status: ('A' for Active; 'I' for Inactive)
REMARK    1  A    between atoms: C_1  and  C_2
REMARK    2  A    between atoms: C_2  and  N_3
REMARK    3  A    between atoms: N_3  and  C_4
REMARK    4  A    between atoms: N_3  and  C_6
REMARK    5  A    between atoms: C_4  and  C_5
REMARK    6  A    between atoms: C_6  and  C_7
REMARK    7  A    between atoms: C_7  and  N_8
REMARK    8  A    between atoms: C_9  and  C_11
REMARK    9  A    between atoms: C_15  and  N_16
REMARK   10  A    between atoms: C_17  and  C_19
REMARK   11  A    between atoms: C_19  and  O_20
REMARK   12  A    between atoms: O_20  and  C_21
REMARK   13  A    between atoms: C_29  and  O_30
REMARK   14  A    between atoms: O_30  and  C_31
REMARK                            x       y       z     vdW  Elec       q    Type
REMARK                         _______ _______ _______ _____ _____    ______ ____
ROOT
ATOM      1  C   UNL     1       0.448  10.020  19.691  0.00  0.00    +0.000 A 
ATOM      2  C   UNL     1       1.232   9.430  18.672  0.00  0.00    +0.000 A 
ATOM      3  C   UNL     1       1.928   8.255  18.899  0.00  0.00    +0.000 A 
ATOM      4 CL   UNL     1       2.859   7.574  17.612  0.00  0.00    +0.000 Cl
ATOM      5  C   UNL     1       1.823   7.613  20.132  0.00  0.00    +0.000 A 
ATOM      6  C   UNL     1       1.021   8.162  21.138  0.00  0.00    +0.000 A 
ATOM      7  C   UNL     1       0.351   9.387  20.946  0.00  0.00    +0.000 A 
ENDROOT
BRANCH   1   9
ATOM      8  N   UNL     1       0.152  12.460  20.004  0.00  0.00    +0.000 N 
ATOM      9  C   UNL     1      -0.189  11.318  19.316  0.00  0.00    +0.000 C 
ATOM     10  O   UNL     1      -1.036  11.327  18.423  0.00  0.00    +0.000 OA
ATOM     11  H   UNL     1       0.980  12.473  20.593  0.00  0.00    +0.000 HD
BRANCH   8  12
ATOM     12  C   UNL     1      -0.525  13.708  19.696  0.00  0.00    +0.000 C 
BRANCH  12  13
ATOM     13  C   UNL     1       0.210  14.592  18.672  0.00  0.00    +0.000 C 
BRANCH  13  14
ATOM     14  N   UNL     1       0.291  16.030  19.017  0.00  0.00    +0.000 NA
BRANCH  14  16
ATOM     15  C   UNL     1       2.316  16.968  17.844  0.00  0.00    +0.000 C 
ATOM     16  C   UNL     1       1.689  16.474  19.144  0.00  0.00    +0.000 C 
ENDBRANCH  14  16
BRANCH  14  17
ATOM     17  C   UNL     1      -0.515  16.843  18.087  0.00  0.00    +0.000 C 
ATOM     18  C   UNL     1      -1.498  17.834  18.709  0.00  0.00    +0.000 C 
ENDBRANCH  14  17
ENDBRANCH  13  14
ENDBRANCH  12  13
ENDBRANCH   8  12
ENDBRANCH   1   9
BRANCH   5  19
ATOM     19  N   UNL     1       2.597   6.469  20.442  0.00  0.00    +0.000 N 
ATOM     20  C   UNL     1       1.986   5.216  20.468  0.00  0.00    +0.000 C 
ATOM     21  O   UNL     1       0.793   5.024  20.247  0.00  0.00    +0.000 OA
ATOM     22  H   UNL     1       3.519   6.449  20.013  0.00  0.00    +0.000 HD
BRANCH  20  23
ATOM     23  C   UNL     1       2.938   4.084  20.840  0.00  0.00    +0.000 C 
BRANCH  23  24
ATOM     24  O   UNL     1       3.136   3.362  19.629  0.00  0.00    +0.000 OA
BRANCH  24  25
ATOM     25  C   UNL     1       4.103   3.788  18.769  0.00  0.00    +0.000 A 
ATOM     26  C   UNL     1       5.338   4.336  19.115  0.00  0.00    +0.000 A 
ATOM     27  C   UNL     1       6.243   4.706  18.109  0.00  0.00    +0.000 A 
ATOM     28  C   UNL     1       5.906   4.532  16.767  0.00  0.00    +0.000 A 
ATOM     29 CL   UNL     1       7.024   4.971  15.537  0.00  0.00    +0.000 Cl
ATOM     30  C   UNL     1       4.669   3.998  16.416  0.00  0.00    +0.000 A 
ATOM     31  C   UNL     1       3.773   3.628  17.420  0.00  0.00    +0.000 A 
ENDBRANCH  24  25
ENDBRANCH  23  24
ENDBRANCH  20  23
ENDBRANCH   5  19
BRANCH   7  32
ATOM     32  O   UNL     1      -0.384   9.997  21.932  0.00  0.00    +0.000 OA
ATOM     33  C   UNL     1      -0.163   9.527  23.263  0.00  0.00    +0.000 C 
ENDBRANCH   7  32
TORSDOF 11
ENDMDL
MODEL 6
REMARK VINA RESULT:      -6.8      1.108      1.215
REMARK  Name = 
REMARK  14 active torsions:
REMARK  status: ('A' for Active; 'I' for Inactive)
REMARK    1  A    between atoms: C_1  and  C_2
REMARK    2  A    between atoms: C_2  and  N_3
REMARK    3  A    between atoms: N_3  and  C_4
REMARK    4  A    between atoms: N_3  and  C_6
REMARK    5  A    between atoms: C_4  and  C_5
REMARK    6  A    between atoms: C_6  and  C_7
REMARK    7  A    between atoms: C_7  and  N_8
REMARK    8  A    between atoms: C_9  and  C_11
REMARK    9  A    between atoms: C_15  and  N_16
REMARK   10  A    between atoms: C_17  and  C_19
REMARK   11  A    between atoms: C_19  and  O_20
REMARK   12  A    between atoms: O_20  and  C_21
REMARK   13  A    between atoms: C_29  and  O_30
REMARK   14  A    between atoms: O_30  and  C_31
REMARK                            x       y       z     vdW  Elec       q    Type
REMARK                         _______ _______ _______ _____ _____    ______ ____
ROOT
ATOM      1  C   UNL     1       2.828   6.332  19.061  0.00  0.00    +0.000 A 
ATOM      2  C   UNL     1       2.664   7.589  18.434  0.00  0.00    +0.000 A 
ATOM      3  C   UNL     1       1.875   8.572  19.005  0.00  0.00    +0.000 A 
ATOM      4 CL   UNL     1       1.723  10.094  18.200  0.00  0.00    +0.000 Cl
ATOM      5  C   UNL     1       1.265   8.344  20.238  0.00  0.00    +0.000 A 
ATOM      6  C   UNL     1       1.448   7.121  20.890  0.00  0.00    +0.000 A 
ATOM      7  C   UNL     1       2.201   6.087  20.299  0.00  0.00    +0.000 A 
ENDROOT
BRANCH   1   9
ATOM      8  N   UNL     1       4.947   5.102  18.693  0.00  0.00    +0.000 N 
ATOM      9  C   UNL     1       3.656   5.354  18.292  0.00  0.00    +0.000 C 
ATOM     10  O   UNL     1       3.173   4.826  17.291  0.00  0.00    +0.000 OA
ATOM     11  H   UNL     1       5.260   5.389  19.617  0.00  0.00    +0.000 HD
BRANCH   8  12
ATOM     12  C   UNL     1       5.780   4.214  17.901  0.00  0.00    +0.000 C 
BRANCH  12  13
ATOM     13  C   UNL     1       7.145   4.807  17.509  0.00  0.00    +0.000 C 
BRANCH  13  14
ATOM     14  N   UNL     1       7.112   5.814  16.423  0.00  0.00    +0.000 NA
BRANCH  14  16
ATOM     15  C   UNL     1       6.613   4.441  14.370  0.00  0.00    +0.000 C 
ATOM     16  C   UNL     1       6.123   5.461  15.391  0.00  0.00    +0.000 C 
ENDBRANCH  14  16
BRANCH  14  17
ATOM     17  C   UNL     1       6.950   7.175  16.969  0.00  0.00    +0.000 C 
ATOM     18  C   UNL     1       7.939   7.609  18.050  0.00  0.00    +0.000 C 
ENDBRANCH  14  17
ENDBRANCH  13  14
ENDBRANCH  12  13
ENDBRANCH   8  12
ENDBRANCH   1   9
BRANCH   5  19
ATOM     19  N   UNL     1       0.367   9.279  20.807  0.00  0.00    +0.000 N 
ATOM     20  C   UNL     1       0.651   9.829  22.056  0.00  0.00    +0.000 C 
ATOM     21  O   UNL     1       1.643   9.548  22.725  0.00  0.00    +0.000 OA
ATOM     22  H   UNL     1      -0.009   9.962  20.153  0.00  0.00    +0.000 HD
BRANCH  20  23
ATOM     23  C   UNL     1      -0.417  10.799  22.550  0.00  0.00    +0.000 C 
BRANCH  23  24
ATOM     24  O   UNL     1      -1.075  11.247  21.370  0.00  0.00    +0.000 OA
BRANCH  24  25
ATOM     25  C   UNL     1      -2.125  12.106  21.498  0.00  0.00    +0.000 A 
ATOM     26  C   UNL     1      -2.716  12.852  20.479  0.00  0.00    +0.000 A 
ATOM     27  C   UNL     1      -3.814  13.677  20.765  0.00  0.00    +0.000 A 
ATOM     28  C   UNL     1      -4.308  13.757  22.067  0.00  0.00    +0.000 A 
ATOM     29 CL   UNL     1      -5.663  14.757  22.411  0.00  0.00    +0.000 Cl
ATOM     30  C   UNL     1      -3.713  13.025  23.091  0.00  0.00    +0.000 A 
ATOM     31  C   UNL     1      -2.624  12.203  22.802  0.00  0.00    +0.000 A 
ENDBRANCH  24  25
ENDBRANCH  23  24
ENDBRANCH  20  23
ENDBRANCH   5  19
BRANCH   7  32
ATOM     32  O   UNL     1       2.342   4.846  20.870  0.00  0.00    +0.000 OA
ATOM     33  C   UNL     1       1.275   3.924  20.641  0.00  0.00    +0.000 C 
ENDBRANCH   7  32
TORSDOF 11
ENDMDL
MODEL 7
REMARK VINA RESULT:      -6.8      3.098     10.438
REMARK  Name = 
REMARK  14 active torsions:
REMARK  status: ('A' for Active; 'I' for Inactive)
REMARK    1  A    between atoms: C_1  and  C_2
REMARK    2  A    between atoms: C_2  and  N_3
REMARK    3  A    between atoms: N_3  and  C_4
REMARK    4  A    between atoms: N_3  and  C_6
REMARK    5  A    between atoms: C_4  and  C_5
REMARK    6  A    between atoms: C_6  and  C_7
REMARK    7  A    between atoms: C_7  and  N_8
REMARK    8  A    between atoms: C_9  and  C_11
REMARK    9  A    between atoms: C_15  and  N_16
REMARK   10  A    between atoms: C_17  and  C_19
REMARK   11  A    between atoms: C_19  and  O_20
REMARK   12  A    between atoms: O_20  and  C_21
REMARK   13  A    between atoms: C_29  and  O_30
REMARK   14  A    between atoms: O_30  and  C_31
REMARK                            x       y       z     vdW  Elec       q    Type
REMARK                         _______ _______ _______ _____ _____    ______ ____
ROOT
ATOM      1  C   UNL     1       0.387   9.630  19.987  0.00  0.00    +0.000 A 
ATOM      2  C   UNL     1       1.256   9.370  18.902  0.00  0.00    +0.000 A 
ATOM      3  C   UNL     1       2.092   8.266  18.907  0.00  0.00    +0.000 A 
ATOM      4 CL   UNL     1       3.123   7.993  17.547  0.00  0.00    +0.000 Cl
ATOM      5  C   UNL     1       2.051   7.369  19.974  0.00  0.00    +0.000 A 
ATOM      6  C   UNL     1       1.169   7.590  21.037  0.00  0.00    +0.000 A 
ATOM      7  C   UNL     1       0.351   8.737  21.077  0.00  0.00    +0.000 A 
ENDROOT
BRANCH   1   9
ATOM      8  N   UNL     1      -1.554  10.895  19.110  0.00  0.00    +0.000 N 
ATOM      9  C   UNL     1      -0.405  10.891  19.865  0.00  0.00    +0.000 C 
ATOM     10  O   UNL     1       0.014  11.909  20.414  0.00  0.00    +0.000 OA
ATOM     11  H   UNL     1      -1.985  10.017  18.831  0.00  0.00    +0.000 HD
BRANCH   8  12
ATOM     12  C   UNL     1      -2.282  12.138  18.923  0.00  0.00    +0.000 C 
BRANCH  12  13
ATOM     13  C   UNL     1      -3.800  12.026  19.155  0.00  0.00    +0.000 C 
BRANCH  13  14
ATOM     14  N   UNL     1      -4.290  12.583  20.437  0.00  0.00    +0.000 NA
BRANCH  14  16
ATOM     15  C   UNL     1      -2.866  12.434  22.512  0.00  0.00    +0.000 C 
ATOM     16  C   UNL     1      -3.193  13.176  21.220  0.00  0.00    +0.000 C 
ENDBRANCH  14  16
BRANCH  14  17
ATOM     17  C   UNL     1      -5.430  13.493  20.217  0.00  0.00    +0.000 C 
ATOM     18  C   UNL     1      -5.820  14.404  21.380  0.00  0.00    +0.000 C 
ENDBRANCH  14  17
ENDBRANCH  13  14
ENDBRANCH  12  13
ENDBRANCH   8  12
ENDBRANCH   1   9
BRANCH   5  19
ATOM     19  N   UNL     1       2.959   6.288  20.070  0.00  0.00    +0.000 N 
ATOM     20  C   UNL     1       2.616   5.054  19.520  0.00  0.00    +0.000 C 
ATOM     21  O   UNL     1       1.551   4.823  18.951  0.00  0.00    +0.000 OA
ATOM     22  H   UNL     1       3.933   6.534  19.909  0.00  0.00    +0.000 HD
BRANCH  20  23
ATOM     23  C   UNL     1       3.680   3.980  19.723  0.00  0.00    +0.000 C 
BRANCH  23  24
ATOM     24  O   UNL     1       4.917   4.644  19.482  0.00  0.00    +0.000 OA
BRANCH  24  25
ATOM     25  C   UNL     1       5.461   4.572  18.236  0.00  0.00    +0.000 A 
ATOM     26  C   UNL     1       6.810   4.713  17.910  0.00  0.00    +0.000 A 
ATOM     27  C   UNL     1       7.222   4.587  16.575  0.00  0.00    +0.000 A 
ATOM     28  C   UNL     1       6.284   4.329  15.575  0.00  0.00    +0.000 A 
ATOM     29 CL   UNL     1       6.794   4.159  13.943  0.00  0.00    +0.000 Cl
ATOM     30  C   UNL     1       4.935   4.201  15.893  0.00  0.00    +0.000 A 
ATOM     31  C   UNL     1       4.530   4.324  17.222  0.00  0.00    +0.000 A 
ENDBRANCH  24  25
ENDBRANCH  23  24
ENDBRANCH  20  23
ENDBRANCH   5  19
BRANCH   7  32
ATOM     32  O   UNL     1      -0.471   9.030  22.137  0.00  0.00    +0.000 OA
ATOM     33  C   UNL     1       0.174   9.495  23.324  0.00  0.00    +0.000 C 
ENDBRANCH   7  32
TORSDOF 11
ENDMDL
MODEL 8
REMARK VINA RESULT:      -6.8      3.820     10.101
REMARK  Name = 
REMARK  14 active torsions:
REMARK  status: ('A' for Active; 'I' for Inactive)
REMARK    1  A    between atoms: C_1  and  C_2
REMARK    2  A    between atoms: C_2  and  N_3
REMARK    3  A    between atoms: N_3  and  C_4
REMARK    4  A    between atoms: N_3  and  C_6
REMARK    5  A    between atoms: C_4  and  C_5
REMARK    6  A    between atoms: C_6  and  C_7
REMARK    7  A    between atoms: C_7  and  N_8
REMARK    8  A    between atoms: C_9  and  C_11
REMARK    9  A    between atoms: C_15  and  N_16
REMARK   10  A    between atoms: C_17  and  C_19
REMARK   11  A    between atoms: C_19  and  O_20
REMARK   12  A    between atoms: O_20  and  C_21
REMARK   13  A    between atoms: C_29  and  O_30
REMARK   14  A    between atoms: O_30  and  C_31
REMARK                            x       y       z     vdW  Elec       q    Type
REMARK                         _______ _______ _______ _____ _____    ______ ____
ROOT
ATOM      1  C   UNL     1       1.220   9.255  19.351  0.00  0.00    +0.000 A 
ATOM      2  C   UNL     1       1.959   8.789  18.238  0.00  0.00    +0.000 A 
ATOM      3  C   UNL     1       2.737   7.648  18.327  0.00  0.00    +0.000 A 
ATOM      4 CL   UNL     1       3.607   7.119  16.931  0.00  0.00    +0.000 Cl
ATOM      5  C   UNL     1       2.763   6.916  19.514  0.00  0.00    +0.000 A 
ATOM      6  C   UNL     1       2.008   7.342  20.612  0.00  0.00    +0.000 A 
ATOM      7  C   UNL     1       1.255   8.531  20.559  0.00  0.00    +0.000 A 
ENDROOT
BRANCH   1   9
ATOM      8  N   UNL     1      -0.727  10.504  18.462  0.00  0.00    +0.000 N 
ATOM      9  C   UNL     1       0.482  10.533  19.119  0.00  0.00    +0.000 C 
ATOM     10  O   UNL     1       0.994  11.589  19.488  0.00  0.00    +0.000 OA
ATOM     11  H   UNL     1      -1.221   9.624  18.341  0.00  0.00    +0.000 HD
BRANCH   8  12
ATOM     12  C   UNL     1      -1.408  11.752  18.164  0.00  0.00    +0.000 C 
BRANCH  12  13
ATOM     13  C   UNL     1      -2.873  11.803  18.635  0.00  0.00    +0.000 C 
BRANCH  13  14
ATOM     14  N   UNL     1      -3.888  11.755  17.557  0.00  0.00    +0.000 NA
BRANCH  14  16
ATOM     15  C   UNL     1      -3.394  10.704  15.320  0.00  0.00    +0.000 C 
ATOM     16  C   UNL     1      -3.788  10.508  16.780  0.00  0.00    +0.000 C 
ENDBRANCH  14  16
BRANCH  14  17
ATOM     17  C   UNL     1      -5.237  12.023  18.089  0.00  0.00    +0.000 C 
ATOM     18  C   UNL     1      -6.246  12.655  17.130  0.00  0.00    +0.000 C 
ENDBRANCH  14  17
ENDBRANCH  13  14
ENDBRANCH  12  13
ENDBRANCH   8  12
ENDBRANCH   1   9
BRANCH   5  19
ATOM     19  N   UNL     1       3.624   5.805  19.682  0.00  0.00    +0.000 N 
ATOM     20  C   UNL     1       3.194   4.540  19.286  0.00  0.00    +0.000 C 
ATOM     21  O   UNL     1       2.091   4.306  18.797  0.00  0.00    +0.000 OA
ATOM     22  H   UNL     1       4.598   5.981  19.450  0.00  0.00    +0.000 HD
BRANCH  20  23
ATOM     23  C   UNL     1       4.217   3.440  19.551  0.00  0.00    +0.000 C 
BRANCH  23  24
ATOM     24  O   UNL     1       5.482   4.071  19.386  0.00  0.00    +0.000 OA
BRANCH  24  25
ATOM     25  C   UNL     1       5.910   4.348  18.123  0.00  0.00    +0.000 A 
ATOM     26  C   UNL     1       6.947   5.211  17.769  0.00  0.00    +0.000 A 
ATOM     27  C   UNL     1       7.289   5.373  16.418  0.00  0.00    +0.000 A 
ATOM     28  C   UNL     1       6.589   4.678  15.432  0.00  0.00    +0.000 A 
ATOM     29 CL   UNL     1       7.021   4.867  13.779  0.00  0.00    +0.000 Cl
ATOM     30  C   UNL     1       5.544   3.826  15.779  0.00  0.00    +0.000 A 
ATOM     31  C   UNL     1       5.210   3.665  17.123  0.00  0.00    +0.000 A 
ENDBRANCH  24  25
ENDBRANCH  23  24
ENDBRANCH  20  23
ENDBRANCH   5  19
BRANCH   7  32
ATOM     32  O   UNL     1       0.562   9.023  21.637  0.00  0.00    +0.000 OA
ATOM     33  C   UNL     1      -0.685   8.387  21.927  0.00  0.00    +0.000 C 
ENDBRANCH   7  32
TORSDOF 11
ENDMDL
MODEL 9
REMARK VINA RESULT:      -6.8      3.223      9.805
REMARK  Name = 
REMARK  14 active torsions:
REMARK  status: ('A' for Active; 'I' for Inactive)
REMARK    1  A    between atoms: C_1  and  C_2
REMARK    2  A    between atoms: C_2  and  N_3
REMARK    3  A    between atoms: N_3  and  C_4
REMARK    4  A    between atoms: N_3  and  C_6
REMARK    5  A    between atoms: C_4  and  C_5
REMARK    6  A    between atoms: C_6  and  C_7
REMARK    7  A    between atoms: C_7  and  N_8
REMARK    8  A    between atoms: C_9  and  C_11
REMARK    9  A    between atoms: C_15  and  N_16
REMARK   10  A    between atoms: C_17  and  C_19
REMARK   11  A    between atoms: C_19  and  O_20
REMARK   12  A    between atoms: O_20  and  C_21
REMARK   13  A    between atoms: C_29  and  O_30
REMARK   14  A    between atoms: O_30  and  C_31
REMARK                            x       y       z     vdW  Elec       q    Type
REMARK                         _______ _______ _______ _____ _____    ______ ____
ROOT
ATOM      1  C   UNL     1       0.664   9.541  19.946  0.00  0.00    +0.000 A 
ATOM      2  C   UNL     1       1.543   9.012  18.972  0.00  0.00    +0.000 A 
ATOM      3  C   UNL     1       2.169   7.793  19.165  0.00  0.00    +0.000 A 
ATOM      4 CL   UNL     1       3.222   7.190  17.933  0.00  0.00    +0.000 Cl
ATOM      5  C   UNL     1       1.901   7.048  20.313  0.00  0.00    +0.000 A 
ATOM      6  C   UNL     1       1.005   7.539  21.268  0.00  0.00    +0.000 A 
ATOM      7  C   UNL     1       0.402   8.803  21.117  0.00  0.00    +0.000 A 
ENDROOT
BRANCH   1   9
ATOM      8  N   UNL     1       0.918  12.001  19.786  0.00  0.00    +0.000 N 
ATOM      9  C   UNL     1       0.117  10.894  19.625  0.00  0.00    +0.000 C 
ATOM     10  O   UNL     1      -1.054  10.988  19.259  0.00  0.00    +0.000 OA
ATOM     11  H   UNL     1       1.923  11.892  19.897  0.00  0.00    +0.000 HD
BRANCH   8  12
ATOM     12  C   UNL     1       0.364  13.323  19.552  0.00  0.00    +0.000 C 
BRANCH  12  13
ATOM     13  C   UNL     1       0.421  14.260  20.773  0.00  0.00    +0.000 C 
BRANCH  13  14
ATOM     14  N   UNL     1      -0.826  14.346  21.567  0.00  0.00    +0.000 NA
BRANCH  14  16
ATOM     15  C   UNL     1      -2.834  15.700  20.869  0.00  0.00    +0.000 C 
ATOM     16  C   UNL     1      -2.012  14.427  20.698  0.00  0.00    +0.000 C 
ENDBRANCH  14  16
BRANCH  14  17
ATOM     17  C   UNL     1      -0.890  13.266  22.570  0.00  0.00    +0.000 C 
ATOM     18  C   UNL     1      -2.134  12.378  22.552  0.00  0.00    +0.000 C 
ENDBRANCH  14  17
ENDBRANCH  13  14
ENDBRANCH  12  13
ENDBRANCH   8  12
ENDBRANCH   1   9
BRANCH   5  19
ATOM     19  N   UNL     1       2.597   5.849  20.599  0.00  0.00    +0.000 N 
ATOM     20  C   UNL     1       1.991   4.624  20.326  0.00  0.00    +0.000 C 
ATOM     21  O   UNL     1       0.864   4.501  19.852  0.00  0.00    +0.000 OA
ATOM     22  H   UNL     1       3.585   5.862  20.360  0.00  0.00    +0.000 HD
BRANCH  20  23
ATOM     23  C   UNL     1       2.848   3.422  20.710  0.00  0.00    +0.000 C 
BRANCH  23  24
ATOM     24  O   UNL     1       3.206   2.820  19.471  0.00  0.00    +0.000 OA
BRANCH  24  25
ATOM     25  C   UNL     1       4.130   3.444  18.688  0.00  0.00    +0.000 A 
ATOM     26  C   UNL     1       5.312   4.046  19.118  0.00  0.00    +0.000 A 
ATOM     27  C   UNL     1       6.179   4.629  18.183  0.00  0.00    +0.000 A 
ATOM     28  C   UNL     1       5.857   4.611  16.825  0.00  0.00    +0.000 A 
ATOM     29 CL   UNL     1       6.930   5.312  15.680  0.00  0.00    +0.000 Cl
ATOM     30  C   UNL     1       4.672   4.023  16.391  0.00  0.00    +0.000 A 
ATOM     31  C   UNL     1       3.814   3.442  17.325  0.00  0.00    +0.000 A 
ENDBRANCH  24  25
ENDBRANCH  23  24
ENDBRANCH  20  23
ENDBRANCH   5  19
BRANCH   7  32
ATOM     32  O   UNL     1      -0.423   9.354  22.066  0.00  0.00    +0.000 OA
ATOM     33  C   UNL     1       0.128   9.486  23.378  0.00  0.00    +0.000 C 
ENDBRANCH   7  32
TORSDOF 11
ENDMDL
