MODEL 1
REMARK VINA RESULT:      -7.1      0.000      0.000
REMARK  Name = 
REMARK  6 active torsions:
REMARK  status: ('A' for Active; 'I' for Inactive)
REMARK    1  A    between atoms: C_1  and  C_2
REMARK    2  A    between atoms: C_5  and  N_6
REMARK    3  A    between atoms: N_6  and  C_7
REMARK    4  A    between atoms: C_7  and  N_9
REMARK    5  A    between atoms: C_10  and  C_12
REMARK    6  A    between atoms: N_15  and  C_16
REMARK                            x       y       z     vdW  Elec       q    Type
REMARK                         _______ _______ _______ _____ _____    ______ ____
ROOT
ATOM      1  C   UNL     1       2.762   5.012  19.375  0.00  0.00    +0.000 C 
ATOM      2  S   UNL     1       1.720   3.796  19.861  0.00  0.00    +0.000 S 
ENDROOT
BRANCH   1   3
ATOM      3  N   UNL     1       3.594   4.742  18.298  0.00  0.00    +0.000 N 
ATOM      4  C   UNL     1       4.964   4.550  18.335  0.00  0.00    +0.000 C 
ATOM      5  O   UNL     1       5.576   4.401  19.394  0.00  0.00    +0.000 OA
ATOM      6  H   UNL     1       3.139   4.778  17.397  0.00  0.00    +0.000 HD
BRANCH   4   7
ATOM      7  C   UNL     1       5.671   4.482  17.066  0.00  0.00    +0.000 A 
ATOM      8  C   UNL     1       7.047   4.791  16.926  0.00  0.00    +0.000 A 
ATOM      9  N   UNL     1       7.490   4.656  15.679  0.00  0.00    +0.000 NA
ATOM     10  N   UNL     1       6.404   4.267  14.996  0.00  0.00    +0.000 N 
ATOM     11  C   UNL     1       6.524   4.038  13.575  0.00  0.00    +0.000 C 
ATOM     12  C   UNL     1       5.279   4.143  15.778  0.00  0.00    +0.000 A 
ENDBRANCH   4   7
ENDBRANCH   1   3
BRANCH   1  13
ATOM     13  N   UNL     1       2.918   6.257  19.952  0.00  0.00    +0.000 N 
ATOM     14  H   UNL     1       3.647   6.311  20.662  0.00  0.00    +0.000 HD
BRANCH  13  19
ATOM     15  C   UNL     1      -0.006  11.041  18.746  0.00  0.00    +0.000 C 
ATOM     16  C   UNL     1       0.786   9.805  19.055  0.00  0.00    +0.000 A 
ATOM     17  C   UNL     1       1.544   9.152  18.078  0.00  0.00    +0.000 A 
ATOM     18  C   UNL     1       2.252   7.982  18.397  0.00  0.00    +0.000 A 
ATOM     19  C   UNL     1       2.245   7.473  19.700  0.00  0.00    +0.000 A 
ATOM     20  C   UNL     1       1.479   8.122  20.669  0.00  0.00    +0.000 A 
ATOM     21  C   UNL     1       0.756   9.270  20.348  0.00  0.00    +0.000 A 
ENDBRANCH  13  19
ENDBRANCH   1  13
TORSDOF 4
ENDMDL
MODEL 2
REMARK VINA RESULT:      -7.1      0.314      1.147
REMARK  Name = 
REMARK  6 active torsions:
REMARK  status: ('A' for Active; 'I' for Inactive)
REMARK    1  A    between atoms: C_1  and  C_2
REMARK    2  A    between atoms: C_5  and  N_6
REMARK    3  A    between atoms: N_6  and  C_7
REMARK    4  A    between atoms: C_7  and  N_9
REMARK    5  A    between atoms: C_10  and  C_12
REMARK    6  A    between atoms: N_15  and  C_16
REMARK                            x       y       z     vdW  Elec       q    Type
REMARK                         _______ _______ _______ _____ _____    ______ ____
ROOT
ATOM      1  C   UNL     1       2.736   4.878  19.583  0.00  0.00    +0.000 C 
ATOM      2  S   UNL     1       1.708   3.661  20.098  0.00  0.00    +0.000 S 
ENDROOT
BRANCH   1   3
ATOM      3  N   UNL     1       3.605   4.577  18.545  0.00  0.00    +0.000 N 
ATOM      4  C   UNL     1       4.945   4.909  18.461  0.00  0.00    +0.000 C 
ATOM      5  O   UNL     1       5.572   5.350  19.426  0.00  0.00    +0.000 OA
ATOM      6  H   UNL     1       3.166   4.146  17.743  0.00  0.00    +0.000 HD
BRANCH   4   7
ATOM      7  C   UNL     1       5.622   4.675  17.195  0.00  0.00    +0.000 A 
ATOM      8  C   UNL     1       7.019   4.835  17.020  0.00  0.00    +0.000 A 
ATOM      9  N   UNL     1       7.427   4.563  15.783  0.00  0.00    +0.000 NA
ATOM     10  N   UNL     1       6.296   4.234  15.141  0.00  0.00    +0.000 N 
ATOM     11  C   UNL     1       6.371   3.889  13.741  0.00  0.00    +0.000 C 
ATOM     12  C   UNL     1       5.178   4.281  15.940  0.00  0.00    +0.000 A 
ENDBRANCH   4   7
ENDBRANCH   1   3
BRANCH   1  13
ATOM     13  N   UNL     1       2.846   6.152  20.104  0.00  0.00    +0.000 N 
ATOM     14  H   UNL     1       3.527   6.250  20.855  0.00  0.00    +0.000 HD
BRANCH  13  19
ATOM     15  C   UNL     1       0.342  11.156  18.846  0.00  0.00    +0.000 C 
ATOM     16  C   UNL     1       0.968   9.834  19.181  0.00  0.00    +0.000 A 
ATOM     17  C   UNL     1       0.847   9.262  20.450  0.00  0.00    +0.000 A 
ATOM     18  C   UNL     1       1.469   8.036  20.735  0.00  0.00    +0.000 A 
ATOM     19  C   UNL     1       2.183   7.347  19.747  0.00  0.00    +0.000 A 
ATOM     20  C   UNL     1       2.309   7.928  18.485  0.00  0.00    +0.000 A 
ATOM     21  C   UNL     1       1.712   9.157  18.208  0.00  0.00    +0.000 A 
ENDBRANCH  13  19
ENDBRANCH   1  13
TORSDOF 4
ENDMDL
MODEL 3
REMARK VINA RESULT:      -7.0      3.595      4.662
REMARK  Name = 
REMARK  6 active torsions:
REMARK  status: ('A' for Active; 'I' for Inactive)
REMARK    1  A    between atoms: C_1  and  C_2
REMARK    2  A    between atoms: C_5  and  N_6
REMARK    3  A    between atoms: N_6  and  C_7
REMARK    4  A    between atoms: C_7  and  N_9
REMARK    5  A    between atoms: C_10  and  C_12
REMARK    6  A    between atoms: N_15  and  C_16
REMARK                            x       y       z     vdW  Elec       q    Type
REMARK                         _______ _______ _______ _____ _____    ______ ____
ROOT
ATOM      1  C   UNL     1       7.113   5.131  17.934  0.00  0.00    +0.000 C 
ATOM      2  S   UNL     1       7.826   6.592  18.334  0.00  0.00    +0.000 S 
ENDROOT
BRANCH   1   3
ATOM      3  N   UNL     1       7.138   4.758  16.598  0.00  0.00    +0.000 N 
ATOM      4  C   UNL     1       6.377   5.292  15.574  0.00  0.00    +0.000 C 
ATOM      5  O   UNL     1       5.719   6.324  15.715  0.00  0.00    +0.000 OA
ATOM      6  H   UNL     1       7.717   3.956  16.398  0.00  0.00    +0.000 HD
BRANCH   4   7
ATOM      7  C   UNL     1       6.410   4.617  14.286  0.00  0.00    +0.000 A 
ATOM      8  C   UNL     1       7.362   4.914  13.278  0.00  0.00    +0.000 A 
ATOM      9  N   UNL     1       7.213   4.174  12.182  0.00  0.00    +0.000 NA
ATOM     10  N   UNL     1       6.157   3.397  12.464  0.00  0.00    +0.000 N 
ATOM     11  C   UNL     1       5.700   2.461  11.464  0.00  0.00    +0.000 C 
ATOM     12  C   UNL     1       5.633   3.617  13.716  0.00  0.00    +0.000 A 
ENDBRANCH   4   7
ENDBRANCH   1   3
BRANCH   1  13
ATOM     13  N   UNL     1       6.462   4.261  18.786  0.00  0.00    +0.000 N 
ATOM     14  H   UNL     1       7.061   3.566  19.228  0.00  0.00    +0.000 HD
BRANCH  13  19
ATOM     15  C   UNL     1       1.028   3.881  20.582  0.00  0.00    +0.000 C 
ATOM     16  C   UNL     1       2.442   3.964  20.085  0.00  0.00    +0.000 A 
ATOM     17  C   UNL     1       3.216   2.820  19.871  0.00  0.00    +0.000 A 
ATOM     18  C   UNL     1       4.544   2.938  19.431  0.00  0.00    +0.000 A 
ATOM     19  C   UNL     1       5.101   4.193  19.160  0.00  0.00    +0.000 A 
ATOM     20  C   UNL     1       4.327   5.332  19.387  0.00  0.00    +0.000 A 
ATOM     21  C   UNL     1       3.017   5.218  19.846  0.00  0.00    +0.000 A 
ENDBRANCH  13  19
ENDBRANCH   1  13
TORSDOF 4
ENDMDL
MODEL 4
REMARK VINA RESULT:      -6.9      3.527      4.522
REMARK  Name = 
REMARK  6 active torsions:
REMARK  status: ('A' for Active; 'I' for Inactive)
REMARK    1  A    between atoms: C_1  and  C_2
REMARK    2  A    between atoms: C_5  and  N_6
REMARK    3  A    between atoms: N_6  and  C_7
REMARK    4  A    between atoms: C_7  and  N_9
REMARK    5  A    between atoms: C_10  and  C_12
REMARK    6  A    between atoms: N_15  and  C_16
REMARK                            x       y       z     vdW  Elec       q    Type
REMARK                         _______ _______ _______ _____ _____    ______ ____
ROOT
ATOM      1  C   UNL     1       6.361   5.578  18.037  0.00  0.00    +0.000 C 
ATOM      2  S   UNL     1       7.735   5.818  18.963  0.00  0.00    +0.000 S 
ENDROOT
BRANCH   1   3
ATOM      3  N   UNL     1       6.541   5.089  16.751  0.00  0.00    +0.000 N 
ATOM      4  C   UNL     1       5.967   5.577  15.591  0.00  0.00    +0.000 C 
ATOM      5  O   UNL     1       5.372   6.655  15.557  0.00  0.00    +0.000 OA
ATOM      6  H   UNL     1       7.084   4.239  16.698  0.00  0.00    +0.000 HD
BRANCH   4   7
ATOM      7  C   UNL     1       6.128   4.792  14.377  0.00  0.00    +0.000 A 
ATOM      8  C   UNL     1       7.234   4.932  13.501  0.00  0.00    +0.000 A 
ATOM      9  N   UNL     1       7.182   4.112  12.455  0.00  0.00    +0.000 NA
ATOM     10  N   UNL     1       6.036   3.439  12.636  0.00  0.00    +0.000 N 
ATOM     11  C   UNL     1       5.650   2.454  11.653  0.00  0.00    +0.000 C 
ATOM     12  C   UNL     1       5.360   3.804  13.776  0.00  0.00    +0.000 A 
ENDBRANCH   4   7
ENDBRANCH   1   3
BRANCH   1  13
ATOM     13  N   UNL     1       5.056   5.847  18.397  0.00  0.00    +0.000 N 
ATOM     14  H   UNL     1       4.845   6.835  18.532  0.00  0.00    +0.000 HD
BRANCH  13  19
ATOM     15  C   UNL     1       0.630   2.230  18.861  0.00  0.00    +0.000 C 
ATOM     16  C   UNL     1       1.770   3.199  18.753  0.00  0.00    +0.000 A 
ATOM     17  C   UNL     1       1.681   4.357  17.975  0.00  0.00    +0.000 A 
ATOM     18  C   UNL     1       2.778   5.228  17.877  0.00  0.00    +0.000 A 
ATOM     19  C   UNL     1       3.959   4.977  18.584  0.00  0.00    +0.000 A 
ATOM     20  C   UNL     1       4.046   3.814  19.350  0.00  0.00    +0.000 A 
ATOM     21  C   UNL     1       2.967   2.936  19.429  0.00  0.00    +0.000 A 
ENDBRANCH  13  19
ENDBRANCH   1  13
TORSDOF 4
ENDMDL
MODEL 5
REMARK VINA RESULT:      -6.9      3.528      4.601
REMARK  Name = 
REMARK  6 active torsions:
REMARK  status: ('A' for Active; 'I' for Inactive)
REMARK    1  A    between atoms: C_1  and  C_2
REMARK    2  A    between atoms: C_5  and  N_6
REMARK    3  A    between atoms: N_6  and  C_7
REMARK    4  A    between atoms: C_7  and  N_9
REMARK    5  A    between atoms: C_10  and  C_12
REMARK    6  A    between atoms: N_15  and  C_16
REMARK                            x       y       z     vdW  Elec       q    Type
REMARK                         _______ _______ _______ _____ _____    ______ ____
ROOT
ATOM      1  C   UNL     1       7.056   5.081  17.925  0.00  0.00    +0.000 C 
ATOM      2  S   UNL     1       7.734   6.559  18.320  0.00  0.00    +0.000 S 
ENDROOT
BRANCH   1   3
ATOM      3  N   UNL     1       7.076   4.711  16.588  0.00  0.00    +0.000 N 
ATOM      4  C   UNL     1       6.300   5.238  15.571  0.00  0.00    +0.000 C 
ATOM      5  O   UNL     1       5.631   6.261  15.720  0.00  0.00    +0.000 OA
ATOM      6  H   UNL     1       7.664   3.917  16.382  0.00  0.00    +0.000 HD
BRANCH   4   7
ATOM      7  C   UNL     1       6.332   4.567  14.281  0.00  0.00    +0.000 A 
ATOM      8  C   UNL     1       7.305   4.840  13.287  0.00  0.00    +0.000 A 
ATOM      9  N   UNL     1       7.150   4.108  12.187  0.00  0.00    +0.000 NA
ATOM     10  N   UNL     1       6.070   3.360  12.452  0.00  0.00    +0.000 N 
ATOM     11  C   UNL     1       5.600   2.440  11.443  0.00  0.00    +0.000 C 
ATOM     12  C   UNL     1       5.535   3.590  13.698  0.00  0.00    +0.000 A 
ENDBRANCH   4   7
ENDBRANCH   1   3
BRANCH   1  13
ATOM     13  N   UNL     1       6.439   4.191  18.782  0.00  0.00    +0.000 N 
ATOM     14  H   UNL     1       7.047   3.461  19.151  0.00  0.00    +0.000 HD
BRANCH  13  19
ATOM     15  C   UNL     1       0.937   4.089  20.397  0.00  0.00    +0.000 C 
ATOM     16  C   UNL     1       2.383   4.134  20.000  0.00  0.00    +0.000 A 
ATOM     17  C   UNL     1       3.024   5.335  19.683  0.00  0.00    +0.000 A 
ATOM     18  C   UNL     1       4.372   5.335  19.290  0.00  0.00    +0.000 A 
ATOM     19  C   UNL     1       5.107   4.145  19.249  0.00  0.00    +0.000 A 
ATOM     20  C   UNL     1       4.460   2.948  19.556  0.00  0.00    +0.000 A 
ATOM     21  C   UNL     1       3.115   2.943  19.923  0.00  0.00    +0.000 A 
ENDBRANCH  13  19
ENDBRANCH   1  13
TORSDOF 4
ENDMDL
MODEL 6
REMARK VINA RESULT:      -6.8      3.142      6.946
REMARK  Name = 
REMARK  6 active torsions:
REMARK  status: ('A' for Active; 'I' for Inactive)
REMARK    1  A    between atoms: C_1  and  C_2
REMARK    2  A    between atoms: C_5  and  N_6
REMARK    3  A    between atoms: N_6  and  C_7
REMARK    4  A    between atoms: C_7  and  N_9
REMARK    5  A    between atoms: C_10  and  C_12
REMARK    6  A    between atoms: N_15  and  C_16
REMARK                            x       y       z     vdW  Elec       q    Type
REMARK                         _______ _______ _______ _____ _____    ______ ____
ROOT
ATOM      1  C   UNL     1       6.988   6.542  17.338  0.00  0.00    +0.000 C 
ATOM      2  S   UNL     1       7.715   8.023  17.622  0.00  0.00    +0.000 S 
ENDROOT
BRANCH   1   3
ATOM      3  N   UNL     1       5.811   6.272  18.020  0.00  0.00    +0.000 N 
ATOM      4  C   UNL     1       5.581   5.226  18.896  0.00  0.00    +0.000 C 
ATOM      5  O   UNL     1       6.493   4.518  19.324  0.00  0.00    +0.000 OA
ATOM      6  H   UNL     1       5.035   6.867  17.768  0.00  0.00    +0.000 HD
BRANCH   4   7
ATOM      7  C   UNL     1       4.215   5.010  19.345  0.00  0.00    +0.000 A 
ATOM      8  C   UNL     1       3.250   6.046  19.428  0.00  0.00    +0.000 A 
ATOM      9  N   UNL     1       2.064   5.624  19.858  0.00  0.00    +0.000 NA
ATOM     10  N   UNL     1       2.249   4.312  20.067  0.00  0.00    +0.000 N 
ATOM     11  C   UNL     1       1.143   3.528  20.562  0.00  0.00    +0.000 C 
ATOM     12  C   UNL     1       3.523   3.885  19.774  0.00  0.00    +0.000 A 
ENDBRANCH   4   7
ENDBRANCH   1   3
BRANCH   1  13
ATOM     13  N   UNL     1       7.450   5.530  16.520  0.00  0.00    +0.000 N 
ATOM     14  H   UNL     1       8.334   5.114  16.811  0.00  0.00    +0.000 HD
BRANCH  13  19
ATOM     15  C   UNL     1       5.397   3.042  11.778  0.00  0.00    +0.000 C 
ATOM     16  C   UNL     1       5.929   3.722  13.006  0.00  0.00    +0.000 A 
ATOM     17  C   UNL     1       7.056   4.547  12.962  0.00  0.00    +0.000 A 
ATOM     18  C   UNL     1       7.540   5.145  14.136  0.00  0.00    +0.000 A 
ATOM     19  C   UNL     1       6.883   4.961  15.358  0.00  0.00    +0.000 A 
ATOM     20  C   UNL     1       5.765   4.128  15.398  0.00  0.00    +0.000 A 
ATOM     21  C   UNL     1       5.297   3.514  14.238  0.00  0.00    +0.000 A 
ENDBRANCH  13  19
ENDBRANCH   1  13
TORSDOF 4
ENDMDL
MODEL 7
REMARK VINA RESULT:      -6.8      2.658      7.479
REMARK  Name = 
REMARK  6 active torsions:
REMARK  status: ('A' for Active; 'I' for Inactive)
REMARK    1  A    between atoms: C_1  and  C_2
REMARK    2  A    between atoms: C_5  and  N_6
REMARK    3  A    between atoms: N_6  and  C_7
REMARK    4  A    between atoms: C_7  and  N_9
REMARK    5  A    between atoms: C_10  and  C_12
REMARK    6  A    between atoms: N_15  and  C_16
REMARK                            x       y       z     vdW  Elec       q    Type
REMARK                         _______ _______ _______ _____ _____    ______ ____
ROOT
ATOM      1  C   UNL     1       2.447   5.602  20.115  0.00  0.00    +0.000 C 
ATOM      2  S   UNL     1       1.674   4.152  19.794  0.00  0.00    +0.000 S 
ENDROOT
BRANCH   1   3
ATOM      3  N   UNL     1       1.709   6.583  20.762  0.00  0.00    +0.000 N 
ATOM      4  C   UNL     1       1.560   7.901  20.371  0.00  0.00    +0.000 C 
ATOM      5  O   UNL     1       1.919   8.301  19.262  0.00  0.00    +0.000 OA
ATOM      6  H   UNL     1       1.323   6.299  21.651  0.00  0.00    +0.000 HD
BRANCH   4   7
ATOM      7  C   UNL     1       0.913   8.812  21.301  0.00  0.00    +0.000 A 
ATOM      8  C   UNL     1       1.359   9.011  22.632  0.00  0.00    +0.000 A 
ATOM      9  N   UNL     1       0.624   9.893  23.305  0.00  0.00    +0.000 NA
ATOM     10  N   UNL     1      -0.312  10.267  22.421  0.00  0.00    +0.000 N 
ATOM     11  C   UNL     1      -1.309  11.226  22.834  0.00  0.00    +0.000 C 
ATOM     12  C   UNL     1      -0.189   9.652  21.198  0.00  0.00    +0.000 A 
ENDBRANCH   4   7
ENDBRANCH   1   3
BRANCH   1  13
ATOM     13  N   UNL     1       3.737   5.952  19.772  0.00  0.00    +0.000 N 
ATOM     14  H   UNL     1       4.221   6.527  20.460  0.00  0.00    +0.000 HD
BRANCH  13  19
ATOM     15  C   UNL     1       6.962   4.896  15.149  0.00  0.00    +0.000 C 
ATOM     16  C   UNL     1       6.093   5.161  16.342  0.00  0.00    +0.000 A 
ATOM     17  C   UNL     1       5.017   6.051  16.288  0.00  0.00    +0.000 A 
ATOM     18  C   UNL     1       4.241   6.294  17.433  0.00  0.00    +0.000 A 
ATOM     19  C   UNL     1       4.504   5.621  18.632  0.00  0.00    +0.000 A 
ATOM     20  C   UNL     1       5.585   4.742  18.684  0.00  0.00    +0.000 A 
ATOM     21  C   UNL     1       6.371   4.518  17.555  0.00  0.00    +0.000 A 
ENDBRANCH  13  19
ENDBRANCH   1  13
TORSDOF 4
ENDMDL
MODEL 8
REMARK VINA RESULT:      -6.8      3.482      7.014
REMARK  Name = 
REMARK  6 active torsions:
REMARK  status: ('A' for Active; 'I' for Inactive)
REMARK    1  A    between atoms: C_1  and  C_2
REMARK    2  A    between atoms: C_5  and  N_6
REMARK    3  A    between atoms: N_6  and  C_7
REMARK    4  A    between atoms: C_7  and  N_9
REMARK    5  A    between atoms: C_10  and  C_12
REMARK    6  A    between atoms: N_15  and  C_16
REMARK                            x       y       z     vdW  Elec       q    Type
REMARK                         _______ _______ _______ _____ _____    ______ ____
ROOT
ATOM      1  C   UNL     1       7.045   6.347  17.134  0.00  0.00    +0.000 C 
ATOM      2  S   UNL     1       7.614   7.865  17.550  0.00  0.00    +0.000 S 
ENDROOT
BRANCH   1   3
ATOM      3  N   UNL     1       5.904   5.898  17.782  0.00  0.00    +0.000 N 
ATOM      4  C   UNL     1       5.841   5.269  19.013  0.00  0.00    +0.000 C 
ATOM      5  O   UNL     1       6.809   5.219  19.773  0.00  0.00    +0.000 OA
ATOM      6  H   UNL     1       5.056   5.976  17.239  0.00  0.00    +0.000 HD
BRANCH   4   7
ATOM      7  C   UNL     1       4.566   4.698  19.415  0.00  0.00    +0.000 A 
ATOM      8  C   UNL     1       4.329   3.302  19.493  0.00  0.00    +0.000 A 
ATOM      9  N   UNL     1       3.095   3.001  19.888  0.00  0.00    +0.000 NA
ATOM     10  N   UNL     1       2.515   4.198  20.061  0.00  0.00    +0.000 N 
ATOM     11  C   UNL     1       1.135   4.244  20.482  0.00  0.00    +0.000 C 
ATOM     12  C   UNL     1       3.352   5.256  19.794  0.00  0.00    +0.000 A 
ENDBRANCH   4   7
ENDBRANCH   1   3
BRANCH   1  13
ATOM     13  N   UNL     1       7.610   5.462  16.237  0.00  0.00    +0.000 N 
ATOM     14  H   UNL     1       8.576   5.209  16.435  0.00  0.00    +0.000 HD
BRANCH  13  19
ATOM     15  C   UNL     1       5.109   3.086  11.655  0.00  0.00    +0.000 C 
ATOM     16  C   UNL     1       5.769   3.678  12.865  0.00  0.00    +0.000 A 
ATOM     17  C   UNL     1       5.252   3.494  14.150  0.00  0.00    +0.000 A 
ATOM     18  C   UNL     1       5.882   4.085  15.257  0.00  0.00    +0.000 A 
ATOM     19  C   UNL     1       7.054   4.832  15.101  0.00  0.00    +0.000 A 
ATOM     20  C   UNL     1       7.560   5.023  13.814  0.00  0.00    +0.000 A 
ATOM     21  C   UNL     1       6.923   4.456  12.712  0.00  0.00    +0.000 A 
ENDBRANCH  13  19
ENDBRANCH   1  13
TORSDOF 4
ENDMDL
MODEL 9
REMARK VINA RESULT:      -6.8      2.590      7.335
REMARK  Name = 
REMARK  6 active torsions:
REMARK  status: ('A' for Active; 'I' for Inactive)
REMARK    1  A    between atoms: C_1  and  C_2
REMARK    2  A    between atoms: C_5  and  N_6
REMARK    3  A    between atoms: N_6  and  C_7
REMARK    4  A    between atoms: C_7  and  N_9
REMARK    5  A    between atoms: C_10  and  C_12
REMARK    6  A    between atoms: N_15  and  C_16
REMARK                            x       y       z     vdW  Elec       q    Type
REMARK                         _______ _______ _______ _____ _____    ______ ____
ROOT
ATOM      1  C   UNL     1       2.370   5.575  20.300  0.00  0.00    +0.000 C 
ATOM      2  S   UNL     1       1.533   4.125  20.293  0.00  0.00    +0.000 S 
ENDROOT
BRANCH   1   3
ATOM      3  N   UNL     1       1.711   6.684  20.810  0.00  0.00    +0.000 N 
ATOM      4  C   UNL     1       1.618   7.935  20.225  0.00  0.00    +0.000 C 
ATOM      5  O   UNL     1       1.956   8.139  19.058  0.00  0.00    +0.000 OA
ATOM      6  H   UNL     1       1.344   6.562  21.742  0.00  0.00    +0.000 HD
BRANCH   4   7
ATOM      7  C   UNL     1       1.055   9.013  21.022  0.00  0.00    +0.000 A 
ATOM      8  C   UNL     1       1.110   9.043  22.439  0.00  0.00    +0.000 A 
ATOM      9  N   UNL     1       0.538  10.123  22.963  0.00  0.00    +0.000 NA
ATOM     10  N   UNL     1       0.098  10.801  21.893  0.00  0.00    +0.000 N 
ATOM     11  C   UNL     1      -0.603  12.046  22.103  0.00  0.00    +0.000 C 
ATOM     12  C   UNL     1       0.381  10.183  20.698  0.00  0.00    +0.000 A 
ENDBRANCH   4   7
ENDBRANCH   1   3
BRANCH   1  13
ATOM     13  N   UNL     1       3.643   5.805  19.818  0.00  0.00    +0.000 N 
ATOM     14  H   UNL     1       4.282   6.235  20.485  0.00  0.00    +0.000 HD
BRANCH  13  19
ATOM     15  C   UNL     1       5.673   4.516  14.612  0.00  0.00    +0.000 C 
ATOM     16  C   UNL     1       5.168   4.840  15.987  0.00  0.00    +0.000 A 
ATOM     17  C   UNL     1       4.863   3.840  16.914  0.00  0.00    +0.000 A 
ATOM     18  C   UNL     1       4.368   4.180  18.183  0.00  0.00    +0.000 A 
ATOM     19  C   UNL     1       4.209   5.519  18.556  0.00  0.00    +0.000 A 
ATOM     20  C   UNL     1       4.505   6.513  17.622  0.00  0.00    +0.000 A 
ATOM     21  C   UNL     1       4.974   6.177  16.354  0.00  0.00    +0.000 A 
ENDBRANCH  13  19
ENDBRANCH   1  13
TORSDOF 4
ENDMDL
