MODEL 1
REMARK VINA RESULT:      -7.9      0.000      0.000
REMARK  Name = 
REMARK  8 active torsions:
REMARK  status: ('A' for Active; 'I' for Inactive)
REMARK    1  A    between atoms: C_1  and  O_2
REMARK    2  A    between atoms: O_2  and  C_3
REMARK    3  A    between atoms: C_8  and  O_9
REMARK    4  A    between atoms: O_9  and  C_10
REMARK    5  A    between atoms: N_12  and  C_13
REMARK    6  A    between atoms: C_13  and  C_14
REMARK    7  A    between atoms: N_16  and  C_17
REMARK    8  A    between atoms: C_21  and  C_22
REMARK                            x       y       z     vdW  Elec       q    Type
REMARK                         _______ _______ _______ _____ _____    ______ ____
ROOT
ATOM      1  C   UNL     1       7.270   7.456  16.979  0.00  0.00    +0.000 C 
ENDROOT
BRANCH   1   9
ATOM      2  C   UNL     1       2.143   3.746  18.180  0.00  0.00    +0.000 A 
ATOM      3  C   UNL     1       3.069   3.796  17.128  0.00  0.00    +0.000 A 
ATOM      4  C   UNL     1       4.031   4.800  17.079  0.00  0.00    +0.000 A 
ATOM      5  C   UNL     1       4.078   5.775  18.082  0.00  0.00    +0.000 A 
ATOM      6  C   UNL     1       3.148   5.738  19.128  0.00  0.00    +0.000 A 
ATOM      7  C   UNL     1       2.184   4.718  19.199  0.00  0.00    +0.000 A 
ATOM      8  C   UNL     1       5.110   6.870  17.947  0.00  0.00    +0.000 C 
ATOM      9  N   UNL     1       6.459   6.372  17.579  0.00  0.00    +0.000 NA
ATOM     10  C   UNL     1       6.423   5.212  16.649  0.00  0.00    +0.000 C 
ATOM     11  C   UNL     1       5.069   4.890  15.997  0.00  0.00    +0.000 C 
BRANCH   2  13
ATOM     12  C   UNL     1       1.785   1.439  18.658  0.00  0.00    +0.000 C 
ATOM     13  O   UNL     1       1.313   2.656  18.101  0.00  0.00    +0.000 OA
ENDBRANCH   2  13
BRANCH   7  14
ATOM     14  O   UNL     1       1.290   4.601  20.229  0.00  0.00    +0.000 OA
ATOM     15  C   UNL     1       1.648   3.802  21.348  0.00  0.00    +0.000 C 
ENDBRANCH   7  14
ENDBRANCH   1   9
BRANCH   1  16
ATOM     16  C   UNL     1       8.146   8.181  17.995  0.00  0.00    +0.000 C 
ATOM     17  O   UNL     1       8.636   7.550  18.930  0.00  0.00    +0.000 OA
ATOM     18  N   UNL     1       8.255   9.546  17.792  0.00  0.00    +0.000 N 
ATOM     19  H   UNL     1       7.666   9.919  17.053  0.00  0.00    +0.000 HD
BRANCH  18  20
ATOM     20  C   UNL     1       9.078  10.436  18.512  0.00  0.00    +0.000 A 
ATOM     21  C   UNL     1       9.155  10.423  19.908  0.00  0.00    +0.000 A 
ATOM     22  C   UNL     1       9.971  11.330  20.590  0.00  0.00    +0.000 A 
ATOM     23  C   UNL     1      10.716  12.260  19.884  0.00  0.00    +0.000 A 
ATOM     24  C   UNL     1      10.670  12.290  18.485  0.00  0.00    +0.000 A 
ATOM     25  C   UNL     1       9.860  11.355  17.803  0.00  0.00    +0.000 A 
BRANCH  24  26
ATOM     26  C   UNL     1      11.461  13.319  17.717  0.00  0.00    +0.000 C 
ATOM     27  F   UNL     1      12.305  12.778  16.792  0.00  0.00    +0.000 F 
ATOM     28  F   UNL     1      10.666  14.184  17.030  0.00  0.00    +0.000 F 
ATOM     29  F   UNL     1      12.242  14.087  18.526  0.00  0.00    +0.000 F 
ENDBRANCH  24  26
ENDBRANCH  18  20
ENDBRANCH   1  16
TORSDOF 6
ENDMDL
MODEL 2
REMARK VINA RESULT:      -7.9      6.089      8.373
REMARK  Name = 
REMARK  8 active torsions:
REMARK  status: ('A' for Active; 'I' for Inactive)
REMARK    1  A    between atoms: C_1  and  O_2
REMARK    2  A    between atoms: O_2  and  C_3
REMARK    3  A    between atoms: C_8  and  O_9
REMARK    4  A    between atoms: O_9  and  C_10
REMARK    5  A    between atoms: N_12  and  C_13
REMARK    6  A    between atoms: C_13  and  C_14
REMARK    7  A    between atoms: N_16  and  C_17
REMARK    8  A    between atoms: C_21  and  C_22
REMARK                            x       y       z     vdW  Elec       q    Type
REMARK                         _______ _______ _______ _____ _____    ______ ____
ROOT
ATOM      1  C   UNL     1       3.327   3.637  19.292  0.00  0.00    +0.000 C 
ENDROOT
BRANCH   1   9
ATOM      2  C   UNL     1       7.264   5.023  14.384  0.00  0.00    +0.000 A 
ATOM      3  C   UNL     1       7.137   5.526  15.686  0.00  0.00    +0.000 A 
ATOM      4  C   UNL     1       6.098   5.103  16.510  0.00  0.00    +0.000 A 
ATOM      5  C   UNL     1       5.166   4.171  16.040  0.00  0.00    +0.000 A 
ATOM      6  C   UNL     1       5.281   3.674  14.736  0.00  0.00    +0.000 A 
ATOM      7  C   UNL     1       6.336   4.079  13.902  0.00  0.00    +0.000 A 
ATOM      8  C   UNL     1       4.031   3.789  16.962  0.00  0.00    +0.000 C 
ATOM      9  N   UNL     1       4.465   3.503  18.351  0.00  0.00    +0.000 NA
ATOM     10  C   UNL     1       5.584   4.369  18.807  0.00  0.00    +0.000 C 
ATOM     11  C   UNL     1       5.925   5.580  17.924  0.00  0.00    +0.000 C 
BRANCH   2  13
ATOM     12  C   UNL     1       8.207   5.973  12.413  0.00  0.00    +0.000 C 
ATOM     13  O   UNL     1       8.378   5.500  13.740  0.00  0.00    +0.000 OA
ENDBRANCH   2  13
BRANCH   7  14
ATOM     14  O   UNL     1       6.528   3.582  12.641  0.00  0.00    +0.000 OA
ATOM     15  C   UNL     1       5.443   2.927  11.999  0.00  0.00    +0.000 C 
ENDBRANCH   7  14
ENDBRANCH   1   9
BRANCH   1  16
ATOM     16  C   UNL     1       2.446   4.847  18.997  0.00  0.00    +0.000 C 
ATOM     17  O   UNL     1       1.484   4.724  18.240  0.00  0.00    +0.000 OA
ATOM     18  N   UNL     1       2.872   6.026  19.584  0.00  0.00    +0.000 N 
ATOM     19  H   UNL     1       3.768   5.969  20.060  0.00  0.00    +0.000 HD
BRANCH  18  20
ATOM     20  C   UNL     1       2.195   7.262  19.564  0.00  0.00    +0.000 A 
ATOM     21  C   UNL     1       2.186   8.094  18.441  0.00  0.00    +0.000 A 
ATOM     22  C   UNL     1       1.516   9.320  18.462  0.00  0.00    +0.000 A 
ATOM     23  C   UNL     1       0.850   9.728  19.607  0.00  0.00    +0.000 A 
ATOM     24  C   UNL     1       0.829   8.910  20.743  0.00  0.00    +0.000 A 
ATOM     25  C   UNL     1       1.491   7.663  20.706  0.00  0.00    +0.000 A 
BRANCH  24  26
ATOM     26  C   UNL     1       0.127   9.364  21.998  0.00  0.00    +0.000 C 
ATOM     27  F   UNL     1      -0.902   8.549  22.371  0.00  0.00    +0.000 F 
ATOM     28  F   UNL     1       0.960   9.425  23.072  0.00  0.00    +0.000 F 
ATOM     29  F   UNL     1      -0.416  10.608  21.871  0.00  0.00    +0.000 F 
ENDBRANCH  24  26
ENDBRANCH  18  20
ENDBRANCH   1  16
TORSDOF 6
ENDMDL
MODEL 3
REMARK VINA RESULT:      -7.8      6.872      9.064
REMARK  Name = 
REMARK  8 active torsions:
REMARK  status: ('A' for Active; 'I' for Inactive)
REMARK    1  A    between atoms: C_1  and  O_2
REMARK    2  A    between atoms: O_2  and  C_3
REMARK    3  A    between atoms: C_8  and  O_9
REMARK    4  A    between atoms: O_9  and  C_10
REMARK    5  A    between atoms: N_12  and  C_13
REMARK    6  A    between atoms: C_13  and  C_14
REMARK    7  A    between atoms: N_16  and  C_17
REMARK    8  A    between atoms: C_21  and  C_22
REMARK                            x       y       z     vdW  Elec       q    Type
REMARK                         _______ _______ _______ _____ _____    ______ ____
ROOT
ATOM      1  C   UNL     1       1.618   9.346  19.105  0.00  0.00    +0.000 C 
ENDROOT
BRANCH   1   9
ATOM      2  C   UNL     1      -4.078  11.460  16.966  0.00  0.00    +0.000 A 
ATOM      3  C   UNL     1      -3.405  11.583  18.189  0.00  0.00    +0.000 A 
ATOM      4  C   UNL     1      -2.205  10.912  18.408  0.00  0.00    +0.000 A 
ATOM      5  C   UNL     1      -1.664  10.101  17.404  0.00  0.00    +0.000 A 
ATOM      6  C   UNL     1      -2.338   9.964  16.185  0.00  0.00    +0.000 A 
ATOM      7  C   UNL     1      -3.540  10.652  15.945  0.00  0.00    +0.000 A 
ATOM      8  C   UNL     1      -0.387   9.356  17.718  0.00  0.00    +0.000 C 
ATOM      9  N   UNL     1       0.641  10.194  18.384  0.00  0.00    +0.000 NA
ATOM     10  C   UNL     1       0.066  11.191  19.326  0.00  0.00    +0.000 C 
ATOM     11  C   UNL     1      -1.421  11.027  19.683  0.00  0.00    +0.000 C 
BRANCH   2  13
ATOM     12  C   UNL     1      -6.023  12.293  18.065  0.00  0.00    +0.000 C 
ATOM     13  O   UNL     1      -5.207  12.239  16.904  0.00  0.00    +0.000 OA
ENDBRANCH   2  13
BRANCH   7  14
ATOM     14  O   UNL     1      -4.209  10.600  14.753  0.00  0.00    +0.000 OA
ATOM     15  C   UNL     1      -3.632   9.861  13.685  0.00  0.00    +0.000 C 
ENDBRANCH   7  14
ENDBRANCH   1   9
BRANCH   1  16
ATOM     16  C   UNL     1       2.334   8.352  18.196  0.00  0.00    +0.000 C 
ATOM     17  O   UNL     1       2.750   8.727  17.100  0.00  0.00    +0.000 OA
ATOM     18  N   UNL     1       2.390   7.059  18.687  0.00  0.00    +0.000 N 
ATOM     19  H   UNL     1       1.868   6.903  19.544  0.00  0.00    +0.000 HD
BRANCH  18  20
ATOM     20  C   UNL     1       3.077   5.974  18.107  0.00  0.00    +0.000 A 
ATOM     21  C   UNL     1       2.464   4.741  17.866  0.00  0.00    +0.000 A 
ATOM     22  C   UNL     1       3.180   3.681  17.303  0.00  0.00    +0.000 A 
ATOM     23  C   UNL     1       4.517   3.842  16.977  0.00  0.00    +0.000 A 
ATOM     24  C   UNL     1       5.156   5.069  17.194  0.00  0.00    +0.000 A 
ATOM     25  C   UNL     1       4.419   6.141  17.743  0.00  0.00    +0.000 A 
BRANCH  24  26
ATOM     26  C   UNL     1       6.617   5.238  16.863  0.00  0.00    +0.000 C 
ATOM     27  F   UNL     1       7.375   4.147  17.172  0.00  0.00    +0.000 F 
ATOM     28  F   UNL     1       6.832   5.475  15.541  0.00  0.00    +0.000 F 
ATOM     29  F   UNL     1       7.186   6.283  17.529  0.00  0.00    +0.000 F 
ENDBRANCH  24  26
ENDBRANCH  18  20
ENDBRANCH   1  16
TORSDOF 6
ENDMDL
MODEL 4
REMARK VINA RESULT:      -7.7      6.733      9.228
REMARK  Name = 
REMARK  8 active torsions:
REMARK  status: ('A' for Active; 'I' for Inactive)
REMARK    1  A    between atoms: C_1  and  O_2
REMARK    2  A    between atoms: O_2  and  C_3
REMARK    3  A    between atoms: C_8  and  O_9
REMARK    4  A    between atoms: O_9  and  C_10
REMARK    5  A    between atoms: N_12  and  C_13
REMARK    6  A    between atoms: C_13  and  C_14
REMARK    7  A    between atoms: N_16  and  C_17
REMARK    8  A    between atoms: C_21  and  C_22
REMARK                            x       y       z     vdW  Elec       q    Type
REMARK                         _______ _______ _______ _____ _____    ______ ____
ROOT
ATOM      1  C   UNL     1       1.283   7.541  20.965  0.00  0.00    +0.000 C 
ENDROOT
BRANCH   1   9
ATOM      2  C   UNL     1      -1.519  13.223  22.135  0.00  0.00    +0.000 A 
ATOM      3  C   UNL     1      -1.189  12.128  22.947  0.00  0.00    +0.000 A 
ATOM      4  C   UNL     1      -0.677  10.961  22.387  0.00  0.00    +0.000 A 
ATOM      5  C   UNL     1      -0.492  10.870  21.003  0.00  0.00    +0.000 A 
ATOM      6  C   UNL     1      -0.832  11.955  20.186  0.00  0.00    +0.000 A 
ATOM      7  C   UNL     1      -1.331  13.146  20.741  0.00  0.00    +0.000 A 
ATOM      8  C   UNL     1       0.017   9.560  20.449  0.00  0.00    +0.000 C 
ATOM      9  N   UNL     1       1.160   8.997  21.210  0.00  0.00    +0.000 NA
ATOM     10  C   UNL     1       1.069   9.244  22.673  0.00  0.00    +0.000 C 
ATOM     11  C   UNL     1      -0.275   9.767  23.204  0.00  0.00    +0.000 C 
BRANCH   2  13
ATOM     12  C   UNL     1      -2.641  14.044  24.071  0.00  0.00    +0.000 C 
ATOM     13  O   UNL     1      -1.947  14.306  22.860  0.00  0.00    +0.000 OA
ENDBRANCH   2  13
BRANCH   7  14
ATOM     14  O   UNL     1      -1.624  14.256  19.996  0.00  0.00    +0.000 OA
ATOM     15  C   UNL     1      -0.556  15.106  19.600  0.00  0.00    +0.000 C 
ENDBRANCH   7  14
ENDBRANCH   1   9
BRANCH   1  16
ATOM     16  C   UNL     1       2.187   7.208  19.782  0.00  0.00    +0.000 C 
ATOM     17  O   UNL     1       2.327   8.030  18.878  0.00  0.00    +0.000 OA
ATOM     18  N   UNL     1       2.730   5.935  19.813  0.00  0.00    +0.000 N 
ATOM     19  H   UNL     1       2.390   5.341  20.564  0.00  0.00    +0.000 HD
BRANCH  18  20
ATOM     20  C   UNL     1       3.674   5.406  18.910  0.00  0.00    +0.000 A 
ATOM     21  C   UNL     1       3.303   4.636  17.804  0.00  0.00    +0.000 A 
ATOM     22  C   UNL     1       4.268   4.115  16.936  0.00  0.00    +0.000 A 
ATOM     23  C   UNL     1       5.612   4.358  17.167  0.00  0.00    +0.000 A 
ATOM     24  C   UNL     1       6.014   5.137  18.259  0.00  0.00    +0.000 A 
ATOM     25  C   UNL     1       5.031   5.677  19.117  0.00  0.00    +0.000 A 
BRANCH  24  26
ATOM     26  C   UNL     1       7.478   5.380  18.526  0.00  0.00    +0.000 C 
ATOM     27  F   UNL     1       7.773   5.527  19.849  0.00  0.00    +0.000 F 
ATOM     28  F   UNL     1       8.267   4.366  18.080  0.00  0.00    +0.000 F 
ATOM     29  F   UNL     1       7.939   6.509  17.917  0.00  0.00    +0.000 F 
ENDBRANCH  24  26
ENDBRANCH  18  20
ENDBRANCH   1  16
TORSDOF 6
ENDMDL
MODEL 5
REMARK VINA RESULT:      -7.7      0.917      1.084
REMARK  Name = 
REMARK  8 active torsions:
REMARK  status: ('A' for Active; 'I' for Inactive)
REMARK    1  A    between atoms: C_1  and  O_2
REMARK    2  A    between atoms: O_2  and  C_3
REMARK    3  A    between atoms: C_8  and  O_9
REMARK    4  A    between atoms: O_9  and  C_10
REMARK    5  A    between atoms: N_12  and  C_13
REMARK    6  A    between atoms: C_13  and  C_14
REMARK    7  A    between atoms: N_16  and  C_17
REMARK    8  A    between atoms: C_21  and  C_22
REMARK                            x       y       z     vdW  Elec       q    Type
REMARK                         _______ _______ _______ _____ _____    ______ ____
ROOT
ATOM      1  C   UNL     1       7.452   7.257  16.877  0.00  0.00    +0.000 C 
ENDROOT
BRANCH   1   9
ATOM      2  C   UNL     1       3.056   2.880  18.615  0.00  0.00    +0.000 A 
ATOM      3  C   UNL     1       3.529   3.328  17.374  0.00  0.00    +0.000 A 
ATOM      4  C   UNL     1       4.425   4.390  17.299  0.00  0.00    +0.000 A 
ATOM      5  C   UNL     1       4.859   5.024  18.468  0.00  0.00    +0.000 A 
ATOM      6  C   UNL     1       4.380   4.590  19.710  0.00  0.00    +0.000 A 
ATOM      7  C   UNL     1       3.490   3.507  19.800  0.00  0.00    +0.000 A 
ATOM      8  C   UNL     1       5.791   6.205  18.320  0.00  0.00    +0.000 C 
ATOM      9  N   UNL     1       6.898   5.970  17.360  0.00  0.00    +0.000 NA
ATOM     10  C   UNL     1       6.497   5.140  16.193  0.00  0.00    +0.000 C 
ATOM     11  C   UNL     1       4.992   4.895  16.003  0.00  0.00    +0.000 C 
BRANCH   2  13
ATOM     12  C   UNL     1       0.834   2.018  18.585  0.00  0.00    +0.000 C 
ATOM     13  O   UNL     1       2.233   1.788  18.504  0.00  0.00    +0.000 OA
ENDBRANCH   2  13
BRANCH   7  14
ATOM     14  O   UNL     1       3.037   3.005  20.990  0.00  0.00    +0.000 OA
ATOM     15  C   UNL     1       1.933   3.644  21.617  0.00  0.00    +0.000 C 
ENDBRANCH   7  14
ENDBRANCH   1   9
BRANCH   1  16
ATOM     16  C   UNL     1       8.198   8.030  17.960  0.00  0.00    +0.000 C 
ATOM     17  O   UNL     1       8.608   7.434  18.955  0.00  0.00    +0.000 OA
ATOM     18  N   UNL     1       8.287   9.394  17.736  0.00  0.00    +0.000 N 
ATOM     19  H   UNL     1       7.766   9.732  16.932  0.00  0.00    +0.000 HD
BRANCH  18  20
ATOM     20  C   UNL     1       9.005  10.323  18.514  0.00  0.00    +0.000 A 
ATOM     21  C   UNL     1       9.017  10.282  19.911  0.00  0.00    +0.000 A 
ATOM     22  C   UNL     1       9.729  11.230  20.652  0.00  0.00    +0.000 A 
ATOM     23  C   UNL     1      10.435  12.230  20.003  0.00  0.00    +0.000 A 
ATOM     24  C   UNL     1      10.454  12.290  18.604  0.00  0.00    +0.000 A 
ATOM     25  C   UNL     1       9.749  11.315  17.864  0.00  0.00    +0.000 A 
BRANCH  24  26
ATOM     26  C   UNL     1      11.201  13.393  17.897  0.00  0.00    +0.000 C 
ATOM     27  F   UNL     1      12.320  13.804  18.560  0.00  0.00    +0.000 F 
ATOM     28  F   UNL     1      11.618  13.030  16.654  0.00  0.00    +0.000 F 
ATOM     29  F   UNL     1      10.442  14.511  17.727  0.00  0.00    +0.000 F 
ENDBRANCH  24  26
ENDBRANCH  18  20
ENDBRANCH   1  16
TORSDOF 6
ENDMDL
MODEL 6
REMARK VINA RESULT:      -7.7      7.946     10.115
REMARK  Name = 
REMARK  8 active torsions:
REMARK  status: ('A' for Active; 'I' for Inactive)
REMARK    1  A    between atoms: C_1  and  O_2
REMARK    2  A    between atoms: O_2  and  C_3
REMARK    3  A    between atoms: C_8  and  O_9
REMARK    4  A    between atoms: O_9  and  C_10
REMARK    5  A    between atoms: N_12  and  C_13
REMARK    6  A    between atoms: C_13  and  C_14
REMARK    7  A    between atoms: N_16  and  C_17
REMARK    8  A    between atoms: C_21  and  C_22
REMARK                            x       y       z     vdW  Elec       q    Type
REMARK                         _______ _______ _______ _____ _____    ______ ____
ROOT
ATOM      1  C   UNL     1       1.448   9.603  19.186  0.00  0.00    +0.000 C 
ENDROOT
BRANCH   1   9
ATOM      2  C   UNL     1      -4.278  11.436  16.873  0.00  0.00    +0.000 A 
ATOM      3  C   UNL     1      -3.651  11.588  18.117  0.00  0.00    +0.000 A 
ATOM      4  C   UNL     1      -2.426  10.977  18.371  0.00  0.00    +0.000 A 
ATOM      5  C   UNL     1      -1.813  10.199  17.383  0.00  0.00    +0.000 A 
ATOM      6  C   UNL     1      -2.441  10.033  16.143  0.00  0.00    +0.000 A 
ATOM      7  C   UNL     1      -3.668  10.661  15.868  0.00  0.00    +0.000 A 
ATOM      8  C   UNL     1      -0.511   9.518  17.735  0.00  0.00    +0.000 C 
ATOM      9  N   UNL     1       0.452  10.404  18.436  0.00  0.00    +0.000 NA
ATOM     10  C   UNL     1      -0.202  11.366  19.362  0.00  0.00    +0.000 C 
ATOM     11  C   UNL     1      -1.689  11.126  19.671  0.00  0.00    +0.000 C 
BRANCH   2  13
ATOM     12  C   UNL     1      -6.392  11.999  17.821  0.00  0.00    +0.000 C 
ATOM     13  O   UNL     1      -5.442  12.157  16.777  0.00  0.00    +0.000 OA
ENDBRANCH   2  13
BRANCH   7  14
ATOM     14  O   UNL     1      -4.296  10.580  14.654  0.00  0.00    +0.000 OA
ATOM     15  C   UNL     1      -3.638   9.897  13.596  0.00  0.00    +0.000 C 
ENDBRANCH   7  14
ENDBRANCH   1   9
BRANCH   1  16
ATOM     16  C   UNL     1       2.180   8.589  18.312  0.00  0.00    +0.000 C 
ATOM     17  O   UNL     1       2.570   8.925  17.195  0.00  0.00    +0.000 OA
ATOM     18  N   UNL     1       2.280   7.322  18.861  0.00  0.00    +0.000 N 
ATOM     19  H   UNL     1       1.774   7.191  19.732  0.00  0.00    +0.000 HD
BRANCH  18  20
ATOM     20  C   UNL     1       2.990   6.231  18.322  0.00  0.00    +0.000 A 
ATOM     21  C   UNL     1       4.156   6.394  17.568  0.00  0.00    +0.000 A 
ATOM     22  C   UNL     1       4.827   5.290  17.036  0.00  0.00    +0.000 A 
ATOM     23  C   UNL     1       4.338   4.011  17.250  0.00  0.00    +0.000 A 
ATOM     24  C   UNL     1       3.180   3.814  18.012  0.00  0.00    +0.000 A 
ATOM     25  C   UNL     1       2.521   4.934  18.564  0.00  0.00    +0.000 A 
BRANCH  24  26
ATOM     26  C   UNL     1       2.632   2.425  18.224  0.00  0.00    +0.000 C 
ATOM     27  F   UNL     1       2.379   1.757  17.062  0.00  0.00    +0.000 F 
ATOM     28  F   UNL     1       3.480   1.630  18.931  0.00  0.00    +0.000 F 
ATOM     29  F   UNL     1       1.457   2.427  18.912  0.00  0.00    +0.000 F 
ENDBRANCH  24  26
ENDBRANCH  18  20
ENDBRANCH   1  16
TORSDOF 6
ENDMDL
MODEL 7
REMARK VINA RESULT:      -7.5      1.960      2.435
REMARK  Name = 
REMARK  8 active torsions:
REMARK  status: ('A' for Active; 'I' for Inactive)
REMARK    1  A    between atoms: C_1  and  O_2
REMARK    2  A    between atoms: O_2  and  C_3
REMARK    3  A    between atoms: C_8  and  O_9
REMARK    4  A    between atoms: O_9  and  C_10
REMARK    5  A    between atoms: N_12  and  C_13
REMARK    6  A    between atoms: C_13  and  C_14
REMARK    7  A    between atoms: N_16  and  C_17
REMARK    8  A    between atoms: C_21  and  C_22
REMARK                            x       y       z     vdW  Elec       q    Type
REMARK                         _______ _______ _______ _____ _____    ______ ____
ROOT
ATOM      1  C   UNL     1       7.537   8.143  17.164  0.00  0.00    +0.000 C 
ENDROOT
BRANCH   1   9
ATOM      2  C   UNL     1       3.239   3.366  17.617  0.00  0.00    +0.000 A 
ATOM      3  C   UNL     1       4.547   3.439  17.116  0.00  0.00    +0.000 A 
ATOM      4  C   UNL     1       5.211   4.660  17.046  0.00  0.00    +0.000 A 
ATOM      5  C   UNL     1       4.572   5.830  17.472  0.00  0.00    +0.000 A 
ATOM      6  C   UNL     1       3.262   5.765  17.960  0.00  0.00    +0.000 A 
ATOM      7  C   UNL     1       2.588   4.536  18.054  0.00  0.00    +0.000 A 
ATOM      8  C   UNL     1       5.324   7.132  17.322  0.00  0.00    +0.000 C 
ATOM      9  N   UNL     1       6.734   7.060  17.778  0.00  0.00    +0.000 NA
ATOM     10  C   UNL     1       7.376   5.749  17.493  0.00  0.00    +0.000 C 
ATOM     11  C   UNL     1       6.621   4.800  16.550  0.00  0.00    +0.000 C 
BRANCH   2  13
ATOM     12  C   UNL     1       3.475   1.162  18.492  0.00  0.00    +0.000 C 
ATOM     13  O   UNL     1       2.766   2.079  17.672  0.00  0.00    +0.000 OA
ENDBRANCH   2  13
BRANCH   7  14
ATOM     14  O   UNL     1       1.329   4.408  18.578  0.00  0.00    +0.000 OA
ATOM     15  C   UNL     1       1.200   4.090  19.957  0.00  0.00    +0.000 C 
ENDBRANCH   7  14
ENDBRANCH   1   9
BRANCH   1  16
ATOM     16  C   UNL     1       8.440   8.858  18.165  0.00  0.00    +0.000 C 
ATOM     17  O   UNL     1       8.833   8.255  19.162  0.00  0.00    +0.000 OA
ATOM     18  N   UNL     1       8.686  10.188  17.870  0.00  0.00    +0.000 N 
ATOM     19  H   UNL     1       8.162  10.557  17.081  0.00  0.00    +0.000 HD
BRANCH  18  20
ATOM     20  C   UNL     1       9.562  11.049  18.561  0.00  0.00    +0.000 A 
ATOM     21  C   UNL     1      10.876  11.273  18.143  0.00  0.00    +0.000 A 
ATOM     22  C   UNL     1      11.723  12.123  18.860  0.00  0.00    +0.000 A 
ATOM     23  C   UNL     1      11.264  12.755  20.005  0.00  0.00    +0.000 A 
ATOM     24  C   UNL     1       9.948  12.562  20.441  0.00  0.00    +0.000 A 
ATOM     25  C   UNL     1       9.093  11.719  19.698  0.00  0.00    +0.000 A 
BRANCH  24  26
ATOM     26  C   UNL     1       9.455  13.229  21.700  0.00  0.00    +0.000 C 
ATOM     27  F   UNL     1       8.193  13.734  21.591  0.00  0.00    +0.000 F 
ATOM     28  F   UNL     1       9.424  12.382  22.765  0.00  0.00    +0.000 F 
ATOM     29  F   UNL     1      10.240  14.277  22.077  0.00  0.00    +0.000 F 
ENDBRANCH  24  26
ENDBRANCH  18  20
ENDBRANCH   1  16
TORSDOF 6
ENDMDL
MODEL 8
REMARK VINA RESULT:      -7.5      8.388     10.649
REMARK  Name = 
REMARK  8 active torsions:
REMARK  status: ('A' for Active; 'I' for Inactive)
REMARK    1  A    between atoms: C_1  and  O_2
REMARK    2  A    between atoms: O_2  and  C_3
REMARK    3  A    between atoms: C_8  and  O_9
REMARK    4  A    between atoms: O_9  and  C_10
REMARK    5  A    between atoms: N_12  and  C_13
REMARK    6  A    between atoms: C_13  and  C_14
REMARK    7  A    between atoms: N_16  and  C_17
REMARK    8  A    between atoms: C_21  and  C_22
REMARK                            x       y       z     vdW  Elec       q    Type
REMARK                         _______ _______ _______ _____ _____    ______ ____
ROOT
ATOM      1  C   UNL     1       1.614  10.200  19.154  0.00  0.00    +0.000 C 
ENDROOT
BRANCH   1   9
ATOM      2  C   UNL     1      -3.779  12.824  21.504  0.00  0.00    +0.000 A 
ATOM      3  C   UNL     1      -3.241  12.726  20.213  0.00  0.00    +0.000 A 
ATOM      4  C   UNL     1      -1.973  12.187  20.014  0.00  0.00    +0.000 A 
ATOM      5  C   UNL     1      -1.222  11.742  21.108  0.00  0.00    +0.000 A 
ATOM      6  C   UNL     1      -1.749  11.849  22.400  0.00  0.00    +0.000 A 
ATOM      7  C   UNL     1      -3.035  12.373  22.612  0.00  0.00    +0.000 A 
ATOM      8  C   UNL     1       0.168  11.216  20.834  0.00  0.00    +0.000 C 
ATOM      9  N   UNL     1       0.233  10.280  19.685  0.00  0.00    +0.000 NA
ATOM     10  C   UNL     1      -0.697  10.638  18.582  0.00  0.00    +0.000 C 
ATOM     11  C   UNL     1      -1.354  12.026  18.656  0.00  0.00    +0.000 C 
BRANCH   2  13
ATOM     12  C   UNL     1      -6.113  12.395  21.277  0.00  0.00    +0.000 C 
ATOM     13  O   UNL     1      -5.059  13.319  21.505  0.00  0.00    +0.000 OA
ENDBRANCH   2  13
BRANCH   7  14
ATOM     14  O   UNL     1      -3.621  12.447  23.847  0.00  0.00    +0.000 OA
ATOM     15  C   UNL     1      -3.588  13.688  24.538  0.00  0.00    +0.000 C 
ENDBRANCH   7  14
ENDBRANCH   1   9
BRANCH   1  16
ATOM     16  C   UNL     1       1.892   8.902  18.402  0.00  0.00    +0.000 C 
ATOM     17  O   UNL     1       1.827   8.889  17.174  0.00  0.00    +0.000 OA
ATOM     18  N   UNL     1       2.137   7.807  19.214  0.00  0.00    +0.000 N 
ATOM     19  H   UNL     1       2.009   7.973  20.208  0.00  0.00    +0.000 HD
BRANCH  18  20
ATOM     20  C   UNL     1       2.522   6.520  18.788  0.00  0.00    +0.000 A 
ATOM     21  C   UNL     1       3.562   6.312  17.878  0.00  0.00    +0.000 A 
ATOM     22  C   UNL     1       3.908   5.022  17.466  0.00  0.00    +0.000 A 
ATOM     23  C   UNL     1       3.216   3.927  17.958  0.00  0.00    +0.000 A 
ATOM     24  C   UNL     1       2.178   4.102  18.881  0.00  0.00    +0.000 A 
ATOM     25  C   UNL     1       1.850   5.408  19.308  0.00  0.00    +0.000 A 
BRANCH  24  26
ATOM     26  C   UNL     1       1.407   2.914  19.398  0.00  0.00    +0.000 C 
ATOM     27  F   UNL     1       0.384   2.531  18.580  0.00  0.00    +0.000 F 
ATOM     28  F   UNL     1       2.188   1.811  19.556  0.00  0.00    +0.000 F 
ATOM     29  F   UNL     1       0.839   3.149  20.614  0.00  0.00    +0.000 F 
ENDBRANCH  24  26
ENDBRANCH  18  20
ENDBRANCH   1  16
TORSDOF 6
ENDMDL
MODEL 9
REMARK VINA RESULT:      -7.4      8.136      9.810
REMARK  Name = 
REMARK  8 active torsions:
REMARK  status: ('A' for Active; 'I' for Inactive)
REMARK    1  A    between atoms: C_1  and  O_2
REMARK    2  A    between atoms: O_2  and  C_3
REMARK    3  A    between atoms: C_8  and  O_9
REMARK    4  A    between atoms: O_9  and  C_10
REMARK    5  A    between atoms: N_12  and  C_13
REMARK    6  A    between atoms: C_13  and  C_14
REMARK    7  A    between atoms: N_16  and  C_17
REMARK    8  A    between atoms: C_21  and  C_22
REMARK                            x       y       z     vdW  Elec       q    Type
REMARK                         _______ _______ _______ _____ _____    ______ ____
ROOT
ATOM      1  C   UNL     1      -0.098   8.541  21.398  0.00  0.00    +0.000 C 
ENDROOT
BRANCH   1   9
ATOM      2  C   UNL     1       4.503   5.492  18.075  0.00  0.00    +0.000 A 
ATOM      3  C   UNL     1       3.734   6.637  17.824  0.00  0.00    +0.000 A 
ATOM      4  C   UNL     1       2.711   7.008  18.693  0.00  0.00    +0.000 A 
ATOM      5  C   UNL     1       2.440   6.233  19.826  0.00  0.00    +0.000 A 
ATOM      6  C   UNL     1       3.196   5.082  20.075  0.00  0.00    +0.000 A 
ATOM      7  C   UNL     1       4.243   4.708  19.216  0.00  0.00    +0.000 A 
ATOM      8  C   UNL     1       1.285   6.656  20.703  0.00  0.00    +0.000 C 
ATOM      9  N   UNL     1       1.261   8.111  20.994  0.00  0.00    +0.000 NA
ATOM     10  C   UNL     1       1.722   8.945  19.853  0.00  0.00    +0.000 C 
ATOM     11  C   UNL     1       1.873   8.238  18.496  0.00  0.00    +0.000 C 
BRANCH   2  13
ATOM     12  C   UNL     1       5.144   4.732  15.909  0.00  0.00    +0.000 C 
ATOM     13  O   UNL     1       5.503   5.316  17.152  0.00  0.00    +0.000 OA
ENDBRANCH   2  13
BRANCH   7  14
ATOM     14  O   UNL     1       5.051   3.626  19.443  0.00  0.00    +0.000 OA
ATOM     15  C   UNL     1       4.445   2.398  19.824  0.00  0.00    +0.000 C 
ENDBRANCH   7  14
ENDBRANCH   1   9
BRANCH   1  16
ATOM     16  C   UNL     1      -0.098   9.820  22.229  0.00  0.00    +0.000 C 
ATOM     17  O   UNL     1       0.634   9.901  23.213  0.00  0.00    +0.000 OA
ATOM     18  N   UNL     1      -1.008  10.777  21.812  0.00  0.00    +0.000 N 
ATOM     19  H   UNL     1      -1.631  10.481  21.067  0.00  0.00    +0.000 HD
BRANCH  18  20
ATOM     20  C   UNL     1      -1.145  12.081  22.329  0.00  0.00    +0.000 A 
ATOM     21  C   UNL     1      -0.228  13.098  22.051  0.00  0.00    +0.000 A 
ATOM     22  C   UNL     1      -0.387  14.376  22.593  0.00  0.00    +0.000 A 
ATOM     23  C   UNL     1      -1.465  14.650  23.420  0.00  0.00    +0.000 A 
ATOM     24  C   UNL     1      -2.408  13.656  23.706  0.00  0.00    +0.000 A 
ATOM     25  C   UNL     1      -2.251  12.373  23.137  0.00  0.00    +0.000 A 
BRANCH  24  26
ATOM     26  C   UNL     1      -3.567  13.945  24.626  0.00  0.00    +0.000 C 
ATOM     27  F   UNL     1      -4.010  12.849  25.306  0.00  0.00    +0.000 F 
ATOM     28  F   UNL     1      -3.264  14.872  25.575  0.00  0.00    +0.000 F 
ATOM     29  F   UNL     1      -4.653  14.430  23.961  0.00  0.00    +0.000 F 
ENDBRANCH  24  26
ENDBRANCH  18  20
ENDBRANCH   1  16
TORSDOF 6
ENDMDL
