MODEL 1
REMARK VINA RESULT:      -7.8      0.000      0.000
REMARK  Name = 
REMARK  2 active torsions:
REMARK  status: ('A' for Active; 'I' for Inactive)
REMARK    1  A    between atoms: N_1  and  C_2
REMARK    2  A    between atoms: C_9  and  N_10
REMARK                            x       y       z     vdW  Elec       q    Type
REMARK                         _______ _______ _______ _____ _____    ______ ____
ROOT
ATOM      1  C   UNL     1       7.358   5.031  14.132  0.00  0.00    +0.000 A 
ATOM      2  C   UNL     1       6.395   4.181  13.601  0.00  0.00    +0.000 A 
ATOM      3  C   UNL     1       5.324   3.740  14.387  0.00  0.00    +0.000 A 
ATOM      4  C   UNL     1       5.153   4.155  15.699  0.00  0.00    +0.000 A 
ATOM      5  N   UNL     1       4.083   3.689  16.371  0.00  0.00    +0.000 NA
ATOM      6  C   UNL     1       3.934   4.153  17.617  0.00  0.00    +0.000 A 
ATOM      7  C   UNL     1       4.804   5.038  18.256  0.00  0.00    +0.000 A 
ATOM      8  C   UNL     1       5.933   5.488  17.597  0.00  0.00    +0.000 A 
ATOM      9  C   UNL     1       6.101   5.067  16.251  0.00  0.00    +0.000 A 
ATOM     10  C   UNL     1       7.171   5.508  15.431  0.00  0.00    +0.000 A 
ATOM     11  C   UNL     1       4.308   5.337  19.651  0.00  0.00    +0.000 C 
ATOM     12  C   UNL     1       3.047   4.504  19.729  0.00  0.00    +0.000 A 
ATOM     13  C   UNL     1       2.169   4.375  20.792  0.00  0.00    +0.000 A 
ATOM     14  C   UNL     1       1.058   3.546  20.621  0.00  0.00    +0.000 A 
ATOM     15  C   UNL     1       0.843   2.873  19.405  0.00  0.00    +0.000 A 
ATOM     16  C   UNL     1       1.741   3.006  18.339  0.00  0.00    +0.000 A 
ATOM     17  C   UNL     1       2.844   3.821  18.510  0.00  0.00    +0.000 A 
ENDROOT
BRANCH   1  18
ATOM     18  N   UNL     1       8.352   5.580  13.316  0.00  0.00    +0.000 N 
ATOM     19  H   UNL     1       8.018   5.901  12.413  0.00  0.00    +0.000 HD
ATOM     20  H   UNL     1       9.189   5.011  13.237  0.00  0.00    +0.000 HD
ENDBRANCH   1  18
BRANCH   8  21
ATOM     21  N   UNL     1       6.724   6.490  18.186  0.00  0.00    +0.000 N 
ATOM     22  H   UNL     1       7.689   6.500  17.871  0.00  0.00    +0.000 HD
ATOM     23  H   UNL     1       6.317   7.418  18.160  0.00  0.00    +0.000 HD
ENDBRANCH   8  21
TORSDOF 2
ENDMDL
MODEL 2
REMARK VINA RESULT:      -7.5      1.769      6.055
REMARK  Name = 
REMARK  2 active torsions:
REMARK  status: ('A' for Active; 'I' for Inactive)
REMARK    1  A    between atoms: N_1  and  C_2
REMARK    2  A    between atoms: C_9  and  N_10
REMARK                            x       y       z     vdW  Elec       q    Type
REMARK                         _______ _______ _______ _____ _____    ______ ____
ROOT
ATOM      1  C   UNL     1       2.742   2.977  20.421  0.00  0.00    +0.000 A 
ATOM      2  C   UNL     1       2.080   2.334  19.382  0.00  0.00    +0.000 A 
ATOM      3  C   UNL     1       2.533   2.460  18.063  0.00  0.00    +0.000 A 
ATOM      4  C   UNL     1       3.669   3.188  17.741  0.00  0.00    +0.000 A 
ATOM      5  N   UNL     1       4.035   3.238  16.446  0.00  0.00    +0.000 NA
ATOM      6  C   UNL     1       5.161   3.912  16.189  0.00  0.00    +0.000 A 
ATOM      7  C   UNL     1       5.941   4.570  17.141  0.00  0.00    +0.000 A 
ATOM      8  C   UNL     1       5.553   4.568  18.468  0.00  0.00    +0.000 A 
ATOM      9  C   UNL     1       4.393   3.816  18.796  0.00  0.00    +0.000 A 
ATOM     10  C   UNL     1       3.921   3.665  20.124  0.00  0.00    +0.000 A 
ATOM     11  C   UNL     1       7.136   5.214  16.479  0.00  0.00    +0.000 C 
ATOM     12  C   UNL     1       6.935   4.846  15.025  0.00  0.00    +0.000 A 
ATOM     13  C   UNL     1       7.727   5.177  13.938  0.00  0.00    +0.000 A 
ATOM     14  C   UNL     1       7.337   4.708  12.682  0.00  0.00    +0.000 A 
ATOM     15  C   UNL     1       6.180   3.922  12.534  0.00  0.00    +0.000 A 
ATOM     16  C   UNL     1       5.383   3.599  13.640  0.00  0.00    +0.000 A 
ATOM     17  C   UNL     1       5.765   4.068  14.882  0.00  0.00    +0.000 A 
ENDROOT
BRANCH   1  18
ATOM     18  N   UNL     1       2.375   2.747  21.750  0.00  0.00    +0.000 N 
ATOM     19  H   UNL     1       2.033   3.570  22.235  0.00  0.00    +0.000 HD
ATOM     20  H   UNL     1       3.067   2.239  22.293  0.00  0.00    +0.000 HD
ENDBRANCH   1  18
BRANCH   8  21
ATOM     21  N   UNL     1       6.415   5.103  19.442  0.00  0.00    +0.000 N 
ATOM     22  H   UNL     1       6.587   4.489  20.231  0.00  0.00    +0.000 HD
ATOM     23  H   UNL     1       7.279   5.485  19.075  0.00  0.00    +0.000 HD
ENDBRANCH   8  21
TORSDOF 2
ENDMDL
MODEL 3
REMARK VINA RESULT:      -7.4      3.582      6.463
REMARK  Name = 
REMARK  2 active torsions:
REMARK  status: ('A' for Active; 'I' for Inactive)
REMARK    1  A    between atoms: N_1  and  C_2
REMARK    2  A    between atoms: C_9  and  N_10
REMARK                            x       y       z     vdW  Elec       q    Type
REMARK                         _______ _______ _______ _____ _____    ______ ____
ROOT
ATOM      1  C   UNL     1       0.747   9.232  20.351  0.00  0.00    +0.000 A 
ATOM      2  C   UNL     1       0.990   9.899  19.157  0.00  0.00    +0.000 A 
ATOM      3  C   UNL     1       1.862   9.357  18.204  0.00  0.00    +0.000 A 
ATOM      4  C   UNL     1       2.482   8.131  18.386  0.00  0.00    +0.000 A 
ATOM      5  N   UNL     1       3.292   7.685  17.407  0.00  0.00    +0.000 NA
ATOM      6  C   UNL     1       3.831   6.477  17.605  0.00  0.00    +0.000 A 
ATOM      7  C   UNL     1       3.638   5.686  18.739  0.00  0.00    +0.000 A 
ATOM      8  C   UNL     1       2.849   6.150  19.775  0.00  0.00    +0.000 A 
ATOM      9  C   UNL     1       2.210   7.404  19.583  0.00  0.00    +0.000 A 
ATOM     10  C   UNL     1       1.315   7.968  20.527  0.00  0.00    +0.000 A 
ATOM     11  C   UNL     1       4.402   4.390  18.604  0.00  0.00    +0.000 C 
ATOM     12  C   UNL     1       5.061   4.544  17.251  0.00  0.00    +0.000 A 
ATOM     13  C   UNL     1       5.901   3.658  16.599  0.00  0.00    +0.000 A 
ATOM     14  C   UNL     1       6.381   4.022  15.339  0.00  0.00    +0.000 A 
ATOM     15  C   UNL     1       6.015   5.249  14.757  0.00  0.00    +0.000 A 
ATOM     16  C   UNL     1       5.169   6.141  15.428  0.00  0.00    +0.000 A 
ATOM     17  C   UNL     1       4.699   5.784  16.678  0.00  0.00    +0.000 A 
ENDROOT
BRANCH   1  18
ATOM     18  N   UNL     1      -0.222   9.700  21.244  0.00  0.00    +0.000 N 
ATOM     19  H   UNL     1       0.134   9.907  22.172  0.00  0.00    +0.000 HD
ATOM     20  H   UNL     1      -1.069   9.142  21.271  0.00  0.00    +0.000 HD
ENDBRANCH   1  18
BRANCH   8  21
ATOM     21  N   UNL     1       2.539   5.294  20.846  0.00  0.00    +0.000 N 
ATOM     22  H   UNL     1       1.723   4.710  20.692  0.00  0.00    +0.000 HD
ATOM     23  H   UNL     1       3.322   4.751  21.192  0.00  0.00    +0.000 HD
ENDBRANCH   8  21
TORSDOF 2
ENDMDL
MODEL 4
REMARK VINA RESULT:      -7.3      5.445      8.142
REMARK  Name = 
REMARK  2 active torsions:
REMARK  status: ('A' for Active; 'I' for Inactive)
REMARK    1  A    between atoms: N_1  and  C_2
REMARK    2  A    between atoms: C_9  and  N_10
REMARK                            x       y       z     vdW  Elec       q    Type
REMARK                         _______ _______ _______ _____ _____    ______ ____
ROOT
ATOM      1  C   UNL     1      -0.834  11.362  22.186  0.00  0.00    +0.000 A 
ATOM      2  C   UNL     1      -0.691  10.302  23.073  0.00  0.00    +0.000 A 
ATOM      3  C   UNL     1      -0.018   9.137  22.688  0.00  0.00    +0.000 A 
ATOM      4  C   UNL     1       0.564   9.002  21.436  0.00  0.00    +0.000 A 
ATOM      5  N   UNL     1       1.204   7.849  21.162  0.00  0.00    +0.000 NA
ATOM      6  C   UNL     1       1.789   7.783  19.961  0.00  0.00    +0.000 A 
ATOM      7  C   UNL     1       1.756   8.788  18.993  0.00  0.00    +0.000 A 
ATOM      8  C   UNL     1       1.062   9.958  19.240  0.00  0.00    +0.000 A 
ATOM      9  C   UNL     1       0.473  10.096  20.525  0.00  0.00    +0.000 A 
ATOM     10  C   UNL     1      -0.204  11.269  20.943  0.00  0.00    +0.000 A 
ATOM     11  C   UNL     1       2.530   8.357  17.770  0.00  0.00    +0.000 C 
ATOM     12  C   UNL     1       3.004   6.974  18.160  0.00  0.00    +0.000 A 
ATOM     13  C   UNL     1       3.761   6.084  17.417  0.00  0.00    +0.000 A 
ATOM     14  C   UNL     1       4.085   4.858  18.002  0.00  0.00    +0.000 A 
ATOM     15  C   UNL     1       3.656   4.546  19.305  0.00  0.00    +0.000 A 
ATOM     16  C   UNL     1       2.886   5.452  20.046  0.00  0.00    +0.000 A 
ATOM     17  C   UNL     1       2.559   6.663  19.465  0.00  0.00    +0.000 A 
ENDROOT
BRANCH   1  18
ATOM     18  N   UNL     1      -1.386  12.575  22.609  0.00  0.00    +0.000 N 
ATOM     19  H   UNL     1      -0.787  13.380  22.454  0.00  0.00    +0.000 HD
ATOM     20  H   UNL     1      -1.769  12.555  23.549  0.00  0.00    +0.000 HD
ENDBRANCH   1  18
BRANCH   8  21
ATOM     21  N   UNL     1       1.154  11.023  18.327  0.00  0.00    +0.000 N 
ATOM     22  H   UNL     1       0.271  11.289  17.904  0.00  0.00    +0.000 HD
ATOM     23  H   UNL     1       1.657  11.832  18.672  0.00  0.00    +0.000 HD
ENDBRANCH   8  21
TORSDOF 2
ENDMDL
MODEL 5
REMARK VINA RESULT:      -7.3      1.484      6.031
REMARK  Name = 
REMARK  2 active torsions:
REMARK  status: ('A' for Active; 'I' for Inactive)
REMARK    1  A    between atoms: N_1  and  C_2
REMARK    2  A    between atoms: C_9  and  N_10
REMARK                            x       y       z     vdW  Elec       q    Type
REMARK                         _______ _______ _______ _____ _____    ______ ____
ROOT
ATOM      1  C   UNL     1       2.754   4.518  20.121  0.00  0.00    +0.000 A 
ATOM      2  C   UNL     1       1.973   3.797  19.226  0.00  0.00    +0.000 A 
ATOM      3  C   UNL     1       2.386   3.624  17.900  0.00  0.00    +0.000 A 
ATOM      4  C   UNL     1       3.593   4.121  17.434  0.00  0.00    +0.000 A 
ATOM      5  N   UNL     1       3.912   3.892  16.145  0.00  0.00    +0.000 NA
ATOM      6  C   UNL     1       5.106   4.349  15.753  0.00  0.00    +0.000 A 
ATOM      7  C   UNL     1       6.003   5.052  16.559  0.00  0.00    +0.000 A 
ATOM      8  C   UNL     1       5.671   5.338  17.870  0.00  0.00    +0.000 A 
ATOM      9  C   UNL     1       4.436   4.822  18.347  0.00  0.00    +0.000 A 
ATOM     10  C   UNL     1       4.001   4.974  19.687  0.00  0.00    +0.000 A 
ATOM     11  C   UNL     1       7.245   5.400  15.773  0.00  0.00    +0.000 C 
ATOM     12  C   UNL     1       6.940   4.811  14.413  0.00  0.00    +0.000 A 
ATOM     13  C   UNL     1       7.724   4.832  13.272  0.00  0.00    +0.000 A 
ATOM     14  C   UNL     1       7.227   4.206  12.128  0.00  0.00    +0.000 A 
ATOM     15  C   UNL     1       5.972   3.572  12.142  0.00  0.00    +0.000 A 
ATOM     16  C   UNL     1       5.183   3.562  13.300  0.00  0.00    +0.000 A 
ATOM     17  C   UNL     1       5.672   4.187  14.431  0.00  0.00    +0.000 A 
ENDROOT
BRANCH   1  18
ATOM     18  N   UNL     1       2.414   4.579  21.476  0.00  0.00    +0.000 N 
ATOM     19  H   UNL     1       1.456   4.866  21.651  0.00  0.00    +0.000 HD
ATOM     20  H   UNL     1       3.079   5.085  22.052  0.00  0.00    +0.000 HD
ENDBRANCH   1  18
BRANCH   8  21
ATOM     21  N   UNL     1       6.633   5.915  18.718  0.00  0.00    +0.000 N 
ATOM     22  H   UNL     1       6.532   5.665  19.696  0.00  0.00    +0.000 HD
ATOM     23  H   UNL     1       7.590   5.803  18.405  0.00  0.00    +0.000 HD
ENDBRANCH   8  21
TORSDOF 2
ENDMDL
MODEL 6
REMARK VINA RESULT:      -7.2      3.876      5.822
REMARK  Name = 
REMARK  2 active torsions:
REMARK  status: ('A' for Active; 'I' for Inactive)
REMARK    1  A    between atoms: N_1  and  C_2
REMARK    2  A    between atoms: C_9  and  N_10
REMARK                            x       y       z     vdW  Elec       q    Type
REMARK                         _______ _______ _______ _____ _____    ______ ____
ROOT
ATOM      1  C   UNL     1       3.909   2.616  19.680  0.00  0.00    +0.000 A 
ATOM      2  C   UNL     1       3.076   2.716  20.788  0.00  0.00    +0.000 A 
ATOM      3  C   UNL     1       2.417   3.917  21.076  0.00  0.00    +0.000 A 
ATOM      4  C   UNL     1       2.530   5.034  20.262  0.00  0.00    +0.000 A 
ATOM      5  N   UNL     1       1.846   6.140  20.613  0.00  0.00    +0.000 NA
ATOM      6  C   UNL     1       1.949   7.175  19.774  0.00  0.00    +0.000 A 
ATOM      7  C   UNL     1       2.718   7.195  18.609  0.00  0.00    +0.000 A 
ATOM      8  C   UNL     1       3.465   6.085  18.260  0.00  0.00    +0.000 A 
ATOM      9  C   UNL     1       3.341   4.940  19.092  0.00  0.00    +0.000 A 
ATOM     10  C   UNL     1       3.989   3.710  18.815  0.00  0.00    +0.000 A 
ATOM     11  C   UNL     1       2.583   8.532  17.919  0.00  0.00    +0.000 C 
ATOM     12  C   UNL     1       1.643   9.276  18.843  0.00  0.00    +0.000 A 
ATOM     13  C   UNL     1       1.165  10.569  18.719  0.00  0.00    +0.000 A 
ATOM     14  C   UNL     1       0.292  11.037  19.704  0.00  0.00    +0.000 A 
ATOM     15  C   UNL     1      -0.088  10.214  20.779  0.00  0.00    +0.000 A 
ATOM     16  C   UNL     1       0.407   8.909  20.897  0.00  0.00    +0.000 A 
ATOM     17  C   UNL     1       1.276   8.448  19.927  0.00  0.00    +0.000 A 
ENDROOT
BRANCH   1  18
ATOM     18  N   UNL     1       4.461   1.385  19.313  0.00  0.00    +0.000 N 
ATOM     19  H   UNL     1       4.793   0.829  20.094  0.00  0.00    +0.000 HD
ATOM     20  H   UNL     1       5.142   1.440  18.562  0.00  0.00    +0.000 HD
ENDBRANCH   1  18
BRANCH   8  21
ATOM     21  N   UNL     1       4.118   6.054  17.015  0.00  0.00    +0.000 N 
ATOM     22  H   UNL     1       3.495   6.056  16.215  0.00  0.00    +0.000 HD
ATOM     23  H   UNL     1       4.856   6.741  16.910  0.00  0.00    +0.000 HD
ENDBRANCH   8  21
TORSDOF 2
ENDMDL
MODEL 7
REMARK VINA RESULT:      -7.0      3.556      5.284
REMARK  Name = 
REMARK  2 active torsions:
REMARK  status: ('A' for Active; 'I' for Inactive)
REMARK    1  A    between atoms: N_1  and  C_2
REMARK    2  A    between atoms: C_9  and  N_10
REMARK                            x       y       z     vdW  Elec       q    Type
REMARK                         _______ _______ _______ _____ _____    ______ ____
ROOT
ATOM      1  C   UNL     1       3.727   1.952  18.335  0.00  0.00    +0.000 A 
ATOM      2  C   UNL     1       4.020   2.630  17.159  0.00  0.00    +0.000 A 
ATOM      3  C   UNL     1       3.689   3.983  17.016  0.00  0.00    +0.000 A 
ATOM      4  C   UNL     1       3.099   4.709  18.040  0.00  0.00    +0.000 A 
ATOM      5  N   UNL     1       2.831   6.009  17.814  0.00  0.00    +0.000 NA
ATOM      6  C   UNL     1       2.306   6.680  18.845  0.00  0.00    +0.000 A 
ATOM      7  C   UNL     1       1.999   6.130  20.091  0.00  0.00    +0.000 A 
ATOM      8  C   UNL     1       2.222   4.786  20.323  0.00  0.00    +0.000 A 
ATOM      9  C   UNL     1       2.833   4.046  19.275  0.00  0.00    +0.000 A 
ATOM     10  C   UNL     1       3.188   2.679  19.399  0.00  0.00    +0.000 A 
ATOM     11  C   UNL     1       1.426   7.192  21.000  0.00  0.00    +0.000 C 
ATOM     12  C   UNL     1       1.439   8.417  20.112  0.00  0.00    +0.000 A 
ATOM     13  C   UNL     1       1.014   9.699  20.413  0.00  0.00    +0.000 A 
ATOM     14  C   UNL     1       1.136  10.675  19.422  0.00  0.00    +0.000 A 
ATOM     15  C   UNL     1       1.677  10.359  18.163  0.00  0.00    +0.000 A 
ATOM     16  C   UNL     1       2.099   9.056  17.867  0.00  0.00    +0.000 A 
ATOM     17  C   UNL     1       1.972   8.089  18.846  0.00  0.00    +0.000 A 
ENDROOT
BRANCH   1  18
ATOM     18  N   UNL     1       4.174   0.642  18.533  0.00  0.00    +0.000 N 
ATOM     19  H   UNL     1       4.695   0.506  19.394  0.00  0.00    +0.000 HD
ATOM     20  H   UNL     1       4.644   0.235  17.730  0.00  0.00    +0.000 HD
ENDBRANCH   1  18
BRANCH   8  21
ATOM     21  N   UNL     1       2.052   4.270  21.620  0.00  0.00    +0.000 N 
ATOM     22  H   UNL     1       1.370   4.768  22.182  0.00  0.00    +0.000 HD
ATOM     23  H   UNL     1       1.901   3.268  21.658  0.00  0.00    +0.000 HD
ENDBRANCH   8  21
TORSDOF 2
ENDMDL
MODEL 8
REMARK VINA RESULT:      -7.0      3.214      4.208
REMARK  Name = 
REMARK  2 active torsions:
REMARK  status: ('A' for Active; 'I' for Inactive)
REMARK    1  A    between atoms: N_1  and  C_2
REMARK    2  A    between atoms: C_9  and  N_10
REMARK                            x       y       z     vdW  Elec       q    Type
REMARK                         _______ _______ _______ _____ _____    ______ ____
ROOT
ATOM      1  C   UNL     1       5.525   4.283  16.076  0.00  0.00    +0.000 A 
ATOM      2  C   UNL     1       5.543   5.553  15.514  0.00  0.00    +0.000 A 
ATOM      3  C   UNL     1       4.778   6.587  16.067  0.00  0.00    +0.000 A 
ATOM      4  C   UNL     1       4.009   6.405  17.206  0.00  0.00    +0.000 A 
ATOM      5  N   UNL     1       3.318   7.464  17.673  0.00  0.00    +0.000 NA
ATOM      6  C   UNL     1       2.629   7.254  18.800  0.00  0.00    +0.000 A 
ATOM      7  C   UNL     1       2.556   6.041  19.485  0.00  0.00    +0.000 A 
ATOM      8  C   UNL     1       3.220   4.932  18.993  0.00  0.00    +0.000 A 
ATOM      9  C   UNL     1       4.012   5.123  17.830  0.00  0.00    +0.000 A 
ATOM     10  C   UNL     1       4.804   4.095  17.258  0.00  0.00    +0.000 A 
ATOM     11  C   UNL     1       1.689   6.189  20.713  0.00  0.00    +0.000 C 
ATOM     12  C   UNL     1       1.269   7.641  20.637  0.00  0.00    +0.000 A 
ATOM     13  C   UNL     1       0.451   8.344  21.504  0.00  0.00    +0.000 A 
ATOM     14  C   UNL     1       0.214   9.692  21.227  0.00  0.00    +0.000 A 
ATOM     15  C   UNL     1       0.795  10.309  20.104  0.00  0.00    +0.000 A 
ATOM     16  C   UNL     1       1.617   9.585  19.230  0.00  0.00    +0.000 A 
ATOM     17  C   UNL     1       1.846   8.250  19.500  0.00  0.00    +0.000 A 
ENDROOT
BRANCH   1  18
ATOM     18  N   UNL     1       6.388   3.285  15.611  0.00  0.00    +0.000 N 
ATOM     19  H   UNL     1       7.244   3.193  16.148  0.00  0.00    +0.000 HD
ATOM     20  H   UNL     1       6.561   3.315  14.611  0.00  0.00    +0.000 HD
ENDBRANCH   1  18
BRANCH   8  21
ATOM     21  N   UNL     1       3.266   3.756  19.762  0.00  0.00    +0.000 N 
ATOM     22  H   UNL     1       4.122   3.637  20.294  0.00  0.00    +0.000 HD
ATOM     23  H   UNL     1       2.447   3.596  20.337  0.00  0.00    +0.000 HD
ENDBRANCH   8  21
TORSDOF 2
ENDMDL
MODEL 9
REMARK VINA RESULT:      -7.0      4.056      5.001
REMARK  Name = 
REMARK  2 active torsions:
REMARK  status: ('A' for Active; 'I' for Inactive)
REMARK    1  A    between atoms: N_1  and  C_2
REMARK    2  A    between atoms: C_9  and  N_10
REMARK                            x       y       z     vdW  Elec       q    Type
REMARK                         _______ _______ _______ _____ _____    ______ ____
ROOT
ATOM      1  C   UNL     1       5.371   4.802  16.899  0.00  0.00    +0.000 A 
ATOM      2  C   UNL     1       5.339   5.902  16.052  0.00  0.00    +0.000 A 
ATOM      3  C   UNL     1       4.503   6.991  16.330  0.00  0.00    +0.000 A 
ATOM      4  C   UNL     1       3.711   7.039  17.467  0.00  0.00    +0.000 A 
ATOM      5  N   UNL     1       2.952   8.135  17.657  0.00  0.00    +0.000 NA
ATOM      6  C   UNL     1       2.241   8.158  18.790  0.00  0.00    +0.000 A 
ATOM      7  C   UNL     1       2.214   7.140  19.744  0.00  0.00    +0.000 A 
ATOM      8  C   UNL     1       2.949   5.987  19.540  0.00  0.00    +0.000 A 
ATOM      9  C   UNL     1       3.765   5.943  18.378  0.00  0.00    +0.000 A 
ATOM     10  C   UNL     1       4.627   4.858  18.080  0.00  0.00    +0.000 A 
ATOM     11  C   UNL     1       1.303   7.523  20.887  0.00  0.00    +0.000 C 
ATOM     12  C   UNL     1       0.809   8.888  20.460  0.00  0.00    +0.000 A 
ATOM     13  C   UNL     1      -0.071   9.728  21.121  0.00  0.00    +0.000 A 
ATOM     14  C   UNL     1      -0.370  10.955  20.527  0.00  0.00    +0.000 A 
ATOM     15  C   UNL     1       0.210  11.322  19.300  0.00  0.00    +0.000 A 
ATOM     16  C   UNL     1       1.095  10.462  18.637  0.00  0.00    +0.000 A 
ATOM     17  C   UNL     1       1.387   9.244  19.221  0.00  0.00    +0.000 A 
ENDROOT
BRANCH   1  18
ATOM     18  N   UNL     1       6.299   3.775  16.699  0.00  0.00    +0.000 N 
ATOM     19  H   UNL     1       7.150   4.070  16.231  0.00  0.00    +0.000 HD
ATOM     20  H   UNL     1       5.908   2.932  16.291  0.00  0.00    +0.000 HD
ENDBRANCH   1  18
BRANCH   8  21
ATOM     21  N   UNL     1       3.035   5.031  20.568  0.00  0.00    +0.000 N 
ATOM     22  H   UNL     1       2.972   4.069  20.250  0.00  0.00    +0.000 HD
ATOM     23  H   UNL     1       3.817   5.161  21.199  0.00  0.00    +0.000 HD
ENDBRANCH   8  21
TORSDOF 2
ENDMDL
