MODEL 1
REMARK VINA RESULT:      -9.4      0.000      0.000
REMARK  Name = 
REMARK  3 active torsions:
REMARK  status: ('A' for Active; 'I' for Inactive)
REMARK    1  A    between atoms: C_2  and  C_21
REMARK    2  A    between atoms: N_3  and  C_4
REMARK    3  A    between atoms: C_6  and  C_7
REMARK                            x       y       z     vdW  Elec       q    Type
REMARK                         _______ _______ _______ _____ _____    ______ ____
ROOT
ATOM      1  C   UNL     1       3.126   5.361  18.693  0.00  0.00    +0.000 A 
ATOM      2  C   UNL     1       2.711   6.648  19.087  0.00  0.00    +0.000 A 
ATOM      3  C   UNL     1       1.917   6.834  20.232  0.00  0.00    +0.000 A 
ATOM      4  C   UNL     1       1.557   5.707  20.989  0.00  0.00    +0.000 A 
ATOM      5  C   UNL     1       1.949   4.426  20.609  0.00  0.00    +0.000 A 
ATOM      6  C   UNL     1       2.720   4.254  19.462  0.00  0.00    +0.000 A 
ATOM      7 CL   UNL     1       3.179   2.641  19.034  0.00  0.00    +0.000 Cl
ENDROOT
BRANCH   3   8
ATOM      8  C   UNL     1       1.381   8.129  20.657  0.00  0.00    +0.000 A 
ATOM      9  N   UNL     1       0.966   8.441  21.872  0.00  0.00    +0.000 NA
ATOM     10  C   UNL     1       0.373   9.659  21.716  0.00  0.00    +0.000 A 
ATOM     11  C   UNL     1      -0.333  10.439  22.637  0.00  0.00    +0.000 A 
ATOM     12  C   UNL     1      -0.907  11.624  22.172  0.00  0.00    +0.000 A 
ATOM     13 CL   UNL     1      -1.877  12.556  23.249  0.00  0.00    +0.000 Cl
ATOM     14  C   UNL     1      -0.737  12.050  20.849  0.00  0.00    +0.000 A 
ATOM     15  C   UNL     1      -0.003  11.288  19.924  0.00  0.00    +0.000 A 
ATOM     16  C   UNL     1       0.506  10.087  20.404  0.00  0.00    +0.000 A 
ATOM     17  O   UNL     1       1.169   9.105  19.712  0.00  0.00    +0.000 OA
ENDBRANCH   3   8
BRANCH   1  20
ATOM     18  O   UNL     1       6.044   5.176  18.426  0.00  0.00    +0.000 OA
ATOM     19  C   UNL     1       5.295   5.071  17.461  0.00  0.00    +0.000 C 
ATOM     20  N   UNL     1       3.916   5.123  17.537  0.00  0.00    +0.000 N 
ATOM     21  H   UNL     1       3.416   4.871  16.688  0.00  0.00    +0.000 HD
BRANCH  19  22
ATOM     22  C   UNL     1       5.819   4.848  16.128  0.00  0.00    +0.000 A 
ATOM     23  C   UNL     1       6.931   5.397  15.516  0.00  0.00    +0.000 A 
ATOM     24  C   UNL     1       6.971   4.898  14.193  0.00  0.00    +0.000 A 
ATOM     25  C   UNL     1       7.810   5.081  13.080  0.00  0.00    +0.000 A 
ATOM     26  C   UNL     1       7.504   4.409  11.889  0.00  0.00    +0.000 A 
ATOM     27  C   UNL     1       6.392   3.567  11.806  0.00  0.00    +0.000 A 
ATOM     28  C   UNL     1       5.550   3.366  12.907  0.00  0.00    +0.000 A 
ATOM     29  C   UNL     1       5.875   4.051  14.076  0.00  0.00    +0.000 A 
ATOM     30  O   UNL     1       5.181   4.004  15.253  0.00  0.00    +0.000 OA
ENDBRANCH  19  22
ENDBRANCH   1  20
TORSDOF 3
ENDMDL
MODEL 2
REMARK VINA RESULT:      -9.1      0.541      1.102
REMARK  Name = 
REMARK  3 active torsions:
REMARK  status: ('A' for Active; 'I' for Inactive)
REMARK    1  A    between atoms: C_2  and  C_21
REMARK    2  A    between atoms: N_3  and  C_4
REMARK    3  A    between atoms: C_6  and  C_7
REMARK                            x       y       z     vdW  Elec       q    Type
REMARK                         _______ _______ _______ _____ _____    ______ ____
ROOT
ATOM      1  C   UNL     1       3.140   5.359  18.717  0.00  0.00    +0.000 A 
ATOM      2  C   UNL     1       2.680   6.639  19.083  0.00  0.00    +0.000 A 
ATOM      3  C   UNL     1       1.973   6.840  20.282  0.00  0.00    +0.000 A 
ATOM      4  C   UNL     1       1.747   5.735  21.120  0.00  0.00    +0.000 A 
ATOM      5  C   UNL     1       2.185   4.461  20.770  0.00  0.00    +0.000 A 
ATOM      6  C   UNL     1       2.868   4.272  19.571  0.00  0.00    +0.000 A 
ATOM      7 CL   UNL     1       3.389   2.669  19.183  0.00  0.00    +0.000 Cl
ENDROOT
BRANCH   3   8
ATOM      8  C   UNL     1       1.395   8.121  20.688  0.00  0.00    +0.000 A 
ATOM      9  N   UNL     1       0.991   8.445  21.904  0.00  0.00    +0.000 NA
ATOM     10  C   UNL     1       0.348   9.636  21.733  0.00  0.00    +0.000 A 
ATOM     11  C   UNL     1      -0.370  10.408  22.651  0.00  0.00    +0.000 A 
ATOM     12  C   UNL     1      -0.999  11.560  22.171  0.00  0.00    +0.000 A 
ATOM     13 CL   UNL     1      -1.984  12.478  23.246  0.00  0.00    +0.000 Cl
ATOM     14  C   UNL     1      -0.871  11.961  20.835  0.00  0.00    +0.000 A 
ATOM     15  C   UNL     1      -0.127  11.207  19.913  0.00  0.00    +0.000 A 
ATOM     16  C   UNL     1       0.439  10.038  20.410  0.00  0.00    +0.000 A 
ATOM     17  O   UNL     1       1.127   9.067  19.727  0.00  0.00    +0.000 OA
ENDBRANCH   3   8
BRANCH   1  20
ATOM     18  O   UNL     1       6.029   5.401  18.194  0.00  0.00    +0.000 OA
ATOM     19  C   UNL     1       5.212   5.164  17.311  0.00  0.00    +0.000 C 
ATOM     20  N   UNL     1       3.845   5.106  17.511  0.00  0.00    +0.000 N 
ATOM     21  H   UNL     1       3.298   4.753  16.730  0.00  0.00    +0.000 HD
BRANCH  19  22
ATOM     22  C   UNL     1       5.636   4.891  15.953  0.00  0.00    +0.000 A 
ATOM     23  C   UNL     1       5.153   3.961  15.050  0.00  0.00    +0.000 A 
ATOM     24  C   UNL     1       5.948   4.055  13.884  0.00  0.00    +0.000 A 
ATOM     25  C   UNL     1       5.989   3.392  12.645  0.00  0.00    +0.000 A 
ATOM     26  C   UNL     1       6.971   3.762  11.717  0.00  0.00    +0.000 A 
ATOM     27  C   UNL     1       7.888   4.775  12.008  0.00  0.00    +0.000 A 
ATOM     28  C   UNL     1       7.856   5.453  13.233  0.00  0.00    +0.000 A 
ATOM     29  C   UNL     1       6.874   5.061  14.140  0.00  0.00    +0.000 A 
ATOM     30  O   UNL     1       6.679   5.582  15.388  0.00  0.00    +0.000 OA
ENDBRANCH  19  22
ENDBRANCH   1  20
TORSDOF 3
ENDMDL
MODEL 3
REMARK VINA RESULT:      -9.1      0.845      1.214
REMARK  Name = 
REMARK  3 active torsions:
REMARK  status: ('A' for Active; 'I' for Inactive)
REMARK    1  A    between atoms: C_2  and  C_21
REMARK    2  A    between atoms: N_3  and  C_4
REMARK    3  A    between atoms: C_6  and  C_7
REMARK                            x       y       z     vdW  Elec       q    Type
REMARK                         _______ _______ _______ _____ _____    ______ ____
ROOT
ATOM      1  C   UNL     1       3.138   5.403  18.775  0.00  0.00    +0.000 A 
ATOM      2  C   UNL     1       2.586   6.664  19.076  0.00  0.00    +0.000 A 
ATOM      3  C   UNL     1       1.803   6.856  20.227  0.00  0.00    +0.000 A 
ATOM      4  C   UNL     1       1.592   5.764  21.085  0.00  0.00    +0.000 A 
ATOM      5  C   UNL     1       2.121   4.508  20.799  0.00  0.00    +0.000 A 
ATOM      6  C   UNL     1       2.879   4.326  19.646  0.00  0.00    +0.000 A 
ATOM      7 CL   UNL     1       3.512   2.745  19.337  0.00  0.00    +0.000 Cl
ENDROOT
BRANCH   3   8
ATOM      8  C   UNL     1       1.132   8.113  20.561  0.00  0.00    +0.000 A 
ATOM      9  N   UNL     1       1.284   9.269  19.940  0.00  0.00    +0.000 NA
ATOM     10  C   UNL     1       0.629  10.161  20.737  0.00  0.00    +0.000 A 
ATOM     11  C   UNL     1       0.536  11.553  20.639  0.00  0.00    +0.000 A 
ATOM     12  C   UNL     1      -0.145  12.227  21.656  0.00  0.00    +0.000 A 
ATOM     13 CL   UNL     1      -0.187  13.949  21.628  0.00  0.00    +0.000 Cl
ATOM     14  C   UNL     1      -0.763  11.536  22.706  0.00  0.00    +0.000 A 
ATOM     15  C   UNL     1      -0.699  10.135  22.797  0.00  0.00    +0.000 A 
ATOM     16  C   UNL     1       0.033   9.500  21.800  0.00  0.00    +0.000 A 
ATOM     17  O   UNL     1       0.344   8.169  21.688  0.00  0.00    +0.000 OA
ENDBRANCH   3   8
BRANCH   1  20
ATOM     18  O   UNL     1       6.058   5.292  18.484  0.00  0.00    +0.000 OA
ATOM     19  C   UNL     1       5.303   5.142  17.529  0.00  0.00    +0.000 C 
ATOM     20  N   UNL     1       3.923   5.158  17.618  0.00  0.00    +0.000 N 
ATOM     21  H   UNL     1       3.423   4.871  16.781  0.00  0.00    +0.000 HD
BRANCH  19  22
ATOM     22  C   UNL     1       5.820   4.899  16.197  0.00  0.00    +0.000 A 
ATOM     23  C   UNL     1       6.929   5.440  15.572  0.00  0.00    +0.000 A 
ATOM     24  C   UNL     1       6.963   4.923  14.256  0.00  0.00    +0.000 A 
ATOM     25  C   UNL     1       7.797   5.089  13.137  0.00  0.00    +0.000 A 
ATOM     26  C   UNL     1       7.485   4.400  11.957  0.00  0.00    +0.000 A 
ATOM     27  C   UNL     1       6.373   3.558  11.891  0.00  0.00    +0.000 A 
ATOM     28  C   UNL     1       5.536   3.372  12.999  0.00  0.00    +0.000 A 
ATOM     29  C   UNL     1       5.866   4.073  14.157  0.00  0.00    +0.000 A 
ATOM     30  O   UNL     1       5.179   4.043  15.338  0.00  0.00    +0.000 OA
ENDBRANCH  19  22
ENDBRANCH   1  20
TORSDOF 3
ENDMDL
MODEL 4
REMARK VINA RESULT:      -8.9      0.997      1.638
REMARK  Name = 
REMARK  3 active torsions:
REMARK  status: ('A' for Active; 'I' for Inactive)
REMARK    1  A    between atoms: C_2  and  C_21
REMARK    2  A    between atoms: N_3  and  C_4
REMARK    3  A    between atoms: C_6  and  C_7
REMARK                            x       y       z     vdW  Elec       q    Type
REMARK                         _______ _______ _______ _____ _____    ______ ____
ROOT
ATOM      1  C   UNL     1       3.140   5.392  18.730  0.00  0.00    +0.000 A 
ATOM      2  C   UNL     1       2.558   6.641  19.022  0.00  0.00    +0.000 A 
ATOM      3  C   UNL     1       1.859   6.851  20.223  0.00  0.00    +0.000 A 
ATOM      4  C   UNL     1       1.763   5.790  21.139  0.00  0.00    +0.000 A 
ATOM      5  C   UNL     1       2.323   4.545  20.863  0.00  0.00    +0.000 A 
ATOM      6  C   UNL     1       2.997   4.344  19.661  0.00  0.00    +0.000 A 
ATOM      7 CL   UNL     1       3.673   2.779  19.367  0.00  0.00    +0.000 Cl
ENDROOT
BRANCH   3   8
ATOM      8  C   UNL     1       1.160   8.093  20.559  0.00  0.00    +0.000 A 
ATOM      9  N   UNL     1       1.266   9.245  19.921  0.00  0.00    +0.000 NA
ATOM     10  C   UNL     1       0.605  10.129  20.723  0.00  0.00    +0.000 A 
ATOM     11  C   UNL     1       0.470  11.516  20.610  0.00  0.00    +0.000 A 
ATOM     12  C   UNL     1      -0.205  12.183  21.635  0.00  0.00    +0.000 A 
ATOM     13 CL   UNL     1      -0.296  13.903  21.588  0.00  0.00    +0.000 Cl
ATOM     14  C   UNL     1      -0.778  11.488  22.707  0.00  0.00    +0.000 A 
ATOM     15  C   UNL     1      -0.674  10.091  22.813  0.00  0.00    +0.000 A 
ATOM     16  C   UNL     1       0.053   9.465  21.806  0.00  0.00    +0.000 A 
ATOM     17  O   UNL     1       0.398   8.141  21.702  0.00  0.00    +0.000 OA
ENDBRANCH   3   8
BRANCH   1  20
ATOM     18  O   UNL     1       6.013   5.590  18.159  0.00  0.00    +0.000 OA
ATOM     19  C   UNL     1       5.201   5.263  17.301  0.00  0.00    +0.000 C 
ATOM     20  N   UNL     1       3.843   5.128  17.525  0.00  0.00    +0.000 N 
ATOM     21  H   UNL     1       3.310   4.706  16.770  0.00  0.00    +0.000 HD
BRANCH  19  22
ATOM     22  C   UNL     1       5.624   4.955  15.949  0.00  0.00    +0.000 A 
ATOM     23  C   UNL     1       5.135   4.007  15.069  0.00  0.00    +0.000 A 
ATOM     24  C   UNL     1       5.931   4.069  13.901  0.00  0.00    +0.000 A 
ATOM     25  C   UNL     1       5.968   3.376  12.678  0.00  0.00    +0.000 A 
ATOM     26  C   UNL     1       6.952   3.719  11.741  0.00  0.00    +0.000 A 
ATOM     27  C   UNL     1       7.874   4.734  12.008  0.00  0.00    +0.000 A 
ATOM     28  C   UNL     1       7.846   5.442  13.217  0.00  0.00    +0.000 A 
ATOM     29  C   UNL     1       6.861   5.075  14.132  0.00  0.00    +0.000 A 
ATOM     30  O   UNL     1       6.669   5.628  15.368  0.00  0.00    +0.000 OA
ENDBRANCH  19  22
ENDBRANCH   1  20
TORSDOF 3
ENDMDL
MODEL 5
REMARK VINA RESULT:      -8.7      3.848     10.178
REMARK  Name = 
REMARK  3 active torsions:
REMARK  status: ('A' for Active; 'I' for Inactive)
REMARK    1  A    between atoms: C_2  and  C_21
REMARK    2  A    between atoms: N_3  and  C_4
REMARK    3  A    between atoms: C_6  and  C_7
REMARK                            x       y       z     vdW  Elec       q    Type
REMARK                         _______ _______ _______ _____ _____    ______ ____
ROOT
ATOM      1  C   UNL     1       0.205  11.307  20.890  0.00  0.00    +0.000 A 
ATOM      2  C   UNL     1       0.831  10.172  20.338  0.00  0.00    +0.000 A 
ATOM      3  C   UNL     1       0.817   8.938  21.011  0.00  0.00    +0.000 A 
ATOM      4  C   UNL     1       0.149   8.853  22.244  0.00  0.00    +0.000 A 
ATOM      5  C   UNL     1      -0.466   9.966  22.811  0.00  0.00    +0.000 A 
ATOM      6  C   UNL     1      -0.429  11.188  22.143  0.00  0.00    +0.000 A 
ATOM      7 CL   UNL     1      -1.207  12.540  22.891  0.00  0.00    +0.000 Cl
ENDROOT
BRANCH   3   8
ATOM      8  C   UNL     1       1.512   7.739  20.540  0.00  0.00    +0.000 A 
ATOM      9  N   UNL     1       2.283   7.653  19.470  0.00  0.00    +0.000 NA
ATOM     10  C   UNL     1       2.517   6.316  19.338  0.00  0.00    +0.000 A 
ATOM     11  C   UNL     1       3.188   5.617  18.329  0.00  0.00    +0.000 A 
ATOM     12  C   UNL     1       3.206   4.223  18.413  0.00  0.00    +0.000 A 
ATOM     13 CL   UNL     1       3.926   3.322  17.133  0.00  0.00    +0.000 Cl
ATOM     14  C   UNL     1       2.627   3.547  19.495  0.00  0.00    +0.000 A 
ATOM     15  C   UNL     1       1.977   4.243  20.529  0.00  0.00    +0.000 A 
ATOM     16  C   UNL     1       1.928   5.625  20.385  0.00  0.00    +0.000 A 
ATOM     17  O   UNL     1       1.283   6.542  21.176  0.00  0.00    +0.000 OA
ENDBRANCH   3   8
BRANCH   1  20
ATOM     18  O   UNL     1       2.043  13.570  21.234  0.00  0.00    +0.000 OA
ATOM     19  C   UNL     1       1.083  13.622  20.473  0.00  0.00    +0.000 C 
ATOM     20  N   UNL     1       0.205  12.576  20.255  0.00  0.00    +0.000 N 
ATOM     21  H   UNL     1      -0.452  12.702  19.490  0.00  0.00    +0.000 HD
BRANCH  19  22
ATOM     22  C   UNL     1       0.806  14.815  19.698  0.00  0.00    +0.000 A 
ATOM     23  C   UNL     1      -0.399  15.451  19.463  0.00  0.00    +0.000 A 
ATOM     24  C   UNL     1      -0.137  16.537  18.595  0.00  0.00    +0.000 A 
ATOM     25  C   UNL     1      -0.914  17.533  17.977  0.00  0.00    +0.000 A 
ATOM     26  C   UNL     1      -0.278  18.457  17.136  0.00  0.00    +0.000 A 
ATOM     27  C   UNL     1       1.101  18.398  16.920  0.00  0.00    +0.000 A 
ATOM     28  C   UNL     1       1.892  17.419  17.534  0.00  0.00    +0.000 A 
ATOM     29  C   UNL     1       1.233  16.510  18.360  0.00  0.00    +0.000 A 
ATOM     30  O   UNL     1       1.813  15.477  19.040  0.00  0.00    +0.000 OA
ENDBRANCH  19  22
ENDBRANCH   1  20
TORSDOF 3
ENDMDL
MODEL 6
REMARK VINA RESULT:      -8.5      3.671     10.126
REMARK  Name = 
REMARK  3 active torsions:
REMARK  status: ('A' for Active; 'I' for Inactive)
REMARK    1  A    between atoms: C_2  and  C_21
REMARK    2  A    between atoms: N_3  and  C_4
REMARK    3  A    between atoms: C_6  and  C_7
REMARK                            x       y       z     vdW  Elec       q    Type
REMARK                         _______ _______ _______ _____ _____    ______ ____
ROOT
ATOM      1  C   UNL     1       0.238  11.270  20.822  0.00  0.00    +0.000 A 
ATOM      2  C   UNL     1       0.809  10.130  20.222  0.00  0.00    +0.000 A 
ATOM      3  C   UNL     1       0.800   8.886  20.877  0.00  0.00    +0.000 A 
ATOM      4  C   UNL     1       0.194   8.798  22.142  0.00  0.00    +0.000 A 
ATOM      5  C   UNL     1      -0.365   9.915  22.755  0.00  0.00    +0.000 A 
ATOM      6  C   UNL     1      -0.334  11.146  22.103  0.00  0.00    +0.000 A 
ATOM      7 CL   UNL     1      -1.042  12.503  22.909  0.00  0.00    +0.000 Cl
ENDROOT
BRANCH   3   8
ATOM      8  C   UNL     1       1.443   7.679  20.354  0.00  0.00    +0.000 A 
ATOM      9  N   UNL     1       1.385   6.471  20.885  0.00  0.00    +0.000 NA
ATOM     10  C   UNL     1       2.298   5.752  20.171  0.00  0.00    +0.000 A 
ATOM     11  C   UNL     1       2.741   4.437  20.348  0.00  0.00    +0.000 A 
ATOM     12  C   UNL     1       3.757   3.981  19.504  0.00  0.00    +0.000 A 
ATOM     13 CL   UNL     1       4.406   2.406  19.760  0.00  0.00    +0.000 Cl
ATOM     14  C   UNL     1       4.274   4.785  18.480  0.00  0.00    +0.000 A 
ATOM     15  C   UNL     1       3.813   6.098  18.277  0.00  0.00    +0.000 A 
ATOM     16  C   UNL     1       2.843   6.539  19.169  0.00  0.00    +0.000 A 
ATOM     17  O   UNL     1       2.286   7.788  19.273  0.00  0.00    +0.000 OA
ENDBRANCH   3   8
BRANCH   1  20
ATOM     18  O   UNL     1       1.957  13.595  21.331  0.00  0.00    +0.000 OA
ATOM     19  C   UNL     1       1.054  13.623  20.502  0.00  0.00    +0.000 C 
ATOM     20  N   UNL     1       0.236  12.548  20.205  0.00  0.00    +0.000 N 
ATOM     21  H   UNL     1      -0.368  12.662  19.395  0.00  0.00    +0.000 HD
BRANCH  19  22
ATOM     22  C   UNL     1       0.788  14.817  19.724  0.00  0.00    +0.000 A 
ATOM     23  C   UNL     1      -0.411  15.464  19.487  0.00  0.00    +0.000 A 
ATOM     24  C   UNL     1      -0.139  16.546  18.617  0.00  0.00    +0.000 A 
ATOM     25  C   UNL     1      -0.906  17.548  17.997  0.00  0.00    +0.000 A 
ATOM     26  C   UNL     1      -0.260  18.464  17.155  0.00  0.00    +0.000 A 
ATOM     27  C   UNL     1       1.117  18.393  16.940  0.00  0.00    +0.000 A 
ATOM     28  C   UNL     1       1.899  17.407  17.557  0.00  0.00    +0.000 A 
ATOM     29  C   UNL     1       1.231  16.506  18.383  0.00  0.00    +0.000 A 
ATOM     30  O   UNL     1       1.801  15.469  19.066  0.00  0.00    +0.000 OA
ENDBRANCH  19  22
ENDBRANCH   1  20
TORSDOF 3
ENDMDL
MODEL 7
REMARK VINA RESULT:      -8.3      3.694     10.027
REMARK  Name = 
REMARK  3 active torsions:
REMARK  status: ('A' for Active; 'I' for Inactive)
REMARK    1  A    between atoms: C_2  and  C_21
REMARK    2  A    between atoms: N_3  and  C_4
REMARK    3  A    between atoms: C_6  and  C_7
REMARK                            x       y       z     vdW  Elec       q    Type
REMARK                         _______ _______ _______ _____ _____    ______ ____
ROOT
ATOM      1  C   UNL     1       0.469  11.157  20.654  0.00  0.00    +0.000 A 
ATOM      2  C   UNL     1       1.030   9.989  20.101  0.00  0.00    +0.000 A 
ATOM      3  C   UNL     1       0.941   8.756  20.770  0.00  0.00    +0.000 A 
ATOM      4  C   UNL     1       0.264   8.708  22.001  0.00  0.00    +0.000 A 
ATOM      5  C   UNL     1      -0.288   9.853  22.567  0.00  0.00    +0.000 A 
ATOM      6  C   UNL     1      -0.177  11.072  21.903  0.00  0.00    +0.000 A 
ATOM      7 CL   UNL     1      -0.879  12.465  22.651  0.00  0.00    +0.000 Cl
ENDROOT
BRANCH   3   8
ATOM      8  C   UNL     1       1.568   7.520  20.299  0.00  0.00    +0.000 A 
ATOM      9  N   UNL     1       1.468   6.330  20.863  0.00  0.00    +0.000 NA
ATOM     10  C   UNL     1       2.380   5.568  20.194  0.00  0.00    +0.000 A 
ATOM     11  C   UNL     1       2.788   4.250  20.420  0.00  0.00    +0.000 A 
ATOM     12  C   UNL     1       3.813   3.746  19.616  0.00  0.00    +0.000 A 
ATOM     13 CL   UNL     1       4.419   2.165  19.935  0.00  0.00    +0.000 Cl
ATOM     14  C   UNL     1       4.376   4.508  18.583  0.00  0.00    +0.000 A 
ATOM     15  C   UNL     1       3.951   5.824  18.330  0.00  0.00    +0.000 A 
ATOM     16  C   UNL     1       2.970   6.313  19.185  0.00  0.00    +0.000 A 
ATOM     17  O   UNL     1       2.440   7.577  19.238  0.00  0.00    +0.000 OA
ENDBRANCH   3   8
BRANCH   1  20
ATOM     18  O   UNL     1       2.284  13.403  21.183  0.00  0.00    +0.000 OA
ATOM     19  C   UNL     1       1.407  13.464  20.328  0.00  0.00    +0.000 C 
ATOM     20  N   UNL     1       0.546  12.426  20.022  0.00  0.00    +0.000 N 
ATOM     21  H   UNL     1      -0.029  12.558  19.194  0.00  0.00    +0.000 HD
BRANCH  19  22
ATOM     22  C   UNL     1       1.222  14.658  19.529  0.00  0.00    +0.000 A 
ATOM     23  C   UNL     1       2.153  15.398  18.824  0.00  0.00    +0.000 A 
ATOM     24  C   UNL     1       1.473  16.505  18.263  0.00  0.00    +0.000 A 
ATOM     25  C   UNL     1       1.840  17.612  17.478  0.00  0.00    +0.000 A 
ATOM     26  C   UNL     1       0.853  18.542  17.124  0.00  0.00    +0.000 A 
ATOM     27  C   UNL     1      -0.471  18.373  17.533  0.00  0.00    +0.000 A 
ATOM     28  C   UNL     1      -0.858  17.271  18.308  0.00  0.00    +0.000 A 
ATOM     29  C   UNL     1       0.145  16.366  18.650  0.00  0.00    +0.000 A 
ATOM     30  O   UNL     1      -0.016  15.238  19.405  0.00  0.00    +0.000 OA
ENDBRANCH  19  22
ENDBRANCH   1  20
TORSDOF 3
ENDMDL
MODEL 8
REMARK VINA RESULT:      -8.3      2.296      9.733
REMARK  Name = 
REMARK  3 active torsions:
REMARK  status: ('A' for Active; 'I' for Inactive)
REMARK    1  A    between atoms: C_2  and  C_21
REMARK    2  A    between atoms: N_3  and  C_4
REMARK    3  A    between atoms: C_6  and  C_7
REMARK                            x       y       z     vdW  Elec       q    Type
REMARK                         _______ _______ _______ _____ _____    ______ ____
ROOT
ATOM      1  C   UNL     1       2.965   5.201  19.574  0.00  0.00    +0.000 A 
ATOM      2  C   UNL     1       3.712   5.316  18.386  0.00  0.00    +0.000 A 
ATOM      3  C   UNL     1       4.432   4.222  17.874  0.00  0.00    +0.000 A 
ATOM      4  C   UNL     1       4.379   3.001  18.567  0.00  0.00    +0.000 A 
ATOM      5  C   UNL     1       3.655   2.871  19.749  0.00  0.00    +0.000 A 
ATOM      6  C   UNL     1       2.961   3.967  20.255  0.00  0.00    +0.000 A 
ATOM      7 CL   UNL     1       2.077   3.753  21.727  0.00  0.00    +0.000 Cl
ENDROOT
BRANCH   3   8
ATOM      8  C   UNL     1       5.294   4.288  16.693  0.00  0.00    +0.000 A 
ATOM      9  N   UNL     1       6.299   5.125  16.505  0.00  0.00    +0.000 NA
ATOM     10  C   UNL     1       6.642   4.941  15.197  0.00  0.00    +0.000 A 
ATOM     11  C   UNL     1       7.574   5.624  14.410  0.00  0.00    +0.000 A 
ATOM     12  C   UNL     1       7.660   5.270  13.061  0.00  0.00    +0.000 A 
ATOM     13 CL   UNL     1       8.718   6.161  12.034  0.00  0.00    +0.000 Cl
ATOM     14  C   UNL     1       6.886   4.233  12.526  0.00  0.00    +0.000 A 
ATOM     15  C   UNL     1       5.968   3.521  13.317  0.00  0.00    +0.000 A 
ATOM     16  C   UNL     1       5.867   3.937  14.640  0.00  0.00    +0.000 A 
ATOM     17  O   UNL     1       4.997   3.499  15.606  0.00  0.00    +0.000 OA
ENDBRANCH   3   8
BRANCH   1  20
ATOM     18  O   UNL     1       2.560   7.921  18.547  0.00  0.00    +0.000 OA
ATOM     19  C   UNL     1       2.095   7.556  19.622  0.00  0.00    +0.000 C 
ATOM     20  N   UNL     1       2.234   6.280  20.136  0.00  0.00    +0.000 N 
ATOM     21  H   UNL     1       1.673   6.071  20.958  0.00  0.00    +0.000 HD
BRANCH  19  22
ATOM     22  C   UNL     1       1.315   8.459  20.445  0.00  0.00    +0.000 A 
ATOM     23  C   UNL     1       0.987   8.365  21.785  0.00  0.00    +0.000 A 
ATOM     24  C   UNL     1       0.159   9.470  22.093  0.00  0.00    +0.000 A 
ATOM     25  C   UNL     1      -0.509   9.930  23.241  0.00  0.00    +0.000 A 
ATOM     26  C   UNL     1      -1.281  11.096  23.147  0.00  0.00    +0.000 A 
ATOM     27  C   UNL     1      -1.381  11.795  21.942  0.00  0.00    +0.000 A 
ATOM     28  C   UNL     1      -0.715  11.357  20.790  0.00  0.00    +0.000 A 
ATOM     29  C   UNL     1       0.040  10.192  20.911  0.00  0.00    +0.000 A 
ATOM     30  O   UNL     1       0.753   9.591  19.911  0.00  0.00    +0.000 OA
ENDBRANCH  19  22
ENDBRANCH   1  20
TORSDOF 3
ENDMDL
MODEL 9
REMARK VINA RESULT:      -8.3      3.676     10.119
REMARK  Name = 
REMARK  3 active torsions:
REMARK  status: ('A' for Active; 'I' for Inactive)
REMARK    1  A    between atoms: C_2  and  C_21
REMARK    2  A    between atoms: N_3  and  C_4
REMARK    3  A    between atoms: C_6  and  C_7
REMARK                            x       y       z     vdW  Elec       q    Type
REMARK                         _______ _______ _______ _____ _____    ______ ____
ROOT
ATOM      1  C   UNL     1       0.880  10.559  19.930  0.00  0.00    +0.000 A 
ATOM      2  C   UNL     1       1.639   9.618  19.207  0.00  0.00    +0.000 A 
ATOM      3  C   UNL     1       1.741   8.284  19.639  0.00  0.00    +0.000 A 
ATOM      4  C   UNL     1       1.055   7.902  20.804  0.00  0.00    +0.000 A 
ATOM      5  C   UNL     1       0.310   8.820  21.538  0.00  0.00    +0.000 A 
ATOM      6  C   UNL     1       0.232  10.143  21.110  0.00  0.00    +0.000 A 
ATOM      7 CL   UNL     1      -0.707  11.244  22.059  0.00  0.00    +0.000 Cl
ENDROOT
BRANCH   3   8
ATOM      8  C   UNL     1       2.573   7.272  18.986  0.00  0.00    +0.000 A 
ATOM      9  N   UNL     1       3.534   7.499  18.108  0.00  0.00    +0.000 NA
ATOM     10  C   UNL     1       3.857   6.258  17.643  0.00  0.00    +0.000 A 
ATOM     11  C   UNL     1       4.740   5.882  16.626  0.00  0.00    +0.000 A 
ATOM     12  C   UNL     1       4.814   4.524  16.306  0.00  0.00    +0.000 A 
ATOM     13 CL   UNL     1       5.807   4.035  14.986  0.00  0.00    +0.000 Cl
ATOM     14  C   UNL     1       4.077   3.565  17.012  0.00  0.00    +0.000 A 
ATOM     15  C   UNL     1       3.210   3.931  18.056  0.00  0.00    +0.000 A 
ATOM     16  C   UNL     1       3.118   5.294  18.310  0.00  0.00    +0.000 A 
ATOM     17  O   UNL     1       2.290   5.942  19.192  0.00  0.00    +0.000 OA
ENDBRANCH   3   8
BRANCH   1  20
ATOM     18  O   UNL     1       2.242  12.935  20.988  0.00  0.00    +0.000 OA
ATOM     19  C   UNL     1       1.408  13.009  20.092  0.00  0.00    +0.000 C 
ATOM     20  N   UNL     1       0.760  11.919  19.541  0.00  0.00    +0.000 N 
ATOM     21  H   UNL     1       0.210  12.106  18.707  0.00  0.00    +0.000 HD
BRANCH  19  22
ATOM     22  C   UNL     1       1.050  14.285  19.505  0.00  0.00    +0.000 A 
ATOM     23  C   UNL     1      -0.189  14.889  19.402  0.00  0.00    +0.000 A 
ATOM     24  C   UNL     1      -0.008  16.099  18.690  0.00  0.00    +0.000 A 
ATOM     25  C   UNL     1      -0.850  17.133  18.246  0.00  0.00    +0.000 A 
ATOM     26  C   UNL     1      -0.287  18.196  17.527  0.00  0.00    +0.000 A 
ATOM     27  C   UNL     1       1.084  18.236  17.261  0.00  0.00    +0.000 A 
ATOM     28  C   UNL     1       1.939  17.218  17.704  0.00  0.00    +0.000 A 
ATOM     29  C   UNL     1       1.352  16.171  18.411  0.00  0.00    +0.000 A 
ATOM     30  O   UNL     1       2.001  15.081  18.917  0.00  0.00    +0.000 OA
ENDBRANCH  19  22
ENDBRANCH   1  20
TORSDOF 3
ENDMDL
