MODEL 1
REMARK VINA RESULT:      -8.1      0.000      0.000
REMARK  Name = 
REMARK  6 active torsions:
REMARK  status: ('A' for Active; 'I' for Inactive)
REMARK    1  A    between atoms: C_2  and  O_3
REMARK    2  A    between atoms: C_2  and  C_4
REMARK    3  A    between atoms: C_9  and  C_10
REMARK    4  A    between atoms: C_10  and  C_12
REMARK    5  A    between atoms: C_15  and  N_16
REMARK    6  A    between atoms: C_21  and  N_22
REMARK                            x       y       z     vdW  Elec       q    Type
REMARK                         _______ _______ _______ _____ _____    ______ ____
ROOT
ATOM      1  C   UNL     1       2.502   7.053  19.259  0.00  0.00    +0.000 A 
ATOM      2  C   UNL     1       2.364   7.724  18.045  0.00  0.00    +0.000 A 
ATOM      3  C   UNL     1       1.678   8.944  17.988  0.00  0.00    +0.000 A 
ATOM      4  C   UNL     1       1.050   9.537  19.107  0.00  0.00    +0.000 A 
ATOM      5  C   UNL     1       1.184   8.811  20.304  0.00  0.00    +0.000 A 
ATOM      6  C   UNL     1       1.904   7.599  20.396  0.00  0.00    +0.000 A 
ENDROOT
BRANCH   4   7
ATOM      7  N   UNL     1       0.390  10.731  18.890  0.00  0.00    +0.000 N 
ATOM      8  C   UNL     1       0.772  12.072  19.338  0.00  0.00    +0.000 C 
ATOM      9  C   UNL     1      -0.526  12.663  19.877  0.00  0.00    +0.000 C 
ATOM     10  C   UNL     1      -1.575  12.078  18.947  0.00  0.00    +0.000 C 
ATOM     11  C   UNL     1      -1.069  10.667  18.672  0.00  0.00    +0.000 C 
ENDBRANCH   4   7
BRANCH   5  12
ATOM     12  N   UNL     1       0.487   9.195  21.512  0.00  0.00    +0.000 N 
ATOM     13  O   UNL     1      -0.571   8.604  21.773  0.00  0.00    +0.000 OA
ATOM     14  O   UNL     1       1.028  10.053  22.223  0.00  0.00    +0.000 OA
ENDBRANCH   5  12
BRANCH   1  15
ATOM     15  C   UNL     1       3.239   5.762  19.378  0.00  0.00    +0.000 C 
ATOM     16  O   UNL     1       4.430   5.766  19.675  0.00  0.00    +0.000 OA
BRANCH  15  22
ATOM     17  C   UNL     1       3.116   3.543  18.146  0.00  0.00    +0.000 A 
ATOM     18  C   UNL     1       2.441   2.317  17.964  0.00  0.00    +0.000 A 
ATOM     19  C   UNL     1       1.286   2.006  18.682  0.00  0.00    +0.000 A 
ATOM     20  C   UNL     1       0.770   2.924  19.589  0.00  0.00    +0.000 A 
ATOM     21  C   UNL     1       1.412   4.147  19.777  0.00  0.00    +0.000 A 
ATOM     22  C   UNL     1       2.606   4.454  19.088  0.00  0.00    +0.000 A 
BRANCH  17  24
ATOM     23  O   UNL     1       4.333   4.004  16.175  0.00  0.00    +0.000 OA
ATOM     24  C   UNL     1       4.372   3.678  17.357  0.00  0.00    +0.000 C 
BRANCH  24  25
ATOM     25  O   UNL     1       5.539   3.556  18.009  0.00  0.00    +0.000 OA
ATOM     26  H   UNL     1       6.341   3.429  17.449  0.00  0.00    +0.000 HD
ENDBRANCH  24  25
ENDBRANCH  17  24
ENDBRANCH  15  22
ENDBRANCH   1  15
TORSDOF 6
ENDMDL
MODEL 2
REMARK VINA RESULT:      -8.1      0.459      1.080
REMARK  Name = 
REMARK  6 active torsions:
REMARK  status: ('A' for Active; 'I' for Inactive)
REMARK    1  A    between atoms: C_2  and  O_3
REMARK    2  A    between atoms: C_2  and  C_4
REMARK    3  A    between atoms: C_9  and  C_10
REMARK    4  A    between atoms: C_10  and  C_12
REMARK    5  A    between atoms: C_15  and  N_16
REMARK    6  A    between atoms: C_21  and  N_22
REMARK                            x       y       z     vdW  Elec       q    Type
REMARK                         _______ _______ _______ _____ _____    ______ ____
ROOT
ATOM      1  C   UNL     1       2.441   7.116  19.390  0.00  0.00    +0.000 A 
ATOM      2  C   UNL     1       2.247   7.882  18.242  0.00  0.00    +0.000 A 
ATOM      3  C   UNL     1       1.538   9.088  18.311  0.00  0.00    +0.000 A 
ATOM      4  C   UNL     1       0.943   9.574  19.497  0.00  0.00    +0.000 A 
ATOM      5  C   UNL     1       1.134   8.755  20.624  0.00  0.00    +0.000 A 
ATOM      6  C   UNL     1       1.877   7.554  20.590  0.00  0.00    +0.000 A 
ENDROOT
BRANCH   4   7
ATOM      7  N   UNL     1       0.254  10.769  19.403  0.00  0.00    +0.000 N 
ATOM      8  C   UNL     1      -1.187  10.972  19.245  0.00  0.00    +0.000 C 
ATOM      9  C   UNL     1      -1.291  12.037  18.160  0.00  0.00    +0.000 C 
ATOM     10  C   UNL     1      -0.087  12.919  18.435  0.00  0.00    +0.000 C 
ATOM     11  C   UNL     1       0.990  11.934  18.875  0.00  0.00    +0.000 C 
ENDBRANCH   4   7
BRANCH   5  12
ATOM     12  N   UNL     1       0.476   9.025  21.884  0.00  0.00    +0.000 N 
ATOM     13  O   UNL     1       1.069   9.754  22.693  0.00  0.00    +0.000 OA
ATOM     14  O   UNL     1      -0.657   8.549  22.039  0.00  0.00    +0.000 OA
ENDBRANCH   5  12
BRANCH   1  15
ATOM     15  C   UNL     1       3.204   5.835  19.376  0.00  0.00    +0.000 C 
ATOM     16  O   UNL     1       4.417   5.846  19.562  0.00  0.00    +0.000 OA
BRANCH  15  22
ATOM     17  C   UNL     1       3.072   3.622  18.133  0.00  0.00    +0.000 A 
ATOM     18  C   UNL     1       2.391   2.400  17.945  0.00  0.00    +0.000 A 
ATOM     19  C   UNL     1       1.235   2.091  18.661  0.00  0.00    +0.000 A 
ATOM     20  C   UNL     1       0.722   3.007  19.572  0.00  0.00    +0.000 A 
ATOM     21  C   UNL     1       1.370   4.226  19.766  0.00  0.00    +0.000 A 
ATOM     22  C   UNL     1       2.565   4.531  19.079  0.00  0.00    +0.000 A 
BRANCH  17  24
ATOM     23  O   UNL     1       4.298   4.151  16.185  0.00  0.00    +0.000 OA
ATOM     24  C   UNL     1       4.329   3.755  17.346  0.00  0.00    +0.000 C 
BRANCH  24  25
ATOM     25  O   UNL     1       5.493   3.549  17.983  0.00  0.00    +0.000 OA
ATOM     26  H   UNL     1       6.104   2.891  17.574  0.00  0.00    +0.000 HD
ENDBRANCH  24  25
ENDBRANCH  17  24
ENDBRANCH  15  22
ENDBRANCH   1  15
TORSDOF 6
ENDMDL
MODEL 3
REMARK VINA RESULT:      -8.0      1.284      1.795
REMARK  Name = 
REMARK  6 active torsions:
REMARK  status: ('A' for Active; 'I' for Inactive)
REMARK    1  A    between atoms: C_2  and  O_3
REMARK    2  A    between atoms: C_2  and  C_4
REMARK    3  A    between atoms: C_9  and  C_10
REMARK    4  A    between atoms: C_10  and  C_12
REMARK    5  A    between atoms: C_15  and  N_16
REMARK    6  A    between atoms: C_21  and  N_22
REMARK                            x       y       z     vdW  Elec       q    Type
REMARK                         _______ _______ _______ _____ _____    ______ ____
ROOT
ATOM      1  C   UNL     1       2.335   7.261  19.335  0.00  0.00    +0.000 A 
ATOM      2  C   UNL     1       2.144   8.030  18.188  0.00  0.00    +0.000 A 
ATOM      3  C   UNL     1       1.459   9.249  18.263  0.00  0.00    +0.000 A 
ATOM      4  C   UNL     1       0.883   9.746  19.455  0.00  0.00    +0.000 A 
ATOM      5  C   UNL     1       1.068   8.924  20.580  0.00  0.00    +0.000 A 
ATOM      6  C   UNL     1       1.789   7.709  20.539  0.00  0.00    +0.000 A 
ENDROOT
BRANCH   4   7
ATOM      7  N   UNL     1       0.216  10.953  19.367  0.00  0.00    +0.000 N 
ATOM      8  C   UNL     1      -1.222  11.183  19.209  0.00  0.00    +0.000 C 
ATOM      9  C   UNL     1      -1.306  12.256  18.129  0.00  0.00    +0.000 C 
ATOM     10  C   UNL     1      -0.086  13.115  18.410  0.00  0.00    +0.000 C 
ATOM     11  C   UNL     1       0.973  12.108  18.846  0.00  0.00    +0.000 C 
ENDBRANCH   4   7
BRANCH   5  12
ATOM     12  N   UNL     1       0.426   9.205  21.846  0.00  0.00    +0.000 N 
ATOM     13  O   UNL     1      -0.693   8.708  22.041  0.00  0.00    +0.000 OA
ATOM     14  O   UNL     1       1.067   9.881  22.662  0.00  0.00    +0.000 OA
ENDBRANCH   5  12
BRANCH   1  15
ATOM     15  C   UNL     1       3.073   5.965  19.313  0.00  0.00    +0.000 C 
ATOM     16  O   UNL     1       4.184   5.906  18.794  0.00  0.00    +0.000 OA
BRANCH  15  22
ATOM     17  C   UNL     1       1.870   3.745  19.031  0.00  0.00    +0.000 A 
ATOM     18  C   UNL     1       1.369   2.576  19.643  0.00  0.00    +0.000 A 
ATOM     19  C   UNL     1       1.468   2.371  21.019  0.00  0.00    +0.000 A 
ATOM     20  C   UNL     1       2.058   3.342  21.820  0.00  0.00    +0.000 A 
ATOM     21  C   UNL     1       2.550   4.511  21.241  0.00  0.00    +0.000 A 
ATOM     22  C   UNL     1       2.494   4.709  19.844  0.00  0.00    +0.000 A 
BRANCH  17  24
ATOM     23  O   UNL     1       2.455   3.040  16.855  0.00  0.00    +0.000 OA
ATOM     24  C   UNL     1       1.749   3.766  17.547  0.00  0.00    +0.000 C 
BRANCH  24  25
ATOM     25  O   UNL     1       0.766   4.505  17.008  0.00  0.00    +0.000 OA
ATOM     26  H   UNL     1       0.834   5.481  17.134  0.00  0.00    +0.000 HD
ENDBRANCH  24  25
ENDBRANCH  17  24
ENDBRANCH  15  22
ENDBRANCH   1  15
TORSDOF 6
ENDMDL
MODEL 4
REMARK VINA RESULT:      -7.9      1.195      1.679
REMARK  Name = 
REMARK  6 active torsions:
REMARK  status: ('A' for Active; 'I' for Inactive)
REMARK    1  A    between atoms: C_2  and  O_3
REMARK    2  A    between atoms: C_2  and  C_4
REMARK    3  A    between atoms: C_9  and  C_10
REMARK    4  A    between atoms: C_10  and  C_12
REMARK    5  A    between atoms: C_15  and  N_16
REMARK    6  A    between atoms: C_21  and  N_22
REMARK                            x       y       z     vdW  Elec       q    Type
REMARK                         _______ _______ _______ _____ _____    ______ ____
ROOT
ATOM      1  C   UNL     1       2.421   7.189  19.266  0.00  0.00    +0.000 A 
ATOM      2  C   UNL     1       2.271   7.871  18.060  0.00  0.00    +0.000 A 
ATOM      3  C   UNL     1       1.584   9.091  18.021  0.00  0.00    +0.000 A 
ATOM      4  C   UNL     1       0.968   9.673  19.152  0.00  0.00    +0.000 A 
ATOM      5  C   UNL     1       1.113   8.936  20.340  0.00  0.00    +0.000 A 
ATOM      6  C   UNL     1       1.834   7.723  20.415  0.00  0.00    +0.000 A 
ENDROOT
BRANCH   4   7
ATOM      7  N   UNL     1       0.304  10.869  18.952  0.00  0.00    +0.000 N 
ATOM      8  C   UNL     1       0.697  12.207  19.399  0.00  0.00    +0.000 C 
ATOM      9  C   UNL     1      -0.590  12.797  19.965  0.00  0.00    +0.000 C 
ATOM     10  C   UNL     1      -1.657  12.219  19.052  0.00  0.00    +0.000 C 
ATOM     11  C   UNL     1      -1.158  10.808  18.761  0.00  0.00    +0.000 C 
ENDBRANCH   4   7
BRANCH   5  12
ATOM     12  N   UNL     1       0.428   9.309  21.559  0.00  0.00    +0.000 N 
ATOM     13  O   UNL     1       0.931  10.213  22.243  0.00  0.00    +0.000 OA
ATOM     14  O   UNL     1      -0.640   8.731  21.802  0.00  0.00    +0.000 OA
ENDBRANCH   5  12
BRANCH   1  15
ATOM     15  C   UNL     1       3.159   5.896  19.366  0.00  0.00    +0.000 C 
ATOM     16  O   UNL     1       4.312   5.821  18.951  0.00  0.00    +0.000 OA
BRANCH  15  22
ATOM     17  C   UNL     1       1.886   3.716  19.079  0.00  0.00    +0.000 A 
ATOM     18  C   UNL     1       1.342   2.565  19.689  0.00  0.00    +0.000 A 
ATOM     19  C   UNL     1       1.423   2.361  21.066  0.00  0.00    +0.000 A 
ATOM     20  C   UNL     1       2.039   3.313  21.870  0.00  0.00    +0.000 A 
ATOM     21  C   UNL     1       2.573   4.464  21.292  0.00  0.00    +0.000 A 
ATOM     22  C   UNL     1       2.534   4.661  19.895  0.00  0.00    +0.000 A 
BRANCH  17  24
ATOM     23  O   UNL     1       2.476   2.998  16.908  0.00  0.00    +0.000 OA
ATOM     24  C   UNL     1       1.778   3.737  17.594  0.00  0.00    +0.000 C 
BRANCH  24  25
ATOM     25  O   UNL     1       0.813   4.493  17.046  0.00  0.00    +0.000 OA
ATOM     26  H   UNL     1       0.385   5.154  17.642  0.00  0.00    +0.000 HD
ENDBRANCH  24  25
ENDBRANCH  17  24
ENDBRANCH  15  22
ENDBRANCH   1  15
TORSDOF 6
ENDMDL
MODEL 5
REMARK VINA RESULT:      -7.9      1.427      2.589
REMARK  Name = 
REMARK  6 active torsions:
REMARK  status: ('A' for Active; 'I' for Inactive)
REMARK    1  A    between atoms: C_2  and  O_3
REMARK    2  A    between atoms: C_2  and  C_4
REMARK    3  A    between atoms: C_9  and  C_10
REMARK    4  A    between atoms: C_10  and  C_12
REMARK    5  A    between atoms: C_15  and  N_16
REMARK    6  A    between atoms: C_21  and  N_22
REMARK                            x       y       z     vdW  Elec       q    Type
REMARK                         _______ _______ _______ _____ _____    ______ ____
ROOT
ATOM      1  C   UNL     1       2.448   7.321  19.102  0.00  0.00    +0.000 A 
ATOM      2  C   UNL     1       2.167   8.094  17.977  0.00  0.00    +0.000 A 
ATOM      3  C   UNL     1       1.397   9.258  18.096  0.00  0.00    +0.000 A 
ATOM      4  C   UNL     1       0.825   9.692  19.314  0.00  0.00    +0.000 A 
ATOM      5  C   UNL     1       1.105   8.866  20.417  0.00  0.00    +0.000 A 
ATOM      6  C   UNL     1       1.910   7.708  20.331  0.00  0.00    +0.000 A 
ENDROOT
BRANCH   4   7
ATOM      7  N   UNL     1       0.070  10.848  19.269  0.00  0.00    +0.000 N 
ATOM      8  C   UNL     1      -1.379  10.977  19.101  0.00  0.00    +0.000 C 
ATOM      9  C   UNL     1      -1.532  12.088  18.069  0.00  0.00    +0.000 C 
ATOM     10  C   UNL     1      -0.383  13.022  18.405  0.00  0.00    +0.000 C 
ATOM     11  C   UNL     1       0.744  12.079  18.812  0.00  0.00    +0.000 C 
ENDBRANCH   4   7
BRANCH   5  12
ATOM     12  N   UNL     1       0.485   9.078  21.707  0.00  0.00    +0.000 N 
ATOM     13  O   UNL     1      -0.606   8.527  21.913  0.00  0.00    +0.000 OA
ATOM     14  O   UNL     1       1.118   9.755  22.529  0.00  0.00    +0.000 OA
ENDBRANCH   5  12
BRANCH   1  15
ATOM     15  C   UNL     1       3.278   6.084  19.033  0.00  0.00    +0.000 C 
ATOM     16  O   UNL     1       3.367   5.355  20.017  0.00  0.00    +0.000 OA
BRANCH  15  22
ATOM     17  C   UNL     1       3.991   4.453  17.220  0.00  0.00    +0.000 A 
ATOM     18  C   UNL     1       4.771   4.220  16.067  0.00  0.00    +0.000 A 
ATOM     19  C   UNL     1       5.609   5.203  15.542  0.00  0.00    +0.000 A 
ATOM     20  C   UNL     1       5.699   6.440  16.169  0.00  0.00    +0.000 A 
ATOM     21  C   UNL     1       4.948   6.690  17.316  0.00  0.00    +0.000 A 
ATOM     22  C   UNL     1       4.063   5.717  17.831  0.00  0.00    +0.000 A 
BRANCH  17  24
ATOM     23  O   UNL     1       2.099   3.069  16.933  0.00  0.00    +0.000 OA
ATOM     24  C   UNL     1       3.097   3.323  17.598  0.00  0.00    +0.000 C 
BRANCH  24  25
ATOM     25  O   UNL     1       3.486   2.526  18.606  0.00  0.00    +0.000 OA
ATOM     26  H   UNL     1       3.808   2.979  19.422  0.00  0.00    +0.000 HD
ENDBRANCH  24  25
ENDBRANCH  17  24
ENDBRANCH  15  22
ENDBRANCH   1  15
TORSDOF 6
ENDMDL
MODEL 6
REMARK VINA RESULT:      -7.9      1.394      2.314
REMARK  Name = 
REMARK  6 active torsions:
REMARK  status: ('A' for Active; 'I' for Inactive)
REMARK    1  A    between atoms: C_2  and  O_3
REMARK    2  A    between atoms: C_2  and  C_4
REMARK    3  A    between atoms: C_9  and  C_10
REMARK    4  A    between atoms: C_10  and  C_12
REMARK    5  A    between atoms: C_15  and  N_16
REMARK    6  A    between atoms: C_21  and  N_22
REMARK                            x       y       z     vdW  Elec       q    Type
REMARK                         _______ _______ _______ _____ _____    ______ ____
ROOT
ATOM      1  C   UNL     1       2.429   6.996  19.323  0.00  0.00    +0.000 A 
ATOM      2  C   UNL     1       2.322   7.676  18.110  0.00  0.00    +0.000 A 
ATOM      3  C   UNL     1       1.692   8.926  18.056  0.00  0.00    +0.000 A 
ATOM      4  C   UNL     1       1.093   9.544  19.176  0.00  0.00    +0.000 A 
ATOM      5  C   UNL     1       1.194   8.811  20.371  0.00  0.00    +0.000 A 
ATOM      6  C   UNL     1       1.857   7.567  20.461  0.00  0.00    +0.000 A 
ENDROOT
BRANCH   4   7
ATOM      7  N   UNL     1       0.488  10.768  18.961  0.00  0.00    +0.000 N 
ATOM      8  C   UNL     1       0.929  12.089  19.416  0.00  0.00    +0.000 C 
ATOM      9  C   UNL     1      -0.342  12.736  19.953  0.00  0.00    +0.000 C 
ATOM     10  C   UNL     1      -1.413  12.203  19.018  0.00  0.00    +0.000 C 
ATOM     11  C   UNL     1      -0.971  10.771  18.739  0.00  0.00    +0.000 C 
ENDBRANCH   4   7
BRANCH   5  12
ATOM     12  N   UNL     1       0.515   9.224  21.581  0.00  0.00    +0.000 N 
ATOM     13  O   UNL     1      -0.559   8.668  21.851  0.00  0.00    +0.000 OA
ATOM     14  O   UNL     1       1.087  10.069  22.284  0.00  0.00    +0.000 OA
ENDBRANCH   5  12
BRANCH   1  15
ATOM     15  C   UNL     1       3.106   5.672  19.439  0.00  0.00    +0.000 C 
ATOM     16  O   UNL     1       2.989   5.017  20.471  0.00  0.00    +0.000 OA
BRANCH  15  22
ATOM     17  C   UNL     1       3.585   4.088  17.511  0.00  0.00    +0.000 A 
ATOM     18  C   UNL     1       4.492   3.660  16.518  0.00  0.00    +0.000 A 
ATOM     19  C   UNL     1       5.757   4.233  16.389  0.00  0.00    +0.000 A 
ATOM     20  C   UNL     1       6.151   5.240  17.264  0.00  0.00    +0.000 A 
ATOM     21  C   UNL     1       5.277   5.670  18.260  0.00  0.00    +0.000 A 
ATOM     22  C   UNL     1       3.979   5.128  18.373  0.00  0.00    +0.000 A 
BRANCH  17  24
ATOM     23  O   UNL     1       1.233   4.084  17.297  0.00  0.00    +0.000 OA
ATOM     24  C   UNL     1       2.253   3.423  17.457  0.00  0.00    +0.000 C 
BRANCH  24  25
ATOM     25  O   UNL     1       2.222   2.081  17.464  0.00  0.00    +0.000 OA
ATOM     26  H   UNL     1       2.465   1.634  16.619  0.00  0.00    +0.000 HD
ENDBRANCH  24  25
ENDBRANCH  17  24
ENDBRANCH  15  22
ENDBRANCH   1  15
TORSDOF 6
ENDMDL
MODEL 7
REMARK VINA RESULT:      -7.8      0.935      1.059
REMARK  Name = 
REMARK  6 active torsions:
REMARK  status: ('A' for Active; 'I' for Inactive)
REMARK    1  A    between atoms: C_2  and  O_3
REMARK    2  A    between atoms: C_2  and  C_4
REMARK    3  A    between atoms: C_9  and  C_10
REMARK    4  A    between atoms: C_10  and  C_12
REMARK    5  A    between atoms: C_15  and  N_16
REMARK    6  A    between atoms: C_21  and  N_22
REMARK                            x       y       z     vdW  Elec       q    Type
REMARK                         _______ _______ _______ _____ _____    ______ ____
ROOT
ATOM      1  C   UNL     1       2.641   7.022  19.211  0.00  0.00    +0.000 A 
ATOM      2  C   UNL     1       2.508   7.618  17.958  0.00  0.00    +0.000 A 
ATOM      3  C   UNL     1       1.793   8.815  17.820  0.00  0.00    +0.000 A 
ATOM      4  C   UNL     1       1.132   9.455  18.893  0.00  0.00    +0.000 A 
ATOM      5  C   UNL     1       1.264   8.803  20.131  0.00  0.00    +0.000 A 
ATOM      6  C   UNL     1       2.011   7.616  20.305  0.00  0.00    +0.000 A 
ENDROOT
BRANCH   4   7
ATOM      7  N   UNL     1       0.446  10.618  18.596  0.00  0.00    +0.000 N 
ATOM      8  C   UNL     1       0.788  11.991  18.972  0.00  0.00    +0.000 C 
ATOM      9  C   UNL     1      -0.533  12.579  19.456  0.00  0.00    +0.000 C 
ATOM     10  C   UNL     1      -1.551  11.915  18.545  0.00  0.00    +0.000 C 
ATOM     11  C   UNL     1      -1.006  10.504  18.359  0.00  0.00    +0.000 C 
ENDBRANCH   4   7
BRANCH   5  12
ATOM     12  N   UNL     1       0.537   9.238  21.305  0.00  0.00    +0.000 N 
ATOM     13  O   UNL     1      -0.491   8.612  21.604  0.00  0.00    +0.000 OA
ATOM     14  O   UNL     1       1.026  10.173  21.952  0.00  0.00    +0.000 OA
ENDBRANCH   5  12
BRANCH   1  15
ATOM     15  C   UNL     1       3.408   5.759  19.415  0.00  0.00    +0.000 C 
ATOM     16  O   UNL     1       4.608   5.727  19.160  0.00  0.00    +0.000 OA
BRANCH  15  22
ATOM     17  C   UNL     1       2.585   3.387  19.021  0.00  0.00    +0.000 A 
ATOM     18  C   UNL     1       1.976   2.232  19.557  0.00  0.00    +0.000 A 
ATOM     19  C   UNL     1       1.542   2.185  20.882  0.00  0.00    +0.000 A 
ATOM     20  C   UNL     1       1.695   3.299  21.699  0.00  0.00    +0.000 A 
ATOM     21  C   UNL     1       2.283   4.455  21.188  0.00  0.00    +0.000 A 
ATOM     22  C   UNL     1       2.764   4.501  19.861  0.00  0.00    +0.000 A 
BRANCH  17  24
ATOM     23  O   UNL     1       2.266   3.333  16.681  0.00  0.00    +0.000 OA
ATOM     24  C   UNL     1       3.056   3.239  17.615  0.00  0.00    +0.000 C 
BRANCH  24  25
ATOM     25  O   UNL     1       4.377   3.127  17.405  0.00  0.00    +0.000 OA
ATOM     26  H   UNL     1       4.960   3.330  18.174  0.00  0.00    +0.000 HD
ENDBRANCH  24  25
ENDBRANCH  17  24
ENDBRANCH  15  22
ENDBRANCH   1  15
TORSDOF 6
ENDMDL
MODEL 8
REMARK VINA RESULT:      -7.8      1.378      2.527
REMARK  Name = 
REMARK  6 active torsions:
REMARK  status: ('A' for Active; 'I' for Inactive)
REMARK    1  A    between atoms: C_2  and  O_3
REMARK    2  A    between atoms: C_2  and  C_4
REMARK    3  A    between atoms: C_9  and  C_10
REMARK    4  A    between atoms: C_10  and  C_12
REMARK    5  A    between atoms: C_15  and  N_16
REMARK    6  A    between atoms: C_21  and  N_22
REMARK                            x       y       z     vdW  Elec       q    Type
REMARK                         _______ _______ _______ _____ _____    ______ ____
ROOT
ATOM      1  C   UNL     1       2.466   7.328  19.058  0.00  0.00    +0.000 A 
ATOM      2  C   UNL     1       2.198   8.073  17.911  0.00  0.00    +0.000 A 
ATOM      3  C   UNL     1       1.429   9.241  17.993  0.00  0.00    +0.000 A 
ATOM      4  C   UNL     1       0.845   9.705  19.193  0.00  0.00    +0.000 A 
ATOM      5  C   UNL     1       1.112   8.907  20.319  0.00  0.00    +0.000 A 
ATOM      6  C   UNL     1       1.916   7.746  20.271  0.00  0.00    +0.000 A 
ENDROOT
BRANCH   4   7
ATOM      7  N   UNL     1       0.092  10.861  19.112  0.00  0.00    +0.000 N 
ATOM      8  C   UNL     1       0.393  12.179  19.675  0.00  0.00    +0.000 C 
ATOM      9  C   UNL     1      -0.922  12.618  20.308  0.00  0.00    +0.000 C 
ATOM     10  C   UNL     1      -1.961  12.045  19.360  0.00  0.00    +0.000 C 
ATOM     11  C   UNL     1      -1.365  10.708  18.935  0.00  0.00    +0.000 C 
ENDBRANCH   4   7
BRANCH   5  12
ATOM     12  N   UNL     1       0.479   9.152  21.597  0.00  0.00    +0.000 N 
ATOM     13  O   UNL     1       1.016   9.977  22.351  0.00  0.00    +0.000 OA
ATOM     14  O   UNL     1      -0.583   8.556  21.820  0.00  0.00    +0.000 OA
ENDBRANCH   5  12
BRANCH   1  15
ATOM     15  C   UNL     1       3.295   6.088  19.028  0.00  0.00    +0.000 C 
ATOM     16  O   UNL     1       3.370   5.382  20.030  0.00  0.00    +0.000 OA
BRANCH  15  22
ATOM     17  C   UNL     1       4.003   4.427  17.241  0.00  0.00    +0.000 A 
ATOM     18  C   UNL     1       4.801   4.166  16.106  0.00  0.00    +0.000 A 
ATOM     19  C   UNL     1       5.676   5.123  15.593  0.00  0.00    +0.000 A 
ATOM     20  C   UNL     1       5.786   6.362  16.215  0.00  0.00    +0.000 A 
ATOM     21  C   UNL     1       5.017   6.639  17.344  0.00  0.00    +0.000 A 
ATOM     22  C   UNL     1       4.096   5.694  17.846  0.00  0.00    +0.000 A 
BRANCH  17  24
ATOM     23  O   UNL     1       2.096   3.075  16.905  0.00  0.00    +0.000 OA
ATOM     24  C   UNL     1       3.071   3.325  17.606  0.00  0.00    +0.000 C 
BRANCH  24  25
ATOM     25  O   UNL     1       3.402   2.543  18.646  0.00  0.00    +0.000 OA
ATOM     26  H   UNL     1       3.111   1.602  18.595  0.00  0.00    +0.000 HD
ENDBRANCH  24  25
ENDBRANCH  17  24
ENDBRANCH  15  22
ENDBRANCH   1  15
TORSDOF 6
ENDMDL
MODEL 9
REMARK VINA RESULT:      -7.7      1.304      1.610
REMARK  Name = 
REMARK  6 active torsions:
REMARK  status: ('A' for Active; 'I' for Inactive)
REMARK    1  A    between atoms: C_2  and  O_3
REMARK    2  A    between atoms: C_2  and  C_4
REMARK    3  A    between atoms: C_9  and  C_10
REMARK    4  A    between atoms: C_10  and  C_12
REMARK    5  A    between atoms: C_15  and  N_16
REMARK    6  A    between atoms: C_21  and  N_22
REMARK                            x       y       z     vdW  Elec       q    Type
REMARK                         _______ _______ _______ _____ _____    ______ ____
ROOT
ATOM      1  C   UNL     1       2.559   7.747  18.328  0.00  0.00    +0.000 A 
ATOM      2  C   UNL     1       2.239   8.857  17.549  0.00  0.00    +0.000 A 
ATOM      3  C   UNL     1       1.512   9.920  18.101  0.00  0.00    +0.000 A 
ATOM      4  C   UNL     1       1.020   9.920  19.426  0.00  0.00    +0.000 A 
ATOM      5  C   UNL     1       1.334   8.767  20.166  0.00  0.00    +0.000 A 
ATOM      6  C   UNL     1       2.099   7.699  19.646  0.00  0.00    +0.000 A 
ENDROOT
BRANCH   4   7
ATOM      7  N   UNL     1       0.297  11.031  19.820  0.00  0.00    +0.000 N 
ATOM      8  C   UNL     1       0.627  12.001  20.866  0.00  0.00    +0.000 C 
ATOM      9  C   UNL     1      -0.681  12.182  21.626  0.00  0.00    +0.000 C 
ATOM     10  C   UNL     1      -1.727  12.068  20.530  0.00  0.00    +0.000 C 
ATOM     11  C   UNL     1      -1.162  11.001  19.600  0.00  0.00    +0.000 C 
ENDBRANCH   4   7
BRANCH   5  12
ATOM     12  N   UNL     1       0.791   8.536  21.487  0.00  0.00    +0.000 N 
ATOM     13  O   UNL     1      -0.315   7.980  21.560  0.00  0.00    +0.000 OA
ATOM     14  O   UNL     1       1.498   8.866  22.450  0.00  0.00    +0.000 OA
ENDBRANCH   5  12
BRANCH   1  15
ATOM     15  C   UNL     1       3.347   6.598  17.796  0.00  0.00    +0.000 C 
ATOM     16  O   UNL     1       4.249   6.801  16.989  0.00  0.00    +0.000 OA
BRANCH  15  22
ATOM     17  C   UNL     1       4.019   4.291  18.621  0.00  0.00    +0.000 A 
ATOM     18  C   UNL     1       3.616   2.978  18.950  0.00  0.00    +0.000 A 
ATOM     19  C   UNL     1       2.292   2.564  18.807  0.00  0.00    +0.000 A 
ATOM     20  C   UNL     1       1.341   3.451  18.315  0.00  0.00    +0.000 A 
ATOM     21  C   UNL     1       1.718   4.748  17.972  0.00  0.00    +0.000 A 
ATOM     22  C   UNL     1       3.046   5.192  18.153  0.00  0.00    +0.000 A 
BRANCH  17  24
ATOM     23  O   UNL     1       5.760   5.353  19.812  0.00  0.00    +0.000 OA
ATOM     24  C   UNL     1       5.451   4.586  18.907  0.00  0.00    +0.000 C 
BRANCH  24  25
ATOM     25  O   UNL     1       6.381   3.893  18.230  0.00  0.00    +0.000 OA
ATOM     26  H   UNL     1       6.100   3.519  17.361  0.00  0.00    +0.000 HD
ENDBRANCH  24  25
ENDBRANCH  17  24
ENDBRANCH  15  22
ENDBRANCH   1  15
TORSDOF 6
ENDMDL
