MODEL 1
REMARK VINA RESULT:      -6.4      0.000      0.000
REMARK  Name = 
REMARK  7 active torsions:
REMARK  status: ('A' for Active; 'I' for Inactive)
REMARK    1  A    between atoms: C_1  and  N_2
REMARK    2  A    between atoms: N_2  and  C_3
REMARK    3  A    between atoms: N_2  and  C_4
REMARK    4  A    between atoms: C_4  and  C_5
REMARK    5  A    between atoms: C_5  and  C_6
REMARK    6  A    between atoms: C_6  and  N_7
REMARK    7  A    between atoms: C_10  and  C_11
REMARK                            x       y       z     vdW  Elec       q    Type
REMARK                         _______ _______ _______ _____ _____    ______ ____
ROOT
ATOM      1  N   UNL     1       3.315   5.780  18.336  0.00  0.00    +0.000 N 
ATOM      2  C   UNL     1       2.517   6.755  19.018  0.00  0.00    +0.000 A 
ATOM      3  C   UNL     1       2.288   8.053  18.504  0.00  0.00    +0.000 A 
ATOM      4  C   UNL     1       1.573   9.054  19.200  0.00  0.00    +0.000 A 
ATOM      5  C   UNL     1       1.027   8.753  20.444  0.00  0.00    +0.000 A 
ATOM      6  C   UNL     1       1.185   7.476  20.972  0.00  0.00    +0.000 A 
ATOM      7  C   UNL     1       1.911   6.486  20.276  0.00  0.00    +0.000 A 
ATOM      8  S   UNL     1       1.967   4.902  21.108  0.00  0.00    +0.000 S 
ATOM      9  C   UNL     1       3.030   4.012  20.052  0.00  0.00    +0.000 A 
ATOM     10  C   UNL     1       3.389   2.666  20.330  0.00  0.00    +0.000 A 
ATOM     11  C   UNL     1       4.243   2.165  19.381  0.00  0.00    +0.000 A 
ATOM     12  S   UNL     1       4.663   3.348  18.234  0.00  0.00    +0.000 S 
ATOM     13  C   UNL     1       3.569   4.530  18.889  0.00  0.00    +0.000 A 
ENDROOT
BRANCH   4  14
ATOM     14  C   UNL     1       1.407  10.439  18.623  0.00  0.00    +0.000 C 
ATOM     15  F   UNL     1       0.200  10.653  18.030  0.00  0.00    +0.000 F 
ATOM     16  F   UNL     1       1.539  11.416  19.564  0.00  0.00    +0.000 F 
ATOM     17  F   UNL     1       2.342  10.717  17.671  0.00  0.00    +0.000 F 
ENDBRANCH   4  14
BRANCH   1  18
ATOM     18  C   UNL     1       3.976   6.135  17.054  0.00  0.00    +0.000 C 
BRANCH  18  19
ATOM     19  C   UNL     1       5.272   6.943  17.221  0.00  0.00    +0.000 C 
BRANCH  19  20
ATOM     20  C   UNL     1       6.552   6.222  16.790  0.00  0.00    +0.000 C 
BRANCH  20  22
ATOM     21  C   UNL     1       7.864   8.075  17.674  0.00  0.00    +0.000 C 
ATOM     22  N   UNL     1       7.757   6.622  17.533  0.00  0.00    +0.000 NA
ATOM     23  C   UNL     1       7.735   5.995  18.860  0.00  0.00    +0.000 C 
ENDBRANCH  20  22
ENDBRANCH  19  20
ENDBRANCH  18  19
ENDBRANCH   1  18
TORSDOF 5
ENDMDL
MODEL 2
REMARK VINA RESULT:      -6.4      3.942      6.374
REMARK  Name = 
REMARK  7 active torsions:
REMARK  status: ('A' for Active; 'I' for Inactive)
REMARK    1  A    between atoms: C_1  and  N_2
REMARK    2  A    between atoms: N_2  and  C_3
REMARK    3  A    between atoms: N_2  and  C_4
REMARK    4  A    between atoms: C_4  and  C_5
REMARK    5  A    between atoms: C_5  and  C_6
REMARK    6  A    between atoms: C_6  and  N_7
REMARK    7  A    between atoms: C_10  and  C_11
REMARK                            x       y       z     vdW  Elec       q    Type
REMARK                         _______ _______ _______ _____ _____    ______ ____
ROOT
ATOM      1  N   UNL     1       2.082   6.797  19.917  0.00  0.00    +0.000 N 
ATOM      2  C   UNL     1       2.932   6.703  18.769  0.00  0.00    +0.000 A 
ATOM      3  C   UNL     1       3.706   5.554  18.480  0.00  0.00    +0.000 A 
ATOM      4  C   UNL     1       4.613   5.474  17.399  0.00  0.00    +0.000 A 
ATOM      5  C   UNL     1       4.738   6.562  16.540  0.00  0.00    +0.000 A 
ATOM      6  C   UNL     1       3.965   7.698  16.755  0.00  0.00    +0.000 A 
ATOM      7  C   UNL     1       3.071   7.774  17.844  0.00  0.00    +0.000 A 
ATOM      8  S   UNL     1       2.145   9.304  17.923  0.00  0.00    +0.000 S 
ATOM      9  C   UNL     1       1.285   9.093  19.423  0.00  0.00    +0.000 A 
ATOM     10  C   UNL     1       0.408  10.094  19.920  0.00  0.00    +0.000 A 
ATOM     11  C   UNL     1      -0.150   9.730  21.118  0.00  0.00    +0.000 A 
ATOM     12  S   UNL     1       0.460   8.238  21.660  0.00  0.00    +0.000 S 
ATOM     13  C   UNL     1       1.374   7.957  20.208  0.00  0.00    +0.000 A 
ENDROOT
BRANCH   4  14
ATOM     14  C   UNL     1       5.451   4.240  17.172  0.00  0.00    +0.000 C 
ATOM     15  F   UNL     1       6.352   4.359  16.158  0.00  0.00    +0.000 F 
ATOM     16  F   UNL     1       6.172   3.888  18.273  0.00  0.00    +0.000 F 
ATOM     17  F   UNL     1       4.692   3.150  16.865  0.00  0.00    +0.000 F 
ENDBRANCH   4  14
BRANCH   1  18
ATOM     18  C   UNL     1       2.023   5.671  20.884  0.00  0.00    +0.000 C 
BRANCH  18  19
ATOM     19  C   UNL     1       1.050   4.551  20.482  0.00  0.00    +0.000 C 
BRANCH  19  20
ATOM     20  C   UNL     1       1.444   3.146  20.944  0.00  0.00    +0.000 C 
BRANCH  20  22
ATOM     21  C   UNL     1       1.324   2.627  18.567  0.00  0.00    +0.000 C 
ATOM     22  N   UNL     1       1.887   2.250  19.864  0.00  0.00    +0.000 NA
ATOM     23  C   UNL     1       3.352   2.268  19.794  0.00  0.00    +0.000 C 
ENDBRANCH  20  22
ENDBRANCH  19  20
ENDBRANCH  18  19
ENDBRANCH   1  18
TORSDOF 5
ENDMDL
MODEL 3
REMARK VINA RESULT:      -6.3      3.680      5.439
REMARK  Name = 
REMARK  7 active torsions:
REMARK  status: ('A' for Active; 'I' for Inactive)
REMARK    1  A    between atoms: C_1  and  N_2
REMARK    2  A    between atoms: N_2  and  C_3
REMARK    3  A    between atoms: N_2  and  C_4
REMARK    4  A    between atoms: C_4  and  C_5
REMARK    5  A    between atoms: C_5  and  C_6
REMARK    6  A    between atoms: C_6  and  N_7
REMARK    7  A    between atoms: C_10  and  C_11
REMARK                            x       y       z     vdW  Elec       q    Type
REMARK                         _______ _______ _______ _____ _____    ______ ____
ROOT
ATOM      1  N   UNL     1       2.631   7.268  18.433  0.00  0.00    +0.000 N 
ATOM      2  C   UNL     1       2.561   6.047  19.179  0.00  0.00    +0.000 A 
ATOM      3  C   UNL     1       3.162   4.845  18.741  0.00  0.00    +0.000 A 
ATOM      4  C   UNL     1       3.034   3.613  19.422  0.00  0.00    +0.000 A 
ATOM      5  C   UNL     1       2.309   3.569  20.609  0.00  0.00    +0.000 A 
ATOM      6  C   UNL     1       1.737   4.735  21.106  0.00  0.00    +0.000 A 
ATOM      7  C   UNL     1       1.860   5.959  20.414  0.00  0.00    +0.000 A 
ATOM      8  S   UNL     1       1.084   7.346  21.238  0.00  0.00    +0.000 S 
ATOM      9  C   UNL     1       1.315   8.604  20.056  0.00  0.00    +0.000 A 
ATOM     10  C   UNL     1       0.833   9.922  20.276  0.00  0.00    +0.000 A 
ATOM     11  C   UNL     1       1.109  10.746  19.215  0.00  0.00    +0.000 A 
ATOM     12  S   UNL     1       1.859   9.896  17.946  0.00  0.00    +0.000 S 
ATOM     13  C   UNL     1       1.986   8.422  18.859  0.00  0.00    +0.000 A 
ENDROOT
BRANCH   4  14
ATOM     14  C   UNL     1       3.654   2.349  18.876  0.00  0.00    +0.000 C 
ATOM     15  F   UNL     1       2.777   1.320  18.723  0.00  0.00    +0.000 F 
ATOM     16  F   UNL     1       4.230   2.535  17.655  0.00  0.00    +0.000 F 
ATOM     17  F   UNL     1       4.646   1.873  19.682  0.00  0.00    +0.000 F 
ENDBRANCH   4  14
BRANCH   1  18
ATOM     18  C   UNL     1       3.324   7.288  17.119  0.00  0.00    +0.000 C 
BRANCH  18  19
ATOM     19  C   UNL     1       4.854   7.177  17.216  0.00  0.00    +0.000 C 
BRANCH  19  20
ATOM     20  C   UNL     1       5.505   6.220  16.215  0.00  0.00    +0.000 C 
BRANCH  20  22
ATOM     21  C   UNL     1       7.498   6.921  17.428  0.00  0.00    +0.000 C 
ATOM     22  N   UNL     1       6.950   6.024  16.410  0.00  0.00    +0.000 NA
ATOM     23  C   UNL     1       7.199   4.629  16.791  0.00  0.00    +0.000 C 
ENDBRANCH  20  22
ENDBRANCH  19  20
ENDBRANCH  18  19
ENDBRANCH   1  18
TORSDOF 5
ENDMDL
MODEL 4
REMARK VINA RESULT:      -6.1      3.776      5.574
REMARK  Name = 
REMARK  7 active torsions:
REMARK  status: ('A' for Active; 'I' for Inactive)
REMARK    1  A    between atoms: C_1  and  N_2
REMARK    2  A    between atoms: N_2  and  C_3
REMARK    3  A    between atoms: N_2  and  C_4
REMARK    4  A    between atoms: C_4  and  C_5
REMARK    5  A    between atoms: C_5  and  C_6
REMARK    6  A    between atoms: C_6  and  N_7
REMARK    7  A    between atoms: C_10  and  C_11
REMARK                            x       y       z     vdW  Elec       q    Type
REMARK                         _______ _______ _______ _____ _____    ______ ____
ROOT
ATOM      1  N   UNL     1       2.698   7.192  18.423  0.00  0.00    +0.000 N 
ATOM      2  C   UNL     1       2.603   5.976  19.175  0.00  0.00    +0.000 A 
ATOM      3  C   UNL     1       3.205   4.767  18.756  0.00  0.00    +0.000 A 
ATOM      4  C   UNL     1       3.054   3.540  19.441  0.00  0.00    +0.000 A 
ATOM      5  C   UNL     1       2.304   3.508  20.613  0.00  0.00    +0.000 A 
ATOM      6  C   UNL     1       1.730   4.681  21.091  0.00  0.00    +0.000 A 
ATOM      7  C   UNL     1       1.876   5.900  20.395  0.00  0.00    +0.000 A 
ATOM      8  S   UNL     1       1.093   7.296  21.194  0.00  0.00    +0.000 S 
ATOM      9  C   UNL     1       1.358   8.547  20.010  0.00  0.00    +0.000 A 
ATOM     10  C   UNL     1       0.880   9.869  20.213  0.00  0.00    +0.000 A 
ATOM     11  C   UNL     1       1.184  10.684  19.153  0.00  0.00    +0.000 A 
ATOM     12  S   UNL     1       1.954   9.823  17.906  0.00  0.00    +0.000 S 
ATOM     13  C   UNL     1       2.052   8.353  18.829  0.00  0.00    +0.000 A 
ENDROOT
BRANCH   4  14
ATOM     14  C   UNL     1       3.677   2.269  18.915  0.00  0.00    +0.000 C 
ATOM     15  F   UNL     1       4.678   1.777  19.696  0.00  0.00    +0.000 F 
ATOM     16  F   UNL     1       2.772   1.258  18.785  0.00  0.00    +0.000 F 
ATOM     17  F   UNL     1       4.222   2.436  17.677  0.00  0.00    +0.000 F 
ENDBRANCH   4  14
BRANCH   1  18
ATOM     18  C   UNL     1       3.418   7.200  17.124  0.00  0.00    +0.000 C 
BRANCH  18  19
ATOM     19  C   UNL     1       4.912   6.859  17.235  0.00  0.00    +0.000 C 
BRANCH  19  20
ATOM     20  C   UNL     1       5.505   6.120  16.033  0.00  0.00    +0.000 C 
BRANCH  20  22
ATOM     21  C   UNL     1       6.253   4.002  15.090  0.00  0.00    +0.000 C 
ATOM     22  N   UNL     1       5.919   4.736  16.311  0.00  0.00    +0.000 NA
ATOM     23  C   UNL     1       7.076   4.752  17.213  0.00  0.00    +0.000 C 
ENDBRANCH  20  22
ENDBRANCH  19  20
ENDBRANCH  18  19
ENDBRANCH   1  18
TORSDOF 5
ENDMDL
MODEL 5
REMARK VINA RESULT:      -6.1      0.781      1.373
REMARK  Name = 
REMARK  7 active torsions:
REMARK  status: ('A' for Active; 'I' for Inactive)
REMARK    1  A    between atoms: C_1  and  N_2
REMARK    2  A    between atoms: N_2  and  C_3
REMARK    3  A    between atoms: N_2  and  C_4
REMARK    4  A    between atoms: C_4  and  C_5
REMARK    5  A    between atoms: C_5  and  C_6
REMARK    6  A    between atoms: C_6  and  N_7
REMARK    7  A    between atoms: C_10  and  C_11
REMARK                            x       y       z     vdW  Elec       q    Type
REMARK                         _______ _______ _______ _____ _____    ______ ____
ROOT
ATOM      1  N   UNL     1       3.255   5.767  18.428  0.00  0.00    +0.000 N 
ATOM      2  C   UNL     1       2.461   6.751  19.100  0.00  0.00    +0.000 A 
ATOM      3  C   UNL     1       2.262   8.055  18.590  0.00  0.00    +0.000 A 
ATOM      4  C   UNL     1       1.550   9.063  19.279  0.00  0.00    +0.000 A 
ATOM      5  C   UNL     1       0.976   8.765  20.511  0.00  0.00    +0.000 A 
ATOM      6  C   UNL     1       1.105   7.482  21.034  0.00  0.00    +0.000 A 
ATOM      7  C   UNL     1       1.828   6.484  20.346  0.00  0.00    +0.000 A 
ATOM      8  S   UNL     1       1.844   4.896  21.170  0.00  0.00    +0.000 S 
ATOM      9  C   UNL     1       2.912   3.994  20.128  0.00  0.00    +0.000 A 
ATOM     10  C   UNL     1       3.244   2.642  20.404  0.00  0.00    +0.000 A 
ATOM     11  C   UNL     1       4.107   2.132  19.468  0.00  0.00    +0.000 A 
ATOM     12  S   UNL     1       4.566   3.314  18.336  0.00  0.00    +0.000 S 
ATOM     13  C   UNL     1       3.480   4.511  18.978  0.00  0.00    +0.000 A 
ENDROOT
BRANCH   4  14
ATOM     14  C   UNL     1       1.416  10.454  18.707  0.00  0.00    +0.000 C 
ATOM     15  F   UNL     1       1.529  11.448  19.631  0.00  0.00    +0.000 F 
ATOM     16  F   UNL     1       2.353  10.720  17.755  0.00  0.00    +0.000 F 
ATOM     17  F   UNL     1       0.209  10.648  18.102  0.00  0.00    +0.000 F 
ENDBRANCH   4  14
BRANCH   1  18
ATOM     18  C   UNL     1       3.945   6.119  17.160  0.00  0.00    +0.000 C 
BRANCH  18  19
ATOM     19  C   UNL     1       5.361   6.681  17.353  0.00  0.00    +0.000 C 
BRANCH  19  20
ATOM     20  C   UNL     1       6.250   6.658  16.107  0.00  0.00    +0.000 C 
BRANCH  20  22
ATOM     21  C   UNL     1       7.519   5.091  17.476  0.00  0.00    +0.000 C 
ATOM     22  N   UNL     1       7.312   5.639  16.135  0.00  0.00    +0.000 NA
ATOM     23  C   UNL     1       6.966   4.559  15.205  0.00  0.00    +0.000 C 
ENDBRANCH  20  22
ENDBRANCH  19  20
ENDBRANCH  18  19
ENDBRANCH   1  18
TORSDOF 5
ENDMDL
MODEL 6
REMARK VINA RESULT:      -6.1      2.512      4.633
REMARK  Name = 
REMARK  7 active torsions:
REMARK  status: ('A' for Active; 'I' for Inactive)
REMARK    1  A    between atoms: C_1  and  N_2
REMARK    2  A    between atoms: N_2  and  C_3
REMARK    3  A    between atoms: N_2  and  C_4
REMARK    4  A    between atoms: C_4  and  C_5
REMARK    5  A    between atoms: C_5  and  C_6
REMARK    6  A    between atoms: C_6  and  N_7
REMARK    7  A    between atoms: C_10  and  C_11
REMARK                            x       y       z     vdW  Elec       q    Type
REMARK                         _______ _______ _______ _____ _____    ______ ____
ROOT
ATOM      1  N   UNL     1       2.995   5.911  19.706  0.00  0.00    +0.000 N 
ATOM      2  C   UNL     1       2.314   7.171  19.728  0.00  0.00    +0.000 A 
ATOM      3  C   UNL     1       1.507   7.588  20.812  0.00  0.00    +0.000 A 
ATOM      4  C   UNL     1       0.763   8.790  20.817  0.00  0.00    +0.000 A 
ATOM      5  C   UNL     1       0.845   9.639  19.717  0.00  0.00    +0.000 A 
ATOM      6  C   UNL     1       1.661   9.296  18.645  0.00  0.00    +0.000 A 
ATOM      7  C   UNL     1       2.392   8.088  18.643  0.00  0.00    +0.000 A 
ATOM      8  S   UNL     1       3.408   7.851  17.189  0.00  0.00    +0.000 S 
ATOM      9  C   UNL     1       4.024   6.246  17.474  0.00  0.00    +0.000 A 
ATOM     10  C   UNL     1       4.891   5.612  16.545  0.00  0.00    +0.000 A 
ATOM     11  C   UNL     1       5.241   4.353  16.959  0.00  0.00    +0.000 A 
ATOM     12  S   UNL     1       4.450   3.930  18.403  0.00  0.00    +0.000 S 
ATOM     13  C   UNL     1       3.737   5.503  18.605  0.00  0.00    +0.000 A 
ENDROOT
BRANCH   4  14
ATOM     14  C   UNL     1      -0.123   9.156  21.982  0.00  0.00    +0.000 C 
ATOM     15  F   UNL     1       0.545   9.335  23.154  0.00  0.00    +0.000 F 
ATOM     16  F   UNL     1      -0.819  10.308  21.768  0.00  0.00    +0.000 F 
ATOM     17  F   UNL     1      -1.063   8.201  22.235  0.00  0.00    +0.000 F 
ENDBRANCH   4  14
BRANCH   1  18
ATOM     18  C   UNL     1       2.829   4.965  20.839  0.00  0.00    +0.000 C 
BRANCH  18  19
ATOM     19  C   UNL     1       1.523   4.158  20.794  0.00  0.00    +0.000 C 
BRANCH  19  20
ATOM     20  C   UNL     1       1.691   2.638  20.863  0.00  0.00    +0.000 C 
BRANCH  20  22
ATOM     21  C   UNL     1       0.799   2.798  18.601  0.00  0.00    +0.000 C 
ATOM     22  N   UNL     1       1.454   1.940  19.590  0.00  0.00    +0.000 NA
ATOM     23  C   UNL     1       2.735   1.460  19.059  0.00  0.00    +0.000 C 
ENDBRANCH  20  22
ENDBRANCH  19  20
ENDBRANCH  18  19
ENDBRANCH   1  18
TORSDOF 5
ENDMDL
MODEL 7
REMARK VINA RESULT:      -6.1      2.875      5.657
REMARK  Name = 
REMARK  7 active torsions:
REMARK  status: ('A' for Active; 'I' for Inactive)
REMARK    1  A    between atoms: C_1  and  N_2
REMARK    2  A    between atoms: N_2  and  C_3
REMARK    3  A    between atoms: N_2  and  C_4
REMARK    4  A    between atoms: C_4  and  C_5
REMARK    5  A    between atoms: C_5  and  C_6
REMARK    6  A    between atoms: C_6  and  N_7
REMARK    7  A    between atoms: C_10  and  C_11
REMARK                            x       y       z     vdW  Elec       q    Type
REMARK                         _______ _______ _______ _____ _____    ______ ____
ROOT
ATOM      1  N   UNL     1       3.403   5.090  19.213  0.00  0.00    +0.000 N 
ATOM      2  C   UNL     1       4.584   5.117  18.403  0.00  0.00    +0.000 A 
ATOM      3  C   UNL     1       5.510   6.186  18.433  0.00  0.00    +0.000 A 
ATOM      4  C   UNL     1       6.635   6.269  17.582  0.00  0.00    +0.000 A 
ATOM      5  C   UNL     1       6.882   5.234  16.684  0.00  0.00    +0.000 A 
ATOM      6  C   UNL     1       6.025   4.139  16.649  0.00  0.00    +0.000 A 
ATOM      7  C   UNL     1       4.897   4.069  17.493  0.00  0.00    +0.000 A 
ATOM      8  S   UNL     1       3.945   2.564  17.319  0.00  0.00    +0.000 S 
ATOM      9  C   UNL     1       2.604   2.895  18.380  0.00  0.00    +0.000 A 
ATOM     10  C   UNL     1       1.551   1.958  18.555  0.00  0.00    +0.000 A 
ATOM     11  C   UNL     1       0.595   2.427  19.418  0.00  0.00    +0.000 A 
ATOM     12  S   UNL     1       0.939   4.013  19.927  0.00  0.00    +0.000 S 
ATOM     13  C   UNL     1       2.481   4.054  19.125  0.00  0.00    +0.000 A 
ENDROOT
BRANCH   4  14
ATOM     14  C   UNL     1       7.560   7.461  17.623  0.00  0.00    +0.000 C 
ATOM     15  F   UNL     1       8.452   7.438  18.651  0.00  0.00    +0.000 F 
ATOM     16  F   UNL     1       8.301   7.587  16.486  0.00  0.00    +0.000 F 
ATOM     17  F   UNL     1       6.880   8.636  17.751  0.00  0.00    +0.000 F 
ENDBRANCH   4  14
BRANCH   1  18
ATOM     18  C   UNL     1       3.093   6.240  20.101  0.00  0.00    +0.000 C 
BRANCH  18  19
ATOM     19  C   UNL     1       2.310   7.369  19.412  0.00  0.00    +0.000 C 
BRANCH  19  20
ATOM     20  C   UNL     1       1.495   8.264  20.348  0.00  0.00    +0.000 C 
BRANCH  20  22
ATOM     21  C   UNL     1       1.152   9.539  18.300  0.00  0.00    +0.000 C 
ATOM     22  N   UNL     1       1.091   9.553  19.762  0.00  0.00    +0.000 NA
ATOM     23  C   UNL     1      -0.272   9.874  20.200  0.00  0.00    +0.000 C 
ENDBRANCH  20  22
ENDBRANCH  19  20
ENDBRANCH  18  19
ENDBRANCH   1  18
TORSDOF 5
ENDMDL
MODEL 8
REMARK VINA RESULT:      -6.0      2.875      5.566
REMARK  Name = 
REMARK  7 active torsions:
REMARK  status: ('A' for Active; 'I' for Inactive)
REMARK    1  A    between atoms: C_1  and  N_2
REMARK    2  A    between atoms: N_2  and  C_3
REMARK    3  A    between atoms: N_2  and  C_4
REMARK    4  A    between atoms: C_4  and  C_5
REMARK    5  A    between atoms: C_5  and  C_6
REMARK    6  A    between atoms: C_6  and  N_7
REMARK    7  A    between atoms: C_10  and  C_11
REMARK                            x       y       z     vdW  Elec       q    Type
REMARK                         _______ _______ _______ _____ _____    ______ ____
ROOT
ATOM      1  N   UNL     1       3.406   5.114  19.198  0.00  0.00    +0.000 N 
ATOM      2  C   UNL     1       4.593   5.141  18.398  0.00  0.00    +0.000 A 
ATOM      3  C   UNL     1       5.513   6.215  18.427  0.00  0.00    +0.000 A 
ATOM      4  C   UNL     1       6.646   6.297  17.585  0.00  0.00    +0.000 A 
ATOM      5  C   UNL     1       6.905   5.258  16.697  0.00  0.00    +0.000 A 
ATOM      6  C   UNL     1       6.055   4.158  16.663  0.00  0.00    +0.000 A 
ATOM      7  C   UNL     1       4.919   4.088  17.498  0.00  0.00    +0.000 A 
ATOM      8  S   UNL     1       3.977   2.577  17.327  0.00  0.00    +0.000 S 
ATOM      9  C   UNL     1       2.625   2.909  18.374  0.00  0.00    +0.000 A 
ATOM     10  C   UNL     1       1.576   1.967  18.547  0.00  0.00    +0.000 A 
ATOM     11  C   UNL     1       0.610   2.437  19.399  0.00  0.00    +0.000 A 
ATOM     12  S   UNL     1       0.941   4.028  19.899  0.00  0.00    +0.000 S 
ATOM     13  C   UNL     1       2.490   4.072  19.110  0.00  0.00    +0.000 A 
ENDROOT
BRANCH   4  14
ATOM     14  C   UNL     1       7.564   7.495  17.625  0.00  0.00    +0.000 C 
ATOM     15  F   UNL     1       6.918   8.686  17.753  0.00  0.00    +0.000 F 
ATOM     16  F   UNL     1       8.452   7.438  18.657  0.00  0.00    +0.000 F 
ATOM     17  F   UNL     1       8.319   7.604  16.495  0.00  0.00    +0.000 F 
ENDBRANCH   4  14
BRANCH   1  18
ATOM     18  C   UNL     1       3.082   6.269  20.075  0.00  0.00    +0.000 C 
BRANCH  18  19
ATOM     19  C   UNL     1       2.285   7.381  19.375  0.00  0.00    +0.000 C 
BRANCH  19  20
ATOM     20  C   UNL     1       1.525   8.326  20.309  0.00  0.00    +0.000 C 
BRANCH  20  22
ATOM     21  C   UNL     1       0.786  10.645  20.437  0.00  0.00    +0.000 C 
ATOM     22  N   UNL     1       0.827   9.427  19.626  0.00  0.00    +0.000 NA
ATOM     23  C   UNL     1       1.496   9.702  18.349  0.00  0.00    +0.000 C 
ENDBRANCH  20  22
ENDBRANCH  19  20
ENDBRANCH  18  19
ENDBRANCH   1  18
TORSDOF 5
ENDMDL
MODEL 9
REMARK VINA RESULT:      -6.0      5.050      8.356
REMARK  Name = 
REMARK  7 active torsions:
REMARK  status: ('A' for Active; 'I' for Inactive)
REMARK    1  A    between atoms: C_1  and  N_2
REMARK    2  A    between atoms: N_2  and  C_3
REMARK    3  A    between atoms: N_2  and  C_4
REMARK    4  A    between atoms: C_4  and  C_5
REMARK    5  A    between atoms: C_5  and  C_6
REMARK    6  A    between atoms: C_6  and  N_7
REMARK    7  A    between atoms: C_10  and  C_11
REMARK                            x       y       z     vdW  Elec       q    Type
REMARK                         _______ _______ _______ _____ _____    ______ ____
ROOT
ATOM      1  N   UNL     1      -1.189  11.593  20.184  0.00  0.00    +0.000 N 
ATOM      2  C   UNL     1      -0.257  10.527  20.399  0.00  0.00    +0.000 A 
ATOM      3  C   UNL     1       0.520   9.966  19.358  0.00  0.00    +0.000 A 
ATOM      4  C   UNL     1       1.382   8.860  19.535  0.00  0.00    +0.000 A 
ATOM      5  C   UNL     1       1.514   8.302  20.803  0.00  0.00    +0.000 A 
ATOM      6  C   UNL     1       0.805   8.847  21.869  0.00  0.00    +0.000 A 
ATOM      7  C   UNL     1      -0.063   9.943  21.681  0.00  0.00    +0.000 A 
ATOM      8  S   UNL     1      -0.851  10.516  23.182  0.00  0.00    +0.000 S 
ATOM      9  C   UNL     1      -1.916  11.742  22.550  0.00  0.00    +0.000 A 
ATOM     10  C   UNL     1      -2.779  12.481  23.402  0.00  0.00    +0.000 A 
ATOM     11  C   UNL     1      -3.537  13.380  22.696  0.00  0.00    +0.000 A 
ATOM     12  S   UNL     1      -3.260  13.251  21.024  0.00  0.00    +0.000 S 
ATOM     13  C   UNL     1      -1.980  12.089  21.212  0.00  0.00    +0.000 A 
ENDROOT
BRANCH   4  14
ATOM     14  C   UNL     1       2.147   8.271  18.374  0.00  0.00    +0.000 C 
ATOM     15  F   UNL     1       2.964   9.157  17.741  0.00  0.00    +0.000 F 
ATOM     16  F   UNL     1       2.941   7.229  18.747  0.00  0.00    +0.000 F 
ATOM     17  F   UNL     1       1.319   7.777  17.410  0.00  0.00    +0.000 F 
ENDBRANCH   4  14
BRANCH   1  18
ATOM     18  C   UNL     1      -1.397  12.123  18.812  0.00  0.00    +0.000 C 
BRANCH  18  19
ATOM     19  C   UNL     1      -2.518  11.419  18.032  0.00  0.00    +0.000 C 
BRANCH  19  20
ATOM     20  C   UNL     1      -2.150  10.975  16.615  0.00  0.00    +0.000 C 
BRANCH  20  22
ATOM     21  C   UNL     1      -3.240  10.120  14.610  0.00  0.00    +0.000 C 
ATOM     22  N   UNL     1      -3.210  11.183  15.615  0.00  0.00    +0.000 NA
ATOM     23  C   UNL     1      -4.507  11.257  16.298  0.00  0.00    +0.000 C 
ENDBRANCH  20  22
ENDBRANCH  19  20
ENDBRANCH  18  19
ENDBRANCH   1  18
TORSDOF 5
ENDMDL
