MODEL 1
REMARK VINA RESULT:      -9.1      0.000      0.000
REMARK  Name = 
REMARK  9 active torsions:
REMARK  status: ('A' for Active; 'I' for Inactive)
REMARK    1  A    between atoms: C_1  and  O_2
REMARK    2  A    between atoms: O_2  and  C_3
REMARK    3  A    between atoms: N_11  and  C_12
REMARK    4  A    between atoms: C_12  and  C_13
REMARK    5  A    between atoms: C_13  and  N_14
REMARK    6  A    between atoms: C_13  and  C_15
REMARK    7  A    between atoms: C_18  and  N_19
REMARK    8  A    between atoms: N_19  and  C_20
REMARK    9  A    between atoms: C_20  and  C_21
REMARK                            x       y       z     vdW  Elec       q    Type
REMARK                         _______ _______ _______ _____ _____    ______ ____
ROOT
ATOM      1  C   UNL     1       5.473   4.826  16.366  0.00  0.00    +0.000 C 
ATOM      2  C   UNL     1       6.993   4.572  16.332  0.00  0.00    +0.000 C 
ATOM      3  C   UNL     1       7.712   4.900  17.636  0.00  0.00    +0.000 C 
ATOM      4  C   UNL     1       7.321   6.279  18.167  0.00  0.00    +0.000 C 
ATOM      5  C   UNL     1       5.781   6.438  18.159  0.00  0.00    +0.000 C 
ATOM      6  O   UNL     1       5.174   6.113  16.911  0.00  0.00    +0.000 OA
ENDROOT
BRANCH   4   7
ATOM      7  N   UNL     1       8.044   7.298  17.368  0.00  0.00    +0.000 NA
ATOM      8  H   UNL     1       7.881   7.109  16.379  0.00  0.00    +0.000 HD
BRANCH   7   9
ATOM      9  C   UNL     1       7.491   8.618  17.668  0.00  0.00    +0.000 C 
BRANCH   9  10
ATOM     10  C   UNL     1       8.444   9.712  18.063  0.00  0.00    +0.000 A 
ATOM     11  C   UNL     1       9.204   9.705  19.231  0.00  0.00    +0.000 A 
ATOM     12  C   UNL     1       9.688  10.922  19.717  0.00  0.00    +0.000 A 
ATOM     13  C   UNL     1       9.336  12.088  19.053  0.00  0.00    +0.000 A 
ATOM     14  C   UNL     1       8.661  11.981  17.842  0.00  0.00    +0.000 A 
ATOM     15  N   UNL     1       8.257  10.826  17.319  0.00  0.00    +0.000 NA
ATOM     16  N   UNL     1       8.210  13.147  17.199  0.00  0.00    +0.000 N 
ATOM     17  C   UNL     1       7.672  14.042  18.102  0.00  0.00    +0.000 C 
ATOM     18  O   UNL     1       6.615  14.633  17.912  0.00  0.00    +0.000 OA
ATOM     19  C   UNL     1       8.537  14.243  19.356  0.00  0.00    +0.000 C 
ATOM     20  O   UNL     1       9.583  13.303  19.633  0.00  0.00    +0.000 OA
ATOM     21  H   UNL     1       9.043  13.579  16.809  0.00  0.00    +0.000 HD
ENDBRANCH   9  10
ENDBRANCH   7   9
ENDBRANCH   4   7
BRANCH   1  22
ATOM     22  C   UNL     1       4.637   3.641  16.961  0.00  0.00    +0.000 C 
BRANCH  22  23
ATOM     23  N   UNL     1       5.084   3.105  18.264  0.00  0.00    +0.000 NA
ATOM     24  H   UNL     1       4.288   2.683  18.749  0.00  0.00    +0.000 HD
ATOM     25  H   UNL     1       5.449   3.838  18.859  0.00  0.00    +0.000 HD
ENDBRANCH  22  23
BRANCH  22  26
ATOM     26  C   UNL     1       3.115   3.949  17.117  0.00  0.00    +0.000 C 
BRANCH  26  35
ATOM     27  C   UNL     1       2.196   7.843  18.904  0.00  0.00    +0.000 A 
ATOM     28  C   UNL     1       1.675   7.901  20.194  0.00  0.00    +0.000 A 
ATOM     29  C   UNL     1       1.432   6.721  20.890  0.00  0.00    +0.000 A 
ATOM     30  C   UNL     1       1.716   5.477  20.311  0.00  0.00    +0.000 A 
ATOM     31  C   UNL     1       1.383   4.263  21.045  0.00  0.00    +0.000 A 
ATOM     32  C   UNL     1       1.581   3.073  20.476  0.00  0.00    +0.000 A 
ATOM     33  C   UNL     1       2.178   2.934  19.128  0.00  0.00    +0.000 A 
ATOM     34  O   UNL     1       2.274   1.799  18.666  0.00  0.00    +0.000 OA
ATOM     35  N   UNL     1       2.578   4.101  18.473  0.00  0.00    +0.000 N 
ATOM     36  C   UNL     1       2.272   5.397  19.021  0.00  0.00    +0.000 A 
ATOM     37  C   UNL     1       2.474   6.597  18.322  0.00  0.00    +0.000 A 
BRANCH  27  39
ATOM     38  C   UNL     1       1.583  10.030  18.201  0.00  0.00    +0.000 C 
ATOM     39  O   UNL     1       2.468   8.926  18.110  0.00  0.00    +0.000 OA
ENDBRANCH  27  39
ENDBRANCH  26  35
ENDBRANCH  22  26
ENDBRANCH   1  22
TORSDOF 8
ENDMDL
MODEL 2
REMARK VINA RESULT:      -8.9      1.587      1.670
REMARK  Name = 
REMARK  9 active torsions:
REMARK  status: ('A' for Active; 'I' for Inactive)
REMARK    1  A    between atoms: C_1  and  O_2
REMARK    2  A    between atoms: O_2  and  C_3
REMARK    3  A    between atoms: N_11  and  C_12
REMARK    4  A    between atoms: C_12  and  C_13
REMARK    5  A    between atoms: C_13  and  N_14
REMARK    6  A    between atoms: C_13  and  C_15
REMARK    7  A    between atoms: C_18  and  N_19
REMARK    8  A    between atoms: N_19  and  C_20
REMARK    9  A    between atoms: C_20  and  C_21
REMARK                            x       y       z     vdW  Elec       q    Type
REMARK                         _______ _______ _______ _____ _____    ______ ____
ROOT
ATOM      1  C   UNL     1       6.421   4.860  16.640  0.00  0.00    +0.000 C 
ATOM      2  C   UNL     1       7.725   5.106  17.424  0.00  0.00    +0.000 C 
ATOM      3  C   UNL     1       7.604   6.150  18.528  0.00  0.00    +0.000 C 
ATOM      4  C   UNL     1       6.926   7.425  18.029  0.00  0.00    +0.000 C 
ATOM      5  C   UNL     1       5.632   7.075  17.254  0.00  0.00    +0.000 C 
ATOM      6  O   UNL     1       5.816   6.091  16.240  0.00  0.00    +0.000 OA
ENDROOT
BRANCH   4   7
ATOM      7  N   UNL     1       7.919   8.194  17.240  0.00  0.00    +0.000 NA
ATOM      8  H   UNL     1       7.640   8.171  16.259  0.00  0.00    +0.000 HD
BRANCH   7   9
ATOM      9  C   UNL     1       7.899   9.589  17.679  0.00  0.00    +0.000 C 
BRANCH   9  10
ATOM     10  C   UNL     1       9.088  10.109  18.438  0.00  0.00    +0.000 A 
ATOM     11  C   UNL     1       9.128  10.261  19.822  0.00  0.00    +0.000 A 
ATOM     12  C   UNL     1      10.062  11.146  20.368  0.00  0.00    +0.000 A 
ATOM     13  C   UNL     1      10.861  11.882  19.504  0.00  0.00    +0.000 A 
ATOM     14  C   UNL     1      10.816  11.583  18.147  0.00  0.00    +0.000 A 
ATOM     15  N   UNL     1       9.990  10.688  17.612  0.00  0.00    +0.000 NA
ATOM     16  N   UNL     1      11.544  12.377  17.243  0.00  0.00    +0.000 N 
ATOM     17  C   UNL     1      11.447  13.717  17.560  0.00  0.00    +0.000 C 
ATOM     18  O   UNL     1      11.229  14.589  16.727  0.00  0.00    +0.000 OA
ATOM     19  C   UNL     1      11.660  14.010  19.053  0.00  0.00    +0.000 C 
ATOM     20  O   UNL     1      11.605  12.924  19.987  0.00  0.00    +0.000 OA
ATOM     21  H   UNL     1      12.516  12.108  17.370  0.00  0.00    +0.000 HD
ENDBRANCH   9  10
ENDBRANCH   7   9
ENDBRANCH   4   7
BRANCH   1  22
ATOM     22  C   UNL     1       5.450   3.829  17.315  0.00  0.00    +0.000 C 
BRANCH  22  23
ATOM     23  N   UNL     1       5.703   3.517  18.738  0.00  0.00    +0.000 NA
ATOM     24  H   UNL     1       4.923   3.860  19.305  0.00  0.00    +0.000 HD
ATOM     25  H   UNL     1       6.544   3.970  19.071  0.00  0.00    +0.000 HD
ENDBRANCH  22  23
BRANCH  22  26
ATOM     26  C   UNL     1       3.941   4.215  17.217  0.00  0.00    +0.000 C 
BRANCH  26  35
ATOM     27  C   UNL     1       2.147   7.509  19.483  0.00  0.00    +0.000 A 
ATOM     28  C   UNL     1       1.346   7.227  20.587  0.00  0.00    +0.000 A 
ATOM     29  C   UNL     1       1.109   5.903  20.943  0.00  0.00    +0.000 A 
ATOM     30  C   UNL     1       1.675   4.852  20.209  0.00  0.00    +0.000 A 
ATOM     31  C   UNL     1       1.346   3.480  20.571  0.00  0.00    +0.000 A 
ATOM     32  C   UNL     1       1.820   2.472  19.836  0.00  0.00    +0.000 A 
ATOM     33  C   UNL     1       2.717   2.695  18.680  0.00  0.00    +0.000 A 
ATOM     34  O   UNL     1       3.061   1.708  18.032  0.00  0.00    +0.000 OA
ATOM     35  N   UNL     1       3.098   4.008  18.399  0.00  0.00    +0.000 N 
ATOM     36  C   UNL     1       2.512   5.115  19.109  0.00  0.00    +0.000 A 
ATOM     37  C   UNL     1       2.707   6.456  18.744  0.00  0.00    +0.000 A 
BRANCH  27  39
ATOM     38  C   UNL     1       2.027   9.084  17.706  0.00  0.00    +0.000 C 
ATOM     39  O   UNL     1       2.447   8.764  19.021  0.00  0.00    +0.000 OA
ENDBRANCH  27  39
ENDBRANCH  26  35
ENDBRANCH  22  26
ENDBRANCH   1  22
TORSDOF 8
ENDMDL
MODEL 3
REMARK VINA RESULT:      -8.9      6.164      9.805
REMARK  Name = 
REMARK  9 active torsions:
REMARK  status: ('A' for Active; 'I' for Inactive)
REMARK    1  A    between atoms: C_1  and  O_2
REMARK    2  A    between atoms: O_2  and  C_3
REMARK    3  A    between atoms: N_11  and  C_12
REMARK    4  A    between atoms: C_12  and  C_13
REMARK    5  A    between atoms: C_13  and  N_14
REMARK    6  A    between atoms: C_13  and  C_15
REMARK    7  A    between atoms: C_18  and  N_19
REMARK    8  A    between atoms: N_19  and  C_20
REMARK    9  A    between atoms: C_20  and  C_21
REMARK                            x       y       z     vdW  Elec       q    Type
REMARK                         _______ _______ _______ _____ _____    ______ ____
ROOT
ATOM      1  C   UNL     1       1.726   9.140  20.257  0.00  0.00    +0.000 C 
ATOM      2  C   UNL     1       1.183   8.842  21.668  0.00  0.00    +0.000 C 
ATOM      3  C   UNL     1      -0.332   8.957  21.792  0.00  0.00    +0.000 C 
ATOM      4  C   UNL     1      -0.853  10.260  21.185  0.00  0.00    +0.000 C 
ATOM      5  C   UNL     1      -0.250  10.471  19.775  0.00  0.00    +0.000 C 
ATOM      6  O   UNL     1       1.170  10.347  19.730  0.00  0.00    +0.000 OA
ENDROOT
BRANCH   4   7
ATOM      7  N   UNL     1      -0.567  11.357  22.141  0.00  0.00    +0.000 NA
ATOM      8  H   UNL     1      -0.551  12.238  21.626  0.00  0.00    +0.000 HD
BRANCH   7   9
ATOM      9  C   UNL     1      -1.651  11.430  23.120  0.00  0.00    +0.000 C 
BRANCH   9  10
ATOM     10  C   UNL     1      -2.613  12.581  23.025  0.00  0.00    +0.000 A 
ATOM     11  C   UNL     1      -2.461  13.787  23.706  0.00  0.00    +0.000 A 
ATOM     12  C   UNL     1      -3.592  14.584  23.909  0.00  0.00    +0.000 A 
ATOM     13  C   UNL     1      -4.823  14.107  23.484  0.00  0.00    +0.000 A 
ATOM     14  C   UNL     1      -4.855  12.942  22.726  0.00  0.00    +0.000 A 
ATOM     15  N   UNL     1      -3.780  12.207  22.451  0.00  0.00    +0.000 NA
ATOM     16  N   UNL     1      -6.095  12.388  22.364  0.00  0.00    +0.000 N 
ATOM     17  C   UNL     1      -6.993  12.440  23.412  0.00  0.00    +0.000 C 
ATOM     18  O   UNL     1      -7.702  11.493  23.735  0.00  0.00    +0.000 OA
ATOM     19  C   UNL     1      -7.031  13.802  24.120  0.00  0.00    +0.000 C 
ATOM     20  O   UNL     1      -5.971  14.738  23.880  0.00  0.00    +0.000 OA
ATOM     21  H   UNL     1      -6.457  12.992  21.631  0.00  0.00    +0.000 HD
ENDBRANCH   9  10
ENDBRANCH   7   9
ENDBRANCH   4   7
BRANCH   1  22
ATOM     22  C   UNL     1       1.694   7.912  19.283  0.00  0.00    +0.000 C 
BRANCH  22  23
ATOM     23  N   UNL     1       1.910   8.199  17.849  0.00  0.00    +0.000 NA
ATOM     24  H   UNL     1       2.564   8.981  17.754  0.00  0.00    +0.000 HD
ATOM     25  H   UNL     1       1.048   8.466  17.392  0.00  0.00    +0.000 HD
ENDBRANCH  22  23
BRANCH  22  26
ATOM     26  C   UNL     1       2.698   6.776  19.655  0.00  0.00    +0.000 C 
BRANCH  26  35
ATOM     27  C   UNL     1       5.795   6.147  16.619  0.00  0.00    +0.000 A 
ATOM     28  C   UNL     1       5.777   4.985  15.851  0.00  0.00    +0.000 A 
ATOM     29  C   UNL     1       4.791   4.029  16.074  0.00  0.00    +0.000 A 
ATOM     30  C   UNL     1       3.809   4.229  17.054  0.00  0.00    +0.000 A 
ATOM     31  C   UNL     1       2.836   3.174  17.304  0.00  0.00    +0.000 A 
ATOM     32  C   UNL     1       1.941   3.320  18.282  0.00  0.00    +0.000 A 
ATOM     33  C   UNL     1       1.868   4.549  19.104  0.00  0.00    +0.000 A 
ATOM     34  O   UNL     1       1.045   4.571  20.017  0.00  0.00    +0.000 OA
ATOM     35  N   UNL     1       2.747   5.590  18.795  0.00  0.00    +0.000 N 
ATOM     36  C   UNL     1       3.790   5.409  17.818  0.00  0.00    +0.000 A 
ATOM     37  C   UNL     1       4.815   6.342  17.604  0.00  0.00    +0.000 A 
BRANCH  27  39
ATOM     38  C   UNL     1       7.521   7.419  17.645  0.00  0.00    +0.000 C 
ATOM     39  O   UNL     1       6.715   7.156  16.509  0.00  0.00    +0.000 OA
ENDBRANCH  27  39
ENDBRANCH  26  35
ENDBRANCH  22  26
ENDBRANCH   1  22
TORSDOF 8
ENDMDL
MODEL 4
REMARK VINA RESULT:      -8.7      5.612     10.090
REMARK  Name = 
REMARK  9 active torsions:
REMARK  status: ('A' for Active; 'I' for Inactive)
REMARK    1  A    between atoms: C_1  and  O_2
REMARK    2  A    between atoms: O_2  and  C_3
REMARK    3  A    between atoms: N_11  and  C_12
REMARK    4  A    between atoms: C_12  and  C_13
REMARK    5  A    between atoms: C_13  and  N_14
REMARK    6  A    between atoms: C_13  and  C_15
REMARK    7  A    between atoms: C_18  and  N_19
REMARK    8  A    between atoms: N_19  and  C_20
REMARK    9  A    between atoms: C_20  and  C_21
REMARK                            x       y       z     vdW  Elec       q    Type
REMARK                         _______ _______ _______ _____ _____    ______ ____
ROOT
ATOM      1  C   UNL     1      -0.567  11.549  22.096  0.00  0.00    +0.000 C 
ATOM      2  C   UNL     1      -0.292  11.192  20.622  0.00  0.00    +0.000 C 
ATOM      3  C   UNL     1      -0.595   9.742  20.262  0.00  0.00    +0.000 C 
ATOM      4  C   UNL     1       0.023   8.769  21.265  0.00  0.00    +0.000 C 
ATOM      5  C   UNL     1      -0.304   9.212  22.712  0.00  0.00    +0.000 C 
ATOM      6  O   UNL     1       0.001  10.579  22.979  0.00  0.00    +0.000 OA
ENDROOT
BRANCH   4   7
ATOM      7  N   UNL     1       1.474   8.669  20.971  0.00  0.00    +0.000 NA
ATOM      8  H   UNL     1       1.858   7.889  21.507  0.00  0.00    +0.000 HD
BRANCH   7   9
ATOM      9  C   UNL     1       1.652   8.368  19.552  0.00  0.00    +0.000 C 
BRANCH   9  10
ATOM     10  C   UNL     1       2.535   7.209  19.179  0.00  0.00    +0.000 A 
ATOM     11  C   UNL     1       3.398   7.202  18.086  0.00  0.00    +0.000 A 
ATOM     12  C   UNL     1       3.814   5.969  17.574  0.00  0.00    +0.000 A 
ATOM     13  C   UNL     1       3.296   4.811  18.136  0.00  0.00    +0.000 A 
ATOM     14  C   UNL     1       2.524   4.921  19.286  0.00  0.00    +0.000 A 
ATOM     15  N   UNL     1       2.179   6.082  19.838  0.00  0.00    +0.000 NA
ATOM     16  N   UNL     1       1.912   3.773  19.819  0.00  0.00    +0.000 N 
ATOM     17  C   UNL     1       1.382   2.979  18.822  0.00  0.00    +0.000 C 
ATOM     18  O   UNL     1       0.262   2.484  18.882  0.00  0.00    +0.000 OA
ATOM     19  C   UNL     1       2.338   2.760  17.639  0.00  0.00    +0.000 C 
ATOM     20  O   UNL     1       3.486   3.608  17.510  0.00  0.00    +0.000 OA
ATOM     21  H   UNL     1       2.662   3.245  20.255  0.00  0.00    +0.000 HD
ENDBRANCH   9  10
ENDBRANCH   7   9
ENDBRANCH   4   7
BRANCH   1  22
ATOM     22  C   UNL     1      -2.057  11.932  22.398  0.00  0.00    +0.000 C 
BRANCH  22  23
ATOM     23  N   UNL     1      -2.357  12.390  23.771  0.00  0.00    +0.000 NA
ATOM     24  H   UNL     1      -2.212  13.402  23.831  0.00  0.00    +0.000 HD
ATOM     25  H   UNL     1      -1.743  11.954  24.448  0.00  0.00    +0.000 HD
ENDBRANCH  22  23
BRANCH  22  26
ATOM     26  C   UNL     1      -2.643  13.017  21.440  0.00  0.00    +0.000 C 
BRANCH  26  35
ATOM     27  C   UNL     1      -3.553  11.426  17.460  0.00  0.00    +0.000 A 
ATOM     28  C   UNL     1      -4.882  11.270  17.071  0.00  0.00    +0.000 A 
ATOM     29  C   UNL     1      -5.901  11.598  17.959  0.00  0.00    +0.000 A 
ATOM     30  C   UNL     1      -5.605  12.096  19.235  0.00  0.00    +0.000 A 
ATOM     31  C   UNL     1      -6.699  12.363  20.160  0.00  0.00    +0.000 A 
ATOM     32  C   UNL     1      -6.429  12.768  21.402  0.00  0.00    +0.000 A 
ATOM     33  C   UNL     1      -5.044  13.004  21.869  0.00  0.00    +0.000 A 
ATOM     34  O   UNL     1      -4.891  13.326  23.045  0.00  0.00    +0.000 OA
ATOM     35  N   UNL     1      -4.010  12.834  20.945  0.00  0.00    +0.000 N 
ATOM     36  C   UNL     1      -4.272  12.292  19.637  0.00  0.00    +0.000 A 
ATOM     37  C   UNL     1      -3.259  11.918  18.741  0.00  0.00    +0.000 A 
BRANCH  27  39
ATOM     38  C   UNL     1      -2.564  10.004  15.832  0.00  0.00    +0.000 C 
ATOM     39  O   UNL     1      -2.461  11.129  16.689  0.00  0.00    +0.000 OA
ENDBRANCH  27  39
ENDBRANCH  26  35
ENDBRANCH  22  26
ENDBRANCH   1  22
TORSDOF 8
ENDMDL
MODEL 5
REMARK VINA RESULT:      -8.6      5.157      9.356
REMARK  Name = 
REMARK  9 active torsions:
REMARK  status: ('A' for Active; 'I' for Inactive)
REMARK    1  A    between atoms: C_1  and  O_2
REMARK    2  A    between atoms: O_2  and  C_3
REMARK    3  A    between atoms: N_11  and  C_12
REMARK    4  A    between atoms: C_12  and  C_13
REMARK    5  A    between atoms: C_13  and  N_14
REMARK    6  A    between atoms: C_13  and  C_15
REMARK    7  A    between atoms: C_18  and  N_19
REMARK    8  A    between atoms: N_19  and  C_20
REMARK    9  A    between atoms: C_20  and  C_21
REMARK                            x       y       z     vdW  Elec       q    Type
REMARK                         _______ _______ _______ _____ _____    ______ ____
ROOT
ATOM      1  C   UNL     1       0.331  10.734  21.318  0.00  0.00    +0.000 C 
ATOM      2  C   UNL     1       1.089  11.764  20.457  0.00  0.00    +0.000 C 
ATOM      3  C   UNL     1       0.658  11.794  18.995  0.00  0.00    +0.000 C 
ATOM      4  C   UNL     1       0.606  10.392  18.390  0.00  0.00    +0.000 C 
ATOM      5  C   UNL     1      -0.169   9.434  19.327  0.00  0.00    +0.000 C 
ATOM      6  O   UNL     1       0.283   9.457  20.678  0.00  0.00    +0.000 OA
ENDROOT
BRANCH   4   7
ATOM      7  N   UNL     1       1.997   9.967  18.100  0.00  0.00    +0.000 NA
ATOM      8  H   UNL     1       2.528   9.981  18.971  0.00  0.00    +0.000 HD
BRANCH   7   9
ATOM      9  C   UNL     1       1.982   8.590  17.607  0.00  0.00    +0.000 C 
BRANCH   9  10
ATOM     10  C   UNL     1       2.968   7.618  18.192  0.00  0.00    +0.000 A 
ATOM     11  C   UNL     1       4.014   7.038  17.478  0.00  0.00    +0.000 A 
ATOM     12  C   UNL     1       4.569   5.849  17.960  0.00  0.00    +0.000 A 
ATOM     13  C   UNL     1       4.011   5.267  19.089  0.00  0.00    +0.000 A 
ATOM     14  C   UNL     1       3.040   5.975  19.787  0.00  0.00    +0.000 A 
ATOM     15  N   UNL     1       2.550   7.148  19.390  0.00  0.00    +0.000 NA
ATOM     16  N   UNL     1       2.394   5.368  20.877  0.00  0.00    +0.000 N 
ATOM     17  C   UNL     1       2.088   4.049  20.608  0.00  0.00    +0.000 C 
ATOM     18  O   UNL     1       0.999   3.547  20.862  0.00  0.00    +0.000 OA
ATOM     19  C   UNL     1       3.251   3.266  19.978  0.00  0.00    +0.000 C 
ATOM     20  O   UNL     1       4.364   3.992  19.442  0.00  0.00    +0.000 OA
ATOM     21  H   UNL     1       3.076   5.369  21.630  0.00  0.00    +0.000 HD
ENDBRANCH   9  10
ENDBRANCH   7   9
ENDBRANCH   4   7
BRANCH   1  22
ATOM     22  C   UNL     1      -1.039  11.250  21.879  0.00  0.00    +0.000 C 
BRANCH  22  23
ATOM     23  N   UNL     1      -1.111  11.483  23.337  0.00  0.00    +0.000 NA
ATOM     24  H   UNL     1      -2.085  11.410  23.645  0.00  0.00    +0.000 HD
ATOM     25  H   UNL     1      -0.785  12.410  23.579  0.00  0.00    +0.000 HD
ENDBRANCH  22  23
BRANCH  22  26
ATOM     26  C   UNL     1      -1.552  12.561  21.204  0.00  0.00    +0.000 C 
BRANCH  26  35
ATOM     27  C   UNL     1      -3.299  11.437  17.345  0.00  0.00    +0.000 A 
ATOM     28  C   UNL     1      -4.673  11.559  17.152  0.00  0.00    +0.000 A 
ATOM     29  C   UNL     1      -5.476  12.014  18.194  0.00  0.00    +0.000 A 
ATOM     30  C   UNL     1      -4.914  12.361  19.430  0.00  0.00    +0.000 A 
ATOM     31  C   UNL     1      -5.796  12.766  20.517  0.00  0.00    +0.000 A 
ATOM     32  C   UNL     1      -5.283  13.030  21.720  0.00  0.00    +0.000 A 
ATOM     33  C   UNL     1      -3.827  12.970  21.984  0.00  0.00    +0.000 A 
ATOM     34  O   UNL     1      -3.452  13.179  23.136  0.00  0.00    +0.000 OA
ATOM     35  N   UNL     1      -2.985  12.670  20.911  0.00  0.00    +0.000 N 
ATOM     36  C   UNL     1      -3.526  12.276  19.636  0.00  0.00    +0.000 A 
ATOM     37  C   UNL     1      -2.739  11.779  18.586  0.00  0.00    +0.000 A 
BRANCH  27  39
ATOM     38  C   UNL     1      -2.919  10.208  15.346  0.00  0.00    +0.000 C 
ATOM     39  O   UNL     1      -2.403  10.992  16.409  0.00  0.00    +0.000 OA
ENDBRANCH  27  39
ENDBRANCH  26  35
ENDBRANCH  22  26
ENDBRANCH   1  22
TORSDOF 8
ENDMDL
MODEL 6
REMARK VINA RESULT:      -8.5      5.044      9.749
REMARK  Name = 
REMARK  9 active torsions:
REMARK  status: ('A' for Active; 'I' for Inactive)
REMARK    1  A    between atoms: C_1  and  O_2
REMARK    2  A    between atoms: O_2  and  C_3
REMARK    3  A    between atoms: N_11  and  C_12
REMARK    4  A    between atoms: C_12  and  C_13
REMARK    5  A    between atoms: C_13  and  N_14
REMARK    6  A    between atoms: C_13  and  C_15
REMARK    7  A    between atoms: C_18  and  N_19
REMARK    8  A    between atoms: N_19  and  C_20
REMARK    9  A    between atoms: C_20  and  C_21
REMARK                            x       y       z     vdW  Elec       q    Type
REMARK                         _______ _______ _______ _____ _____    ______ ____
ROOT
ATOM      1  C   UNL     1       0.749  11.139  20.902  0.00  0.00    +0.000 C 
ATOM      2  C   UNL     1       0.785  11.115  19.361  0.00  0.00    +0.000 C 
ATOM      3  C   UNL     1       0.204   9.848  18.742  0.00  0.00    +0.000 C 
ATOM      4  C   UNL     1       0.764   8.588  19.399  0.00  0.00    +0.000 C 
ATOM      5  C   UNL     1       0.688   8.710  20.941  0.00  0.00    +0.000 C 
ATOM      6  O   UNL     1       1.247   9.918  21.452  0.00  0.00    +0.000 OA
ENDROOT
BRANCH   4   7
ATOM      7  N   UNL     1       2.133   8.366  18.872  0.00  0.00    +0.000 NA
ATOM      8  H   UNL     1       2.711   9.167  19.128  0.00  0.00    +0.000 HD
BRANCH   7   9
ATOM      9  C   UNL     1       2.703   7.180  19.510  0.00  0.00    +0.000 C 
BRANCH   9  10
ATOM     10  C   UNL     1       2.881   5.944  18.674  0.00  0.00    +0.000 A 
ATOM     11  C   UNL     1       1.874   5.370  17.900  0.00  0.00    +0.000 A 
ATOM     12  C   UNL     1       1.995   4.024  17.541  0.00  0.00    +0.000 A 
ATOM     13  C   UNL     1       3.077   3.304  18.027  0.00  0.00    +0.000 A 
ATOM     14  C   UNL     1       4.078   3.992  18.705  0.00  0.00    +0.000 A 
ATOM     15  N   UNL     1       4.022   5.290  18.990  0.00  0.00    +0.000 NA
ATOM     16  N   UNL     1       5.136   3.272  19.288  0.00  0.00    +0.000 N 
ATOM     17  C   UNL     1       4.681   2.123  19.905  0.00  0.00    +0.000 C 
ATOM     18  O   UNL     1       5.044   1.773  21.022  0.00  0.00    +0.000 OA
ATOM     19  C   UNL     1       3.694   1.317  19.048  0.00  0.00    +0.000 C 
ATOM     20  O   UNL     1       3.099   1.941  17.902  0.00  0.00    +0.000 OA
ATOM     21  H   UNL     1       5.724   2.981  18.512  0.00  0.00    +0.000 HD
ENDBRANCH   9  10
ENDBRANCH   7   9
ENDBRANCH   4   7
BRANCH   1  22
ATOM     22  C   UNL     1      -0.610  11.637  21.505  0.00  0.00    +0.000 C 
BRANCH  22  23
ATOM     23  N   UNL     1      -0.617  11.950  22.949  0.00  0.00    +0.000 NA
ATOM     24  H   UNL     1       0.164  12.574  23.166  0.00  0.00    +0.000 HD
ATOM     25  H   UNL     1      -0.503  11.114  23.508  0.00  0.00    +0.000 HD
ENDBRANCH  22  23
BRANCH  22  26
ATOM     26  C   UNL     1      -1.207  12.888  20.786  0.00  0.00    +0.000 C 
BRANCH  26  35
ATOM     27  C   UNL     1      -3.600  11.065  17.599  0.00  0.00    +0.000 A 
ATOM     28  C   UNL     1      -4.984  11.216  17.609  0.00  0.00    +0.000 A 
ATOM     29  C   UNL     1      -5.591  11.923  18.642  0.00  0.00    +0.000 A 
ATOM     30  C   UNL     1      -4.823  12.495  19.665  0.00  0.00    +0.000 A 
ATOM     31  C   UNL     1      -5.501  13.168  20.765  0.00  0.00    +0.000 A 
ATOM     32  C   UNL     1      -4.788  13.653  21.782  0.00  0.00    +0.000 A 
ATOM     33  C   UNL     1      -3.310  13.574  21.815  0.00  0.00    +0.000 A 
ATOM     34  O   UNL     1      -2.742  14.002  22.818  0.00  0.00    +0.000 OA
ATOM     35  N   UNL     1      -2.666  13.009  20.712  0.00  0.00    +0.000 N 
ATOM     36  C   UNL     1      -3.422  12.382  19.658  0.00  0.00    +0.000 A 
ATOM     37  C   UNL     1      -2.832  11.632  18.628  0.00  0.00    +0.000 A 
BRANCH  27  39
ATOM     38  C   UNL     1      -3.057  10.782  15.302  0.00  0.00    +0.000 C 
ATOM     39  O   UNL     1      -2.883  10.384  16.651  0.00  0.00    +0.000 OA
ENDBRANCH  27  39
ENDBRANCH  26  35
ENDBRANCH  22  26
ENDBRANCH   1  22
TORSDOF 8
ENDMDL
MODEL 7
REMARK VINA RESULT:      -8.5      5.672     10.020
REMARK  Name = 
REMARK  9 active torsions:
REMARK  status: ('A' for Active; 'I' for Inactive)
REMARK    1  A    between atoms: C_1  and  O_2
REMARK    2  A    between atoms: O_2  and  C_3
REMARK    3  A    between atoms: N_11  and  C_12
REMARK    4  A    between atoms: C_12  and  C_13
REMARK    5  A    between atoms: C_13  and  N_14
REMARK    6  A    between atoms: C_13  and  C_15
REMARK    7  A    between atoms: C_18  and  N_19
REMARK    8  A    between atoms: N_19  and  C_20
REMARK    9  A    between atoms: C_20  and  C_21
REMARK                            x       y       z     vdW  Elec       q    Type
REMARK                         _______ _______ _______ _____ _____    ______ ____
ROOT
ATOM      1  C   UNL     1      -0.706  11.518  22.272  0.00  0.00    +0.000 C 
ATOM      2  C   UNL     1      -0.217  11.133  20.861  0.00  0.00    +0.000 C 
ATOM      3  C   UNL     1      -0.426   9.665  20.506  0.00  0.00    +0.000 C 
ATOM      4  C   UNL     1       0.072   8.738  21.615  0.00  0.00    +0.000 C 
ATOM      5  C   UNL     1      -0.467   9.208  22.988  0.00  0.00    +0.000 C 
ATOM      6  O   UNL     1      -0.241  10.590  23.254  0.00  0.00    +0.000 OA
ENDROOT
BRANCH   4   7
ATOM      7  N   UNL     1       1.552   8.676  21.529  0.00  0.00    +0.000 NA
ATOM      8  H   UNL     1       1.887   8.000  22.216  0.00  0.00    +0.000 HD
BRANCH   7   9
ATOM      9  C   UNL     1       1.933   8.194  20.202  0.00  0.00    +0.000 C 
BRANCH   9  10
ATOM     10  C   UNL     1       1.890   6.713  19.949  0.00  0.00    +0.000 A 
ATOM     11  C   UNL     1       1.303   5.787  20.810  0.00  0.00    +0.000 A 
ATOM     12  C   UNL     1       1.701   4.451  20.722  0.00  0.00    +0.000 A 
ATOM     13  C   UNL     1       2.709   4.117  19.829  0.00  0.00    +0.000 A 
ATOM     14  C   UNL     1       3.158   5.091  18.945  0.00  0.00    +0.000 A 
ATOM     15  N   UNL     1       2.736   6.354  18.957  0.00  0.00    +0.000 NA
ATOM     16  N   UNL     1       4.242   4.806  18.096  0.00  0.00    +0.000 N 
ATOM     17  C   UNL     1       5.229   4.108  18.761  0.00  0.00    +0.000 C 
ATOM     18  O   UNL     1       6.421   4.383  18.674  0.00  0.00    +0.000 OA
ATOM     19  C   UNL     1       4.694   2.941  19.604  0.00  0.00    +0.000 C 
ATOM     20  O   UNL     1       3.290   2.879  19.889  0.00  0.00    +0.000 OA
ATOM     21  H   UNL     1       3.869   4.188  17.380  0.00  0.00    +0.000 HD
ENDBRANCH   9  10
ENDBRANCH   7   9
ENDBRANCH   4   7
BRANCH   1  22
ATOM     22  C   UNL     1      -2.234  11.861  22.351  0.00  0.00    +0.000 C 
BRANCH  22  23
ATOM     23  N   UNL     1      -2.790  12.095  23.700  0.00  0.00    +0.000 NA
ATOM     24  H   UNL     1      -2.148  11.717  24.402  0.00  0.00    +0.000 HD
ATOM     25  H   UNL     1      -3.680  11.627  23.819  0.00  0.00    +0.000 HD
ENDBRANCH  22  23
BRANCH  22  26
ATOM     26  C   UNL     1      -2.657  13.092  21.488  0.00  0.00    +0.000 C 
BRANCH  26  35
ATOM     27  C   UNL     1      -3.455  11.357  17.543  0.00  0.00    +0.000 A 
ATOM     28  C   UNL     1      -4.752  11.372  17.037  0.00  0.00    +0.000 A 
ATOM     29  C   UNL     1      -5.781  11.916  17.799  0.00  0.00    +0.000 A 
ATOM     30  C   UNL     1      -5.524  12.460  19.064  0.00  0.00    +0.000 A 
ATOM     31  C   UNL     1      -6.639  12.957  19.860  0.00  0.00    +0.000 A 
ATOM     32  C   UNL     1      -6.418  13.409  21.095  0.00  0.00    +0.000 A 
ATOM     33  C   UNL     1      -5.059  13.471  21.679  0.00  0.00    +0.000 A 
ATOM     34  O   UNL     1      -4.960  13.855  22.843  0.00  0.00    +0.000 OA
ATOM     35  N   UNL     1      -3.988  13.078  20.874  0.00  0.00    +0.000 N 
ATOM     36  C   UNL     1      -4.216  12.484  19.582  0.00  0.00    +0.000 A 
ATOM     37  C   UNL     1      -3.200  11.895  18.814  0.00  0.00    +0.000 A 
BRANCH  27  39
ATOM     38  C   UNL     1      -2.596   9.841  15.927  0.00  0.00    +0.000 C 
ATOM     39  O   UNL     1      -2.359  10.842  16.902  0.00  0.00    +0.000 OA
ENDBRANCH  27  39
ENDBRANCH  26  35
ENDBRANCH  22  26
ENDBRANCH   1  22
TORSDOF 8
ENDMDL
MODEL 8
REMARK VINA RESULT:      -8.5      5.281      9.285
REMARK  Name = 
REMARK  9 active torsions:
REMARK  status: ('A' for Active; 'I' for Inactive)
REMARK    1  A    between atoms: C_1  and  O_2
REMARK    2  A    between atoms: O_2  and  C_3
REMARK    3  A    between atoms: N_11  and  C_12
REMARK    4  A    between atoms: C_12  and  C_13
REMARK    5  A    between atoms: C_13  and  N_14
REMARK    6  A    between atoms: C_13  and  C_15
REMARK    7  A    between atoms: C_18  and  N_19
REMARK    8  A    between atoms: N_19  and  C_20
REMARK    9  A    between atoms: C_20  and  C_21
REMARK                            x       y       z     vdW  Elec       q    Type
REMARK                         _______ _______ _______ _____ _____    ______ ____
ROOT
ATOM      1  C   UNL     1       1.840   8.973  20.071  0.00  0.00    +0.000 C 
ATOM      2  C   UNL     1       1.320   8.566  21.464  0.00  0.00    +0.000 C 
ATOM      3  C   UNL     1      -0.200   8.561  21.586  0.00  0.00    +0.000 C 
ATOM      4  C   UNL     1      -0.816   9.849  21.042  0.00  0.00    +0.000 C 
ATOM      5  C   UNL     1      -0.229  10.175  19.647  0.00  0.00    +0.000 C 
ATOM      6  O   UNL     1       1.195  10.159  19.603  0.00  0.00    +0.000 OA
ENDROOT
BRANCH   4   7
ATOM      7  N   UNL     1      -0.615  10.916  22.052  0.00  0.00    +0.000 NA
ATOM      8  H   UNL     1       0.372  10.929  22.315  0.00  0.00    +0.000 HD
BRANCH   7   9
ATOM      9  C   UNL     1      -0.935  12.209  21.450  0.00  0.00    +0.000 C 
BRANCH   9  10
ATOM     10  C   UNL     1      -2.345  12.716  21.570  0.00  0.00    +0.000 A 
ATOM     11  C   UNL     1      -3.075  12.726  22.756  0.00  0.00    +0.000 A 
ATOM     12  C   UNL     1      -4.470  12.781  22.679  0.00  0.00    +0.000 A 
ATOM     13  C   UNL     1      -5.065  12.757  21.426  0.00  0.00    +0.000 A 
ATOM     14  C   UNL     1      -4.249  12.851  20.304  0.00  0.00    +0.000 A 
ATOM     15  N   UNL     1      -2.919  12.879  20.356  0.00  0.00    +0.000 NA
ATOM     16  N   UNL     1      -4.819  12.734  19.025  0.00  0.00    +0.000 N 
ATOM     17  C   UNL     1      -5.767  11.731  18.988  0.00  0.00    +0.000 C 
ATOM     18  O   UNL     1      -5.832  10.903  18.086  0.00  0.00    +0.000 OA
ATOM     19  C   UNL     1      -6.744  11.767  20.172  0.00  0.00    +0.000 C 
ATOM     20  O   UNL     1      -6.416  12.564  21.318  0.00  0.00    +0.000 OA
ATOM     21  H   UNL     1      -5.306  13.612  18.865  0.00  0.00    +0.000 HD
ENDBRANCH   9  10
ENDBRANCH   7   9
ENDBRANCH   4   7
BRANCH   1  22
ATOM     22  C   UNL     1       1.902   7.795  19.038  0.00  0.00    +0.000 C 
BRANCH  22  23
ATOM     23  N   UNL     1       2.177   8.162  17.633  0.00  0.00    +0.000 NA
ATOM     24  H   UNL     1       2.611   9.089  17.603  0.00  0.00    +0.000 HD
ATOM     25  H   UNL     1       1.324   8.208  17.090  0.00  0.00    +0.000 HD
ENDBRANCH  22  23
BRANCH  22  26
ATOM     26  C   UNL     1       2.928   6.678  19.405  0.00  0.00    +0.000 C 
BRANCH  26  35
ATOM     27  C   UNL     1       6.227   6.061  16.587  0.00  0.00    +0.000 A 
ATOM     28  C   UNL     1       6.247   4.917  15.793  0.00  0.00    +0.000 A 
ATOM     29  C   UNL     1       5.231   3.974  15.921  0.00  0.00    +0.000 A 
ATOM     30  C   UNL     1       4.184   4.170  16.831  0.00  0.00    +0.000 A 
ATOM     31  C   UNL     1       3.178   3.128  16.985  0.00  0.00    +0.000 A 
ATOM     32  C   UNL     1       2.217   3.268  17.899  0.00  0.00    +0.000 A 
ATOM     33  C   UNL     1       2.104   4.479  18.743  0.00  0.00    +0.000 A 
ATOM     34  O   UNL     1       1.217   4.496  19.594  0.00  0.00    +0.000 OA
ATOM     35  N   UNL     1       3.020   5.511  18.523  0.00  0.00    +0.000 N 
ATOM     36  C   UNL     1       4.128   5.333  17.620  0.00  0.00    +0.000 A 
ATOM     37  C   UNL     1       5.182   6.252  17.503  0.00  0.00    +0.000 A 
BRANCH  27  39
ATOM     38  C   UNL     1       7.640   7.521  17.821  0.00  0.00    +0.000 C 
ATOM     39  O   UNL     1       7.169   7.056  16.568  0.00  0.00    +0.000 OA
ENDBRANCH  27  39
ENDBRANCH  26  35
ENDBRANCH  22  26
ENDBRANCH   1  22
TORSDOF 8
ENDMDL
MODEL 9
REMARK VINA RESULT:      -8.4      5.289      8.894
REMARK  Name = 
REMARK  9 active torsions:
REMARK  status: ('A' for Active; 'I' for Inactive)
REMARK    1  A    between atoms: C_1  and  O_2
REMARK    2  A    between atoms: O_2  and  C_3
REMARK    3  A    between atoms: N_11  and  C_12
REMARK    4  A    between atoms: C_12  and  C_13
REMARK    5  A    between atoms: C_13  and  N_14
REMARK    6  A    between atoms: C_13  and  C_15
REMARK    7  A    between atoms: C_18  and  N_19
REMARK    8  A    between atoms: N_19  and  C_20
REMARK    9  A    between atoms: C_20  and  C_21
REMARK                            x       y       z     vdW  Elec       q    Type
REMARK                         _______ _______ _______ _____ _____    ______ ____
ROOT
ATOM      1  C   UNL     1       0.076  11.230  21.363  0.00  0.00    +0.000 C 
ATOM      2  C   UNL     1       0.038  10.517  19.997  0.00  0.00    +0.000 C 
ATOM      3  C   UNL     1      -0.173   9.009  20.084  0.00  0.00    +0.000 C 
ATOM      4  C   UNL     1       0.768   8.363  21.099  0.00  0.00    +0.000 C 
ATOM      5  C   UNL     1       0.739   9.150  22.432  0.00  0.00    +0.000 C 
ATOM      6  O   UNL     1       0.940  10.553  22.278  0.00  0.00    +0.000 OA
ENDROOT
BRANCH   4   7
ATOM      7  N   UNL     1       2.112   8.263  20.480  0.00  0.00    +0.000 NA
ATOM      8  H   UNL     1       2.697   7.670  21.070  0.00  0.00    +0.000 HD
BRANCH   7   9
ATOM      9  C   UNL     1       1.988   7.614  19.176  0.00  0.00    +0.000 C 
BRANCH   9  10
ATOM     10  C   UNL     1       2.929   6.487  18.854  0.00  0.00    +0.000 A 
ATOM     11  C   UNL     1       3.180   5.409  19.701  0.00  0.00    +0.000 A 
ATOM     12  C   UNL     1       4.363   4.687  19.527  0.00  0.00    +0.000 A 
ATOM     13  C   UNL     1       5.265   5.114  18.562  0.00  0.00    +0.000 A 
ATOM     14  C   UNL     1       4.877   6.135  17.701  0.00  0.00    +0.000 A 
ATOM     15  N   UNL     1       3.721   6.787  17.798  0.00  0.00    +0.000 NA
ATOM     16  N   UNL     1       5.805   6.649  16.780  0.00  0.00    +0.000 N 
ATOM     17  C   UNL     1       7.053   6.797  17.353  0.00  0.00    +0.000 C 
ATOM     18  O   UNL     1       7.742   7.801  17.211  0.00  0.00    +0.000 OA
ATOM     19  C   UNL     1       7.502   5.575  18.168  0.00  0.00    +0.000 C 
ATOM     20  O   UNL     1       6.528   4.587  18.529  0.00  0.00    +0.000 OA
ATOM     21  H   UNL     1       5.890   5.939  16.057  0.00  0.00    +0.000 HD
ENDBRANCH   9  10
ENDBRANCH   7   9
ENDBRANCH   4   7
BRANCH   1  22
ATOM     22  C   UNL     1      -1.337  11.602  21.933  0.00  0.00    +0.000 C 
BRANCH  22  23
ATOM     23  N   UNL     1      -1.414  11.875  23.383  0.00  0.00    +0.000 NA
ATOM     24  H   UNL     1      -0.547  12.322  23.692  0.00  0.00    +0.000 HD
ATOM     25  H   UNL     1      -1.521  11.019  23.914  0.00  0.00    +0.000 HD
ENDBRANCH  22  23
BRANCH  22  26
ATOM     26  C   UNL     1      -2.009  12.821  21.225  0.00  0.00    +0.000 C 
BRANCH  26  35
ATOM     27  C   UNL     1      -3.499  11.448  17.339  0.00  0.00    +0.000 A 
ATOM     28  C   UNL     1      -4.872  11.377  17.117  0.00  0.00    +0.000 A 
ATOM     29  C   UNL     1      -5.752  11.721  18.139  0.00  0.00    +0.000 A 
ATOM     30  C   UNL     1      -5.271  12.148  19.383  0.00  0.00    +0.000 A 
ATOM     31  C   UNL     1      -6.224  12.433  20.449  0.00  0.00    +0.000 A 
ATOM     32  C   UNL     1      -5.778  12.770  21.660  0.00  0.00    +0.000 A 
ATOM     33  C   UNL     1      -4.335  12.915  21.955  0.00  0.00    +0.000 A 
ATOM     34  O   UNL     1      -4.017  13.179  23.113  0.00  0.00    +0.000 OA
ATOM     35  N   UNL     1      -3.436  12.729  20.902  0.00  0.00    +0.000 N 
ATOM     36  C   UNL     1      -3.889  12.258  19.619  0.00  0.00    +0.000 A 
ATOM     37  C   UNL     1      -3.019  11.870  18.589  0.00  0.00    +0.000 A 
BRANCH  27  39
ATOM     38  C   UNL     1      -2.507   9.790  15.955  0.00  0.00    +0.000 C 
ATOM     39  O   UNL     1      -2.530  11.127  16.426  0.00  0.00    +0.000 OA
ENDBRANCH  27  39
ENDBRANCH  26  35
ENDBRANCH  22  26
ENDBRANCH   1  22
TORSDOF 8
ENDMDL
