MODEL 1
REMARK VINA RESULT:      -7.5      0.000      0.000
REMARK  Name = 
REMARK  4 active torsions:
REMARK  status: ('A' for Active; 'I' for Inactive)
REMARK    1  A    between atoms: C_2  and  C_3
REMARK    2  A    between atoms: C_6  and  C_7
REMARK    3  A    between atoms: C_7  and  S_8
REMARK    4  A    between atoms: S_8  and  C_10
REMARK                            x       y       z     vdW  Elec       q    Type
REMARK                         _______ _______ _______ _____ _____    ______ ____
ROOT
ATOM      1  C   UNL     1       2.504   4.982  18.580  0.00  0.00    +0.000 A 
ATOM      2  C   UNL     1       1.775   4.028  17.895  0.00  0.00    +0.000 A 
ATOM      3  C   UNL     1       2.669   3.381  17.014  0.00  0.00    +0.000 A 
ATOM      4  C   UNL     1       3.916   3.924  17.249  0.00  0.00    +0.000 A 
ATOM      5  O   UNL     1       3.822   4.909  18.194  0.00  0.00    +0.000 OA
ENDROOT
BRANCH   1   7
ATOM      6  O   UNL     1       1.548   5.461  20.658  0.00  0.00    +0.000 OA
ATOM      7  C   UNL     1       2.073   5.892  19.629  0.00  0.00    +0.000 C 
ATOM      8  N   UNL     1       2.234   7.265  19.443  0.00  0.00    +0.000 N 
ATOM      9  C   UNL     1       1.918   8.189  20.537  0.00  0.00    +0.000 C 
ATOM     10  C   UNL     1       0.860   9.211  20.106  0.00  0.00    +0.000 C 
ATOM     11  O   UNL     1       1.265   9.893  18.908  0.00  0.00    +0.000 OA
ATOM     12  C   UNL     1       1.447   8.959  17.834  0.00  0.00    +0.000 C 
ATOM     13  C   UNL     1       2.533   7.928  18.171  0.00  0.00    +0.000 C 
ENDBRANCH   1   7
BRANCH   4  14
ATOM     14  C   UNL     1       5.268   3.620  16.703  0.00  0.00    +0.000 C 
BRANCH  14  15
ATOM     15  S   UNL     1       6.123   5.182  16.286  0.00  0.00    +0.000 S 
ATOM     16  O   UNL     1       7.498   5.205  17.054  0.00  0.00    +0.000 OA
BRANCH  15  17
ATOM     17  C   UNL     1       6.519   4.865  14.548  0.00  0.00    +0.000 A 
ATOM     18  C   UNL     1       7.593   5.514  13.927  0.00  0.00    +0.000 A 
ATOM     19  C   UNL     1       7.947   5.191  12.613  0.00  0.00    +0.000 A 
ATOM     20  C   UNL     1       7.241   4.212  11.917  0.00  0.00    +0.000 A 
ATOM     21  C   UNL     1       6.177   3.558  12.536  0.00  0.00    +0.000 A 
ATOM     22 CL   UNL     1       5.324   2.327  11.687  0.00  0.00    +0.000 Cl
ATOM     23  C   UNL     1       5.815   3.879  13.842  0.00  0.00    +0.000 A 
ENDBRANCH  15  17
ENDBRANCH  14  15
ENDBRANCH   4  14
TORSDOF 4
ENDMDL
MODEL 2
REMARK VINA RESULT:      -7.5      6.179      7.685
REMARK  Name = 
REMARK  4 active torsions:
REMARK  status: ('A' for Active; 'I' for Inactive)
REMARK    1  A    between atoms: C_2  and  C_3
REMARK    2  A    between atoms: C_6  and  C_7
REMARK    3  A    between atoms: C_7  and  S_8
REMARK    4  A    between atoms: S_8  and  C_10
REMARK                            x       y       z     vdW  Elec       q    Type
REMARK                         _______ _______ _______ _____ _____    ______ ____
ROOT
ATOM      1  C   UNL     1       8.962   9.801  18.906  0.00  0.00    +0.000 A 
ATOM      2  C   UNL     1       8.161  10.060  17.810  0.00  0.00    +0.000 A 
ATOM      3  C   UNL     1       7.619   8.824  17.395  0.00  0.00    +0.000 A 
ATOM      4  C   UNL     1       8.061   7.878  18.297  0.00  0.00    +0.000 A 
ATOM      5  O   UNL     1       8.890   8.463  19.214  0.00  0.00    +0.000 OA
ENDROOT
BRANCH   1   7
ATOM      6  O   UNL     1       9.406  10.910  20.915  0.00  0.00    +0.000 OA
ATOM      7  C   UNL     1       9.715  10.728  19.736  0.00  0.00    +0.000 C 
ATOM      8  N   UNL     1      10.776  11.436  19.169  0.00  0.00    +0.000 N 
ATOM      9  C   UNL     1      11.621  12.282  20.017  0.00  0.00    +0.000 C 
ATOM     10  C   UNL     1      11.627  13.731  19.517  0.00  0.00    +0.000 C 
ATOM     11  O   UNL     1      12.000  13.793  18.131  0.00  0.00    +0.000 OA
ATOM     12  C   UNL     1      11.074  13.047  17.328  0.00  0.00    +0.000 C 
ATOM     13  C   UNL     1      11.049  11.568  17.736  0.00  0.00    +0.000 C 
ENDBRANCH   1   7
BRANCH   4  14
ATOM     14  C   UNL     1       7.786   6.421  18.448  0.00  0.00    +0.000 C 
BRANCH  14  15
ATOM     15  S   UNL     1       7.129   5.757  16.876  0.00  0.00    +0.000 S 
ATOM     16  O   UNL     1       7.795   4.353  16.625  0.00  0.00    +0.000 OA
BRANCH  15  17
ATOM     17  C   UNL     1       5.419   5.424  17.370  0.00  0.00    +0.000 A 
ATOM     18  C   UNL     1       4.522   6.473  17.605  0.00  0.00    +0.000 A 
ATOM     19  C   UNL     1       3.181   6.202  17.894  0.00  0.00    +0.000 A 
ATOM     20  C   UNL     1       2.725   4.886  17.938  0.00  0.00    +0.000 A 
ATOM     21  C   UNL     1       3.613   3.839  17.696  0.00  0.00    +0.000 A 
ATOM     22 CL   UNL     1       3.044   2.216  17.719  0.00  0.00    +0.000 Cl
ATOM     23  C   UNL     1       4.952   4.103  17.414  0.00  0.00    +0.000 A 
ENDBRANCH  15  17
ENDBRANCH  14  15
ENDBRANCH   4  14
TORSDOF 4
ENDMDL
MODEL 3
REMARK VINA RESULT:      -7.4      6.326      7.842
REMARK  Name = 
REMARK  4 active torsions:
REMARK  status: ('A' for Active; 'I' for Inactive)
REMARK    1  A    between atoms: C_2  and  C_3
REMARK    2  A    between atoms: C_6  and  C_7
REMARK    3  A    between atoms: C_7  and  S_8
REMARK    4  A    between atoms: S_8  and  C_10
REMARK                            x       y       z     vdW  Elec       q    Type
REMARK                         _______ _______ _______ _____ _____    ______ ____
ROOT
ATOM      1  C   UNL     1       8.952   9.815  18.919  0.00  0.00    +0.000 A 
ATOM      2  C   UNL     1       8.128  10.102  17.847  0.00  0.00    +0.000 A 
ATOM      3  C   UNL     1       7.580   8.878  17.408  0.00  0.00    +0.000 A 
ATOM      4  C   UNL     1       8.042   7.907  18.274  0.00  0.00    +0.000 A 
ATOM      5  O   UNL     1       8.888   8.468  19.191  0.00  0.00    +0.000 OA
ENDROOT
BRANCH   1   7
ATOM      6  O   UNL     1       9.405  10.904  20.936  0.00  0.00    +0.000 OA
ATOM      7  C   UNL     1       9.720  10.719  19.759  0.00  0.00    +0.000 C 
ATOM      8  N   UNL     1      10.803  11.403  19.205  0.00  0.00    +0.000 N 
ATOM      9  C   UNL     1      11.662  12.225  20.063  0.00  0.00    +0.000 C 
ATOM     10  C   UNL     1      11.707  13.675  19.569  0.00  0.00    +0.000 C 
ATOM     11  O   UNL     1      12.093  13.733  18.187  0.00  0.00    +0.000 OA
ATOM     12  C   UNL     1      11.156  13.013  17.372  0.00  0.00    +0.000 C 
ATOM     13  C   UNL     1      11.091  11.533  17.774  0.00  0.00    +0.000 C 
ENDBRANCH   1   7
BRANCH   4  14
ATOM     14  C   UNL     1       7.771   6.446  18.390  0.00  0.00    +0.000 C 
BRANCH  14  15
ATOM     15  S   UNL     1       7.176   5.806  16.784  0.00  0.00    +0.000 S 
ATOM     16  O   UNL     1       7.790   4.372  16.575  0.00  0.00    +0.000 OA
BRANCH  15  17
ATOM     17  C   UNL     1       5.426   5.554  17.180  0.00  0.00    +0.000 A 
ATOM     18  C   UNL     1       4.912   4.266  17.370  0.00  0.00    +0.000 A 
ATOM     19  C   UNL     1       3.583   4.089  17.767  0.00  0.00    +0.000 A 
ATOM     20  C   UNL     1       2.765   5.196  17.988  0.00  0.00    +0.000 A 
ATOM     21  C   UNL     1       3.276   6.479  17.808  0.00  0.00    +0.000 A 
ATOM     22 CL   UNL     1       2.274   7.846  18.110  0.00  0.00    +0.000 Cl
ATOM     23  C   UNL     1       4.598   6.662  17.406  0.00  0.00    +0.000 A 
ENDBRANCH  15  17
ENDBRANCH  14  15
ENDBRANCH   4  14
TORSDOF 4
ENDMDL
MODEL 4
REMARK VINA RESULT:      -7.3      3.976      8.338
REMARK  Name = 
REMARK  4 active torsions:
REMARK  status: ('A' for Active; 'I' for Inactive)
REMARK    1  A    between atoms: C_2  and  C_3
REMARK    2  A    between atoms: C_6  and  C_7
REMARK    3  A    between atoms: C_7  and  S_8
REMARK    4  A    between atoms: S_8  and  C_10
REMARK                            x       y       z     vdW  Elec       q    Type
REMARK                         _______ _______ _______ _____ _____    ______ ____
ROOT
ATOM      1  C   UNL     1       3.104   6.346  18.291  0.00  0.00    +0.000 A 
ATOM      2  C   UNL     1       2.650   6.304  19.595  0.00  0.00    +0.000 A 
ATOM      3  C   UNL     1       2.044   7.551  19.862  0.00  0.00    +0.000 A 
ATOM      4  C   UNL     1       2.097   8.273  18.686  0.00  0.00    +0.000 A 
ATOM      5  O   UNL     1       2.752   7.550  17.727  0.00  0.00    +0.000 OA
ENDROOT
BRANCH   1   7
ATOM      6  O   UNL     1       3.375   4.141  17.565  0.00  0.00    +0.000 OA
ATOM      7  C   UNL     1       3.762   5.310  17.511  0.00  0.00    +0.000 C 
ATOM      8  N   UNL     1       4.861   5.651  16.722  0.00  0.00    +0.000 N 
ATOM      9  C   UNL     1       5.461   4.648  15.837  0.00  0.00    +0.000 C 
ATOM     10  C   UNL     1       6.947   4.451  16.157  0.00  0.00    +0.000 C 
ATOM     11  O   UNL     1       7.649   5.704  16.124  0.00  0.00    +0.000 OA
ATOM     12  C   UNL     1       7.101   6.612  17.090  0.00  0.00    +0.000 C 
ATOM     13  C   UNL     1       5.621   6.902  16.806  0.00  0.00    +0.000 C 
ENDBRANCH   1   7
BRANCH   4  14
ATOM     14  C   UNL     1       1.571   9.612  18.299  0.00  0.00    +0.000 C 
BRANCH  14  15
ATOM     15  S   UNL     1       0.675  10.348  19.713  0.00  0.00    +0.000 S 
ATOM     16  O   UNL     1       1.300  11.765  20.001  0.00  0.00    +0.000 OA
BRANCH  15  17
ATOM     17  C   UNL     1      -0.933  10.653  18.938  0.00  0.00    +0.000 A 
ATOM     18  C   UNL     1      -1.850  11.542  19.512  0.00  0.00    +0.000 A 
ATOM     19  C   UNL     1      -3.048  11.840  18.855  0.00  0.00    +0.000 A 
ATOM     20  C   UNL     1      -3.332  11.264  17.618  0.00  0.00    +0.000 A 
ATOM     21  C   UNL     1      -2.417  10.386  17.040  0.00  0.00    +0.000 A 
ATOM     22 CL   UNL     1      -2.754   9.699  15.499  0.00  0.00    +0.000 Cl
ATOM     23  C   UNL     1      -1.225  10.080  17.692  0.00  0.00    +0.000 A 
ENDBRANCH  15  17
ENDBRANCH  14  15
ENDBRANCH   4  14
TORSDOF 4
ENDMDL
MODEL 5
REMARK VINA RESULT:      -7.1      2.999      3.660
REMARK  Name = 
REMARK  4 active torsions:
REMARK  status: ('A' for Active; 'I' for Inactive)
REMARK    1  A    between atoms: C_2  and  C_3
REMARK    2  A    between atoms: C_6  and  C_7
REMARK    3  A    between atoms: C_7  and  S_8
REMARK    4  A    between atoms: S_8  and  C_10
REMARK                            x       y       z     vdW  Elec       q    Type
REMARK                         _______ _______ _______ _____ _____    ______ ____
ROOT
ATOM      1  C   UNL     1       2.445   5.100  18.588  0.00  0.00    +0.000 A 
ATOM      2  C   UNL     1       1.676   4.336  17.730  0.00  0.00    +0.000 A 
ATOM      3  C   UNL     1       2.567   3.615  16.907  0.00  0.00    +0.000 A 
ATOM      4  C   UNL     1       3.840   3.920  17.344  0.00  0.00    +0.000 A 
ATOM      5  O   UNL     1       3.775   4.833  18.360  0.00  0.00    +0.000 OA
ENDROOT
BRANCH   1   7
ATOM      6  O   UNL     1       1.507   5.536  20.683  0.00  0.00    +0.000 OA
ATOM      7  C   UNL     1       2.025   5.988  19.660  0.00  0.00    +0.000 C 
ATOM      8  N   UNL     1       2.186   7.364  19.501  0.00  0.00    +0.000 N 
ATOM      9  C   UNL     1       1.881   8.266  20.616  0.00  0.00    +0.000 C 
ATOM     10  C   UNL     1       0.821   9.298  20.215  0.00  0.00    +0.000 C 
ATOM     11  O   UNL     1       1.217  10.005  19.028  0.00  0.00    +0.000 OA
ATOM     12  C   UNL     1       1.388   9.092  17.934  0.00  0.00    +0.000 C 
ATOM     13  C   UNL     1       2.476   8.053  18.240  0.00  0.00    +0.000 C 
ENDBRANCH   1   7
BRANCH   4  14
ATOM     14  C   UNL     1       5.190   3.434  16.940  0.00  0.00    +0.000 C 
BRANCH  14  15
ATOM     15  S   UNL     1       6.008   4.698  15.903  0.00  0.00    +0.000 S 
ATOM     16  O   UNL     1       4.894   5.648  15.323  0.00  0.00    +0.000 OA
BRANCH  15  17
ATOM     17  C   UNL     1       6.864   5.647  17.186  0.00  0.00    +0.000 A 
ATOM     18  C   UNL     1       7.419   5.008  18.301  0.00  0.00    +0.000 A 
ATOM     19  C   UNL     1       8.158   5.739  19.237  0.00  0.00    +0.000 A 
ATOM     20  C   UNL     1       8.357   7.107  19.058  0.00  0.00    +0.000 A 
ATOM     21  C   UNL     1       7.813   7.744  17.945  0.00  0.00    +0.000 A 
ATOM     22 CL   UNL     1       8.085   9.427  17.709  0.00  0.00    +0.000 Cl
ATOM     23  C   UNL     1       7.071   7.023  17.013  0.00  0.00    +0.000 A 
ENDBRANCH  15  17
ENDBRANCH  14  15
ENDBRANCH   4  14
TORSDOF 4
ENDMDL
MODEL 6
REMARK VINA RESULT:      -7.1      4.683      8.672
REMARK  Name = 
REMARK  4 active torsions:
REMARK  status: ('A' for Active; 'I' for Inactive)
REMARK    1  A    between atoms: C_2  and  C_3
REMARK    2  A    between atoms: C_6  and  C_7
REMARK    3  A    between atoms: C_7  and  S_8
REMARK    4  A    between atoms: S_8  and  C_10
REMARK                            x       y       z     vdW  Elec       q    Type
REMARK                         _______ _______ _______ _____ _____    ______ ____
ROOT
ATOM      1  C   UNL     1       2.948   6.534  18.419  0.00  0.00    +0.000 A 
ATOM      2  C   UNL     1       2.501   6.649  19.722  0.00  0.00    +0.000 A 
ATOM      3  C   UNL     1       1.891   7.917  19.838  0.00  0.00    +0.000 A 
ATOM      4  C   UNL     1       1.933   8.490  18.583  0.00  0.00    +0.000 A 
ATOM      5  O   UNL     1       2.587   7.659  17.715  0.00  0.00    +0.000 OA
ENDROOT
BRANCH   1   7
ATOM      6  O   UNL     1       3.180   4.266  17.908  0.00  0.00    +0.000 OA
ATOM      7  C   UNL     1       3.606   5.414  17.767  0.00  0.00    +0.000 C 
ATOM      8  N   UNL     1       4.749   5.651  17.003  0.00  0.00    +0.000 N 
ATOM      9  C   UNL     1       5.356   4.555  16.240  0.00  0.00    +0.000 C 
ATOM     10  C   UNL     1       6.819   4.347  16.645  0.00  0.00    +0.000 C 
ATOM     11  O   UNL     1       7.561   5.573  16.533  0.00  0.00    +0.000 OA
ATOM     12  C   UNL     1       7.000   6.580  17.387  0.00  0.00    +0.000 C 
ATOM     13  C   UNL     1       5.543   6.883  17.010  0.00  0.00    +0.000 C 
ENDBRANCH   1   7
BRANCH   4  14
ATOM     14  C   UNL     1       1.398   9.770  18.039  0.00  0.00    +0.000 C 
BRANCH  14  15
ATOM     15  S   UNL     1       0.427  10.624  19.332  0.00  0.00    +0.000 S 
ATOM     16  O   UNL     1       0.950  12.106  19.435  0.00  0.00    +0.000 OA
BRANCH  15  17
ATOM     17  C   UNL     1      -1.182  10.713  18.504  0.00  0.00    +0.000 A 
ATOM     18  C   UNL     1      -1.454   9.925  17.379  0.00  0.00    +0.000 A 
ATOM     19  C   UNL     1      -2.730   9.933  16.806  0.00  0.00    +0.000 A 
ATOM     20  C   UNL     1      -3.742  10.715  17.359  0.00  0.00    +0.000 A 
ATOM     21  C   UNL     1      -3.477  11.493  18.484  0.00  0.00    +0.000 A 
ATOM     22 CL   UNL     1      -4.735  12.435  19.185  0.00  0.00    +0.000 Cl
ATOM     23  C   UNL     1      -2.206  11.495  19.056  0.00  0.00    +0.000 A 
ENDBRANCH  15  17
ENDBRANCH  14  15
ENDBRANCH   4  14
TORSDOF 4
ENDMDL
MODEL 7
REMARK VINA RESULT:      -7.1      3.300      4.951
REMARK  Name = 
REMARK  4 active torsions:
REMARK  status: ('A' for Active; 'I' for Inactive)
REMARK    1  A    between atoms: C_2  and  C_3
REMARK    2  A    between atoms: C_6  and  C_7
REMARK    3  A    between atoms: C_7  and  S_8
REMARK    4  A    between atoms: S_8  and  C_10
REMARK                            x       y       z     vdW  Elec       q    Type
REMARK                         _______ _______ _______ _____ _____    ______ ____
ROOT
ATOM      1  C   UNL     1       1.512   9.057  19.133  0.00  0.00    +0.000 A 
ATOM      2  C   UNL     1       1.991   8.737  17.876  0.00  0.00    +0.000 A 
ATOM      3  C   UNL     1       2.620   7.477  17.983  0.00  0.00    +0.000 A 
ATOM      4  C   UNL     1       2.438   7.056  19.284  0.00  0.00    +0.000 A 
ATOM      5  O   UNL     1       1.774   8.018  19.995  0.00  0.00    +0.000 OA
ENDROOT
BRANCH   1   7
ATOM      6  O   UNL     1       0.888  11.305  18.989  0.00  0.00    +0.000 OA
ATOM      7  C   UNL     1       0.752  10.220  19.560  0.00  0.00    +0.000 C 
ATOM      8  N   UNL     1      -0.112  10.102  20.648  0.00  0.00    +0.000 N 
ATOM      9  C   UNL     1      -0.975  11.228  21.018  0.00  0.00    +0.000 C 
ATOM     10  C   UNL     1      -0.728  11.659  22.468  0.00  0.00    +0.000 C 
ATOM     11  O   UNL     1      -0.864  10.544  23.364  0.00  0.00    +0.000 OA
ATOM     12  C   UNL     1       0.083   9.517  23.035  0.00  0.00    +0.000 C 
ATOM     13  C   UNL     1      -0.134   8.995  21.608  0.00  0.00    +0.000 C 
ENDBRANCH   1   7
BRANCH   4  14
ATOM     14  C   UNL     1       2.795   5.797  19.997  0.00  0.00    +0.000 C 
BRANCH  14  15
ATOM     15  S   UNL     1       2.666   4.385  18.844  0.00  0.00    +0.000 S 
ATOM     16  O   UNL     1       1.674   4.787  17.690  0.00  0.00    +0.000 OA
BRANCH  15  17
ATOM     17  C   UNL     1       4.326   4.423  18.119  0.00  0.00    +0.000 A 
ATOM     18  C   UNL     1       4.534   4.058  16.783  0.00  0.00    +0.000 A 
ATOM     19  C   UNL     1       5.803   4.182  16.209  0.00  0.00    +0.000 A 
ATOM     20  C   UNL     1       6.866   4.681  16.959  0.00  0.00    +0.000 A 
ATOM     21  C   UNL     1       6.660   5.054  18.286  0.00  0.00    +0.000 A 
ATOM     22 CL   UNL     1       7.966   5.699  19.202  0.00  0.00    +0.000 Cl
ATOM     23  C   UNL     1       5.400   4.927  18.866  0.00  0.00    +0.000 A 
ENDBRANCH  15  17
ENDBRANCH  14  15
ENDBRANCH   4  14
TORSDOF 4
ENDMDL
MODEL 8
REMARK VINA RESULT:      -7.0      2.705      4.371
REMARK  Name = 
REMARK  4 active torsions:
REMARK  status: ('A' for Active; 'I' for Inactive)
REMARK    1  A    between atoms: C_2  and  C_3
REMARK    2  A    between atoms: C_6  and  C_7
REMARK    3  A    between atoms: C_7  and  S_8
REMARK    4  A    between atoms: S_8  and  C_10
REMARK                            x       y       z     vdW  Elec       q    Type
REMARK                         _______ _______ _______ _____ _____    ______ ____
ROOT
ATOM      1  C   UNL     1       1.704   8.883  19.023  0.00  0.00    +0.000 A 
ATOM      2  C   UNL     1       2.253   8.600  17.786  0.00  0.00    +0.000 A 
ATOM      3  C   UNL     1       2.903   7.351  17.898  0.00  0.00    +0.000 A 
ATOM      4  C   UNL     1       2.664   6.898  19.180  0.00  0.00    +0.000 A 
ATOM      5  O   UNL     1       1.944   7.830  19.876  0.00  0.00    +0.000 OA
ENDROOT
BRANCH   1   7
ATOM      6  O   UNL     1       0.965  11.091  18.826  0.00  0.00    +0.000 OA
ATOM      7  C   UNL     1       0.899  10.021  19.435  0.00  0.00    +0.000 C 
ATOM      8  N   UNL     1       0.072   9.896  20.551  0.00  0.00    +0.000 N 
ATOM      9  C   UNL     1      -0.836  10.990  20.910  0.00  0.00    +0.000 C 
ATOM     10  C   UNL     1      -0.571  11.480  22.338  0.00  0.00    +0.000 C 
ATOM     11  O   UNL     1      -0.626  10.390  23.272  0.00  0.00    +0.000 OA
ATOM     12  C   UNL     1       0.362   9.400  22.949  0.00  0.00    +0.000 C 
ATOM     13  C   UNL     1       0.132   8.821  21.546  0.00  0.00    +0.000 C 
ENDBRANCH   1   7
BRANCH   4  14
ATOM     14  C   UNL     1       3.011   5.631  19.884  0.00  0.00    +0.000 C 
BRANCH  14  15
ATOM     15  S   UNL     1       2.953   4.239  18.700  0.00  0.00    +0.000 S 
ATOM     16  O   UNL     1       1.878   4.579  17.601  0.00  0.00    +0.000 OA
BRANCH  15  17
ATOM     17  C   UNL     1       4.568   4.439  17.905  0.00  0.00    +0.000 A 
ATOM     18  C   UNL     1       5.704   4.762  18.658  0.00  0.00    +0.000 A 
ATOM     19  C   UNL     1       6.960   4.821  18.047  0.00  0.00    +0.000 A 
ATOM     20  C   UNL     1       7.093   4.548  16.687  0.00  0.00    +0.000 A 
ATOM     21  C   UNL     1       5.966   4.218  15.937  0.00  0.00    +0.000 A 
ATOM     22 CL   UNL     1       6.134   3.850  14.264  0.00  0.00    +0.000 Cl
ATOM     23  C   UNL     1       4.710   4.163  16.538  0.00  0.00    +0.000 A 
ENDBRANCH  15  17
ENDBRANCH  14  15
ENDBRANCH   4  14
TORSDOF 4
ENDMDL
MODEL 9
REMARK VINA RESULT:      -7.0      1.853      3.366
REMARK  Name = 
REMARK  4 active torsions:
REMARK  status: ('A' for Active; 'I' for Inactive)
REMARK    1  A    between atoms: C_2  and  C_3
REMARK    2  A    between atoms: C_6  and  C_7
REMARK    3  A    between atoms: C_7  and  S_8
REMARK    4  A    between atoms: S_8  and  C_10
REMARK                            x       y       z     vdW  Elec       q    Type
REMARK                         _______ _______ _______ _____ _____    ______ ____
ROOT
ATOM      1  C   UNL     1       3.419   6.371  18.507  0.00  0.00    +0.000 A 
ATOM      2  C   UNL     1       3.138   7.244  17.473  0.00  0.00    +0.000 A 
ATOM      3  C   UNL     1       4.321   7.380  16.714  0.00  0.00    +0.000 A 
ATOM      4  C   UNL     1       5.251   6.532  17.281  0.00  0.00    +0.000 A 
ATOM      5  O   UNL     1       4.713   5.922  18.381  0.00  0.00    +0.000 OA
ENDROOT
BRANCH   1   7
ATOM      6  O   UNL     1       2.382   6.484  20.598  0.00  0.00    +0.000 OA
ATOM      7  C   UNL     1       2.540   5.861  19.546  0.00  0.00    +0.000 C 
ATOM      8  N   UNL     1       1.901   4.636  19.351  0.00  0.00    +0.000 N 
ATOM      9  C   UNL     1       0.919   4.163  20.332  0.00  0.00    +0.000 C 
ATOM     10  C   UNL     1       1.317   2.794  20.893  0.00  0.00    +0.000 C 
ATOM     11  O   UNL     1       1.534   1.849  19.832  0.00  0.00    +0.000 OA
ATOM     12  C   UNL     1       2.585   2.299  18.966  0.00  0.00    +0.000 C 
ATOM     13  C   UNL     1       2.237   3.648  18.322  0.00  0.00    +0.000 C 
ENDBRANCH   1   7
BRANCH   4  14
ATOM     14  C   UNL     1       6.647   6.168  16.906  0.00  0.00    +0.000 C 
BRANCH  14  15
ATOM     15  S   UNL     1       6.727   4.386  16.507  0.00  0.00    +0.000 S 
ATOM     16  O   UNL     1       5.325   3.750  16.835  0.00  0.00    +0.000 OA
BRANCH  15  17
ATOM     17  C   UNL     1       6.832   4.476  14.701  0.00  0.00    +0.000 A 
ATOM     18  C   UNL     1       7.752   5.326  14.077  0.00  0.00    +0.000 A 
ATOM     19  C   UNL     1       7.888   5.318  12.685  0.00  0.00    +0.000 A 
ATOM     20  C   UNL     1       7.117   4.453  11.911  0.00  0.00    +0.000 A 
ATOM     21  C   UNL     1       6.206   3.599  12.530  0.00  0.00    +0.000 A 
ATOM     22 CL   UNL     1       5.276   2.510  11.576  0.00  0.00    +0.000 Cl
ATOM     23  C   UNL     1       6.062   3.607  13.915  0.00  0.00    +0.000 A 
ENDBRANCH  15  17
ENDBRANCH  14  15
ENDBRANCH   4  14
TORSDOF 4
ENDMDL
