MODEL 1
REMARK VINA RESULT:      -6.0      0.000      0.000
REMARK  Name = 
REMARK  8 active torsions:
REMARK  status: ('A' for Active; 'I' for Inactive)
REMARK    1  A    between atoms: C_1  and  C_2
REMARK    2  A    between atoms: C_2  and  C_3
REMARK    3  A    between atoms: C_3  and  N_4
REMARK    4  A    between atoms: C_8  and  C_9
REMARK    5  A    between atoms: N_11  and  C_12
REMARK    6  A    between atoms: N_11  and  C_15
REMARK    7  A    between atoms: C_12  and  C_13
REMARK    8  A    between atoms: C_15  and  C_16
REMARK                            x       y       z     vdW  Elec       q    Type
REMARK                         _______ _______ _______ _____ _____    ______ ____
ROOT
ATOM      1  N   UNL     1       6.836   5.300  17.520  0.00  0.00    +0.000 N 
ATOM      2  C   UNL     1       7.123   5.094  16.175  0.00  0.00    +0.000 C 
ATOM      3  C   UNL     1       6.311   4.419  15.351  0.00  0.00    +0.000 C 
ATOM      4  C   UNL     1       5.004   3.841  15.843  0.00  0.00    +0.000 C 
ATOM      5  C   UNL     1       4.797   3.957  17.331  0.00  0.00    +0.000 C 
ATOM      6  C   UNL     1       5.686   4.697  18.038  0.00  0.00    +0.000 C 
ENDROOT
BRANCH   5   7
ATOM      7  C   UNL     1       3.633   3.436  18.122  0.00  0.00    +0.000 C 
ATOM      8  O   UNL     1       3.720   2.279  18.560  0.00  0.00    +0.000 OA
ATOM      9  N   UNL     1       2.473   4.152  18.398  0.00  0.00    +0.000 N 
BRANCH   9  10
ATOM     10  C   UNL     1       2.062   5.488  17.937  0.00  0.00    +0.000 C 
BRANCH  10  11
ATOM     11  C   UNL     1       2.680   6.664  18.704  0.00  0.00    +0.000 C 
ATOM     12 CL   UNL     1       2.749   8.170  17.752  0.00  0.00    +0.000 Cl
ENDBRANCH  10  11
ENDBRANCH   9  10
BRANCH   9  13
ATOM     13  C   UNL     1       1.446   3.424  19.177  0.00  0.00    +0.000 C 
BRANCH  13  14
ATOM     14  C   UNL     1       1.187   3.979  20.580  0.00  0.00    +0.000 C 
ATOM     15 CL   UNL     1       2.276   3.246  21.789  0.00  0.00    +0.000 Cl
ENDBRANCH  13  14
ENDBRANCH   9  13
ENDBRANCH   5   7
BRANCH   1  16
ATOM     16  C   UNL     1       7.568   6.336  18.277  0.00  0.00    +0.000 C 
BRANCH  16  18
ATOM     17  C   UNL     1       8.435   8.694  18.330  0.00  0.00    +0.000 C 
ATOM     18  C   UNL     1       7.591   7.686  17.559  0.00  0.00    +0.000 C 
ENDBRANCH  16  18
ENDBRANCH   1  16
TORSDOF 7
ENDMDL
MODEL 2
REMARK VINA RESULT:      -6.0      1.665      3.137
REMARK  Name = 
REMARK  8 active torsions:
REMARK  status: ('A' for Active; 'I' for Inactive)
REMARK    1  A    between atoms: C_1  and  C_2
REMARK    2  A    between atoms: C_2  and  C_3
REMARK    3  A    between atoms: C_3  and  N_4
REMARK    4  A    between atoms: C_8  and  C_9
REMARK    5  A    between atoms: N_11  and  C_12
REMARK    6  A    between atoms: N_11  and  C_15
REMARK    7  A    between atoms: C_12  and  C_13
REMARK    8  A    between atoms: C_15  and  C_16
REMARK                            x       y       z     vdW  Elec       q    Type
REMARK                         _______ _______ _______ _____ _____    ______ ____
ROOT
ATOM      1  N   UNL     1       6.587   5.149  16.362  0.00  0.00    +0.000 N 
ATOM      2  C   UNL     1       7.368   6.167  16.897  0.00  0.00    +0.000 C 
ATOM      3  C   UNL     1       7.390   6.463  18.203  0.00  0.00    +0.000 C 
ATOM      4  C   UNL     1       6.557   5.680  19.194  0.00  0.00    +0.000 C 
ATOM      5  C   UNL     1       5.618   4.686  18.563  0.00  0.00    +0.000 C 
ATOM      6  C   UNL     1       5.729   4.467  17.230  0.00  0.00    +0.000 C 
ENDROOT
BRANCH   5   7
ATOM      7  C   UNL     1       4.632   3.803  19.272  0.00  0.00    +0.000 C 
ATOM      8  O   UNL     1       5.080   2.790  19.829  0.00  0.00    +0.000 OA
ATOM      9  N   UNL     1       3.263   4.039  19.348  0.00  0.00    +0.000 N 
BRANCH   9  10
ATOM     10  C   UNL     1       2.455   5.093  18.715  0.00  0.00    +0.000 C 
BRANCH  10  11
ATOM     11  C   UNL     1       2.821   6.528  19.116  0.00  0.00    +0.000 C 
ATOM     12 CL   UNL     1       3.337   7.537  17.739  0.00  0.00    +0.000 Cl
ENDBRANCH  10  11
ENDBRANCH   9  10
BRANCH   9  13
ATOM     13  C   UNL     1       2.482   3.017  20.080  0.00  0.00    +0.000 C 
BRANCH  13  14
ATOM     14  C   UNL     1       1.685   2.056  19.192  0.00  0.00    +0.000 C 
ATOM     15 CL   UNL     1       2.364   1.967  17.544  0.00  0.00    +0.000 Cl
ENDBRANCH  13  14
ENDBRANCH   9  13
ENDBRANCH   5   7
BRANCH   1  16
ATOM     16  C   UNL     1       6.871   4.641  15.005  0.00  0.00    +0.000 C 
BRANCH  16  18
ATOM     17  C   UNL     1       5.971   3.543  12.932  0.00  0.00    +0.000 C 
ATOM     18  C   UNL     1       5.614   4.161  14.279  0.00  0.00    +0.000 C 
ENDBRANCH  16  18
ENDBRANCH   1  16
TORSDOF 7
ENDMDL
MODEL 3
REMARK VINA RESULT:      -6.0      1.734      2.399
REMARK  Name = 
REMARK  8 active torsions:
REMARK  status: ('A' for Active; 'I' for Inactive)
REMARK    1  A    between atoms: C_1  and  C_2
REMARK    2  A    between atoms: C_2  and  C_3
REMARK    3  A    between atoms: C_3  and  N_4
REMARK    4  A    between atoms: C_8  and  C_9
REMARK    5  A    between atoms: N_11  and  C_12
REMARK    6  A    between atoms: N_11  and  C_15
REMARK    7  A    between atoms: C_12  and  C_13
REMARK    8  A    between atoms: C_15  and  C_16
REMARK                            x       y       z     vdW  Elec       q    Type
REMARK                         _______ _______ _______ _____ _____    ______ ____
ROOT
ATOM      1  N   UNL     1       6.841   5.683  17.512  0.00  0.00    +0.000 N 
ATOM      2  C   UNL     1       7.344   5.075  16.367  0.00  0.00    +0.000 C 
ATOM      3  C   UNL     1       6.583   4.375  15.517  0.00  0.00    +0.000 C 
ATOM      4  C   UNL     1       5.098   4.211  15.752  0.00  0.00    +0.000 C 
ATOM      5  C   UNL     1       4.617   4.757  17.072  0.00  0.00    +0.000 C 
ATOM      6  C   UNL     1       5.493   5.473  17.818  0.00  0.00    +0.000 C 
ENDROOT
BRANCH   5   7
ATOM      7  C   UNL     1       3.219   4.699  17.614  0.00  0.00    +0.000 C 
ATOM      8  O   UNL     1       2.683   5.778  17.909  0.00  0.00    +0.000 OA
ATOM      9  N   UNL     1       2.486   3.532  17.807  0.00  0.00    +0.000 N 
BRANCH   9  10
ATOM     10  C   UNL     1       2.894   2.129  17.635  0.00  0.00    +0.000 C 
BRANCH  10  11
ATOM     11  C   UNL     1       3.467   1.454  18.888  0.00  0.00    +0.000 C 
ATOM     12 CL   UNL     1       4.520   2.526  19.848  0.00  0.00    +0.000 Cl
ENDBRANCH  10  11
ENDBRANCH   9  10
BRANCH   9  13
ATOM     13  C   UNL     1       1.134   3.717  18.379  0.00  0.00    +0.000 C 
BRANCH  13  14
ATOM     14  C   UNL     1       1.019   3.415  19.876  0.00  0.00    +0.000 C 
ATOM     15 CL   UNL     1       1.557   4.797  20.870  0.00  0.00    +0.000 Cl
ENDBRANCH  13  14
ENDBRANCH   9  13
ENDBRANCH   5   7
BRANCH   1  16
ATOM     16  C   UNL     1       7.633   6.721  18.201  0.00  0.00    +0.000 C 
BRANCH  16  18
ATOM     17  C   UNL     1       8.408   9.112  18.234  0.00  0.00    +0.000 C 
ATOM     18  C   UNL     1       7.637   8.055  17.452  0.00  0.00    +0.000 C 
ENDBRANCH  16  18
ENDBRANCH   1  16
TORSDOF 7
ENDMDL
MODEL 4
REMARK VINA RESULT:      -6.0      1.754      3.175
REMARK  Name = 
REMARK  8 active torsions:
REMARK  status: ('A' for Active; 'I' for Inactive)
REMARK    1  A    between atoms: C_1  and  C_2
REMARK    2  A    between atoms: C_2  and  C_3
REMARK    3  A    between atoms: C_3  and  N_4
REMARK    4  A    between atoms: C_8  and  C_9
REMARK    5  A    between atoms: N_11  and  C_12
REMARK    6  A    between atoms: N_11  and  C_15
REMARK    7  A    between atoms: C_12  and  C_13
REMARK    8  A    between atoms: C_15  and  C_16
REMARK                            x       y       z     vdW  Elec       q    Type
REMARK                         _______ _______ _______ _____ _____    ______ ____
ROOT
ATOM      1  N   UNL     1       6.567   5.044  16.453  0.00  0.00    +0.000 N 
ATOM      2  C   UNL     1       7.348   6.063  16.987  0.00  0.00    +0.000 C 
ATOM      3  C   UNL     1       7.388   6.345  18.295  0.00  0.00    +0.000 C 
ATOM      4  C   UNL     1       6.577   5.545  19.290  0.00  0.00    +0.000 C 
ATOM      5  C   UNL     1       5.636   4.550  18.663  0.00  0.00    +0.000 C 
ATOM      6  C   UNL     1       5.727   4.346  17.326  0.00  0.00    +0.000 C 
ENDROOT
BRANCH   5   7
ATOM      7  C   UNL     1       4.668   3.652  19.378  0.00  0.00    +0.000 C 
ATOM      8  O   UNL     1       4.948   2.445  19.427  0.00  0.00    +0.000 OA
ATOM      9  N   UNL     1       3.488   4.073  19.984  0.00  0.00    +0.000 N 
BRANCH   9  10
ATOM     10  C   UNL     1       2.867   5.407  20.002  0.00  0.00    +0.000 C 
BRANCH  10  11
ATOM     11  C   UNL     1       2.498   5.976  18.626  0.00  0.00    +0.000 C 
ATOM     12 CL   UNL     1       1.996   4.727  17.456  0.00  0.00    +0.000 Cl
ENDBRANCH  10  11
ENDBRANCH   9  10
BRANCH   9  13
ATOM     13  C   UNL     1       2.677   3.004  20.607  0.00  0.00    +0.000 C 
BRANCH  13  14
ATOM     14  C   UNL     1       1.162   3.175  20.461  0.00  0.00    +0.000 C 
ATOM     15 CL   UNL     1       0.535   2.291  19.042  0.00  0.00    +0.000 Cl
ENDBRANCH  13  14
ENDBRANCH   9  13
ENDBRANCH   5   7
BRANCH   1  16
ATOM     16  C   UNL     1       6.834   4.553  15.086  0.00  0.00    +0.000 C 
BRANCH  16  18
ATOM     17  C   UNL     1       5.885   3.597  12.964  0.00  0.00    +0.000 C 
ATOM     18  C   UNL     1       5.556   4.202  14.324  0.00  0.00    +0.000 C 
ENDBRANCH  16  18
ENDBRANCH   1  16
TORSDOF 7
ENDMDL
MODEL 5
REMARK VINA RESULT:      -5.9      2.789      5.946
REMARK  Name = 
REMARK  8 active torsions:
REMARK  status: ('A' for Active; 'I' for Inactive)
REMARK    1  A    between atoms: C_1  and  C_2
REMARK    2  A    between atoms: C_2  and  C_3
REMARK    3  A    between atoms: C_3  and  N_4
REMARK    4  A    between atoms: C_8  and  C_9
REMARK    5  A    between atoms: N_11  and  C_12
REMARK    6  A    between atoms: N_11  and  C_15
REMARK    7  A    between atoms: C_12  and  C_13
REMARK    8  A    between atoms: C_15  and  C_16
REMARK                            x       y       z     vdW  Elec       q    Type
REMARK                         _______ _______ _______ _____ _____    ______ ____
ROOT
ATOM      1  N   UNL     1       2.702   4.946  20.423  0.00  0.00    +0.000 N 
ATOM      2  C   UNL     1       2.148   6.221  20.391  0.00  0.00    +0.000 C 
ATOM      3  C   UNL     1       2.304   7.059  19.359  0.00  0.00    +0.000 C 
ATOM      4  C   UNL     1       3.099   6.654  18.138  0.00  0.00    +0.000 C 
ATOM      5  C   UNL     1       3.802   5.328  18.270  0.00  0.00    +0.000 C 
ATOM      6  C   UNL     1       3.525   4.570  19.359  0.00  0.00    +0.000 C 
ENDROOT
BRANCH   5   7
ATOM      7  C   UNL     1       4.704   4.682  17.258  0.00  0.00    +0.000 C 
ATOM      8  O   UNL     1       4.214   3.786  16.556  0.00  0.00    +0.000 OA
ATOM      9  N   UNL     1       6.039   5.016  17.053  0.00  0.00    +0.000 N 
BRANCH   9  10
ATOM     10  C   UNL     1       6.895   5.959  17.789  0.00  0.00    +0.000 C 
BRANCH  10  11
ATOM     11  C   UNL     1       6.780   7.425  17.352  0.00  0.00    +0.000 C 
ATOM     12 CL   UNL     1       8.143   8.436  17.903  0.00  0.00    +0.000 Cl
ENDBRANCH  10  11
ENDBRANCH   9  10
BRANCH   9  13
ATOM     13  C   UNL     1       6.739   4.226  16.016  0.00  0.00    +0.000 C 
BRANCH  13  14
ATOM     14  C   UNL     1       6.794   4.881  14.633  0.00  0.00    +0.000 C 
ATOM     15 CL   UNL     1       6.294   3.747  13.348  0.00  0.00    +0.000 Cl
ENDBRANCH  13  14
ENDBRANCH   9  13
ENDBRANCH   5   7
BRANCH   1  16
ATOM     16  C   UNL     1       2.206   3.955  21.400  0.00  0.00    +0.000 C 
BRANCH  16  18
ATOM     17  C   UNL     1       0.639   2.942  19.716  0.00  0.00    +0.000 C 
ATOM     18  C   UNL     1       1.733   2.659  20.739  0.00  0.00    +0.000 C 
ENDBRANCH  16  18
ENDBRANCH   1  16
TORSDOF 7
ENDMDL
MODEL 6
REMARK VINA RESULT:      -5.8      1.510      1.572
REMARK  Name = 
REMARK  8 active torsions:
REMARK  status: ('A' for Active; 'I' for Inactive)
REMARK    1  A    between atoms: C_1  and  C_2
REMARK    2  A    between atoms: C_2  and  C_3
REMARK    3  A    between atoms: C_3  and  N_4
REMARK    4  A    between atoms: C_8  and  C_9
REMARK    5  A    between atoms: N_11  and  C_12
REMARK    6  A    between atoms: N_11  and  C_15
REMARK    7  A    between atoms: C_12  and  C_13
REMARK    8  A    between atoms: C_15  and  C_16
REMARK                            x       y       z     vdW  Elec       q    Type
REMARK                         _______ _______ _______ _____ _____    ______ ____
ROOT
ATOM      1  N   UNL     1       7.108   5.970  17.794  0.00  0.00    +0.000 N 
ATOM      2  C   UNL     1       7.011   5.792  16.419  0.00  0.00    +0.000 C 
ATOM      3  C   UNL     1       6.052   5.056  15.843  0.00  0.00    +0.000 C 
ATOM      4  C   UNL     1       4.989   4.371  16.673  0.00  0.00    +0.000 C 
ATOM      5  C   UNL     1       5.210   4.466  18.160  0.00  0.00    +0.000 C 
ATOM      6  C   UNL     1       6.205   5.274  18.603  0.00  0.00    +0.000 C 
ENDROOT
BRANCH   5   7
ATOM      7  C   UNL     1       4.366   3.849  19.237  0.00  0.00    +0.000 C 
ATOM      8  O   UNL     1       4.833   2.862  19.825  0.00  0.00    +0.000 OA
ATOM      9  N   UNL     1       3.108   4.302  19.621  0.00  0.00    +0.000 N 
BRANCH   9  10
ATOM     10  C   UNL     1       2.281   5.375  19.046  0.00  0.00    +0.000 C 
BRANCH  10  11
ATOM     11  C   UNL     1       2.677   6.798  19.457  0.00  0.00    +0.000 C 
ATOM     12 CL   UNL     1       1.579   7.516  20.666  0.00  0.00    +0.000 Cl
ENDBRANCH  10  11
ENDBRANCH   9  10
BRANCH   9  13
ATOM     13  C   UNL     1       2.450   3.520  20.690  0.00  0.00    +0.000 C 
BRANCH  13  14
ATOM     14  C   UNL     1       1.763   2.234  20.221  0.00  0.00    +0.000 C 
ATOM     15 CL   UNL     1       0.664   2.538  18.848  0.00  0.00    +0.000 Cl
ENDBRANCH  13  14
ENDBRANCH   9  13
ENDBRANCH   5   7
BRANCH   1  16
ATOM     16  C   UNL     1       7.944   7.060  18.337  0.00  0.00    +0.000 C 
BRANCH  16  18
ATOM     17  C   UNL     1       8.492   9.512  18.270  0.00  0.00    +0.000 C 
ATOM     18  C   UNL     1       7.807   8.360  17.544  0.00  0.00    +0.000 C 
ENDBRANCH  16  18
ENDBRANCH   1  16
TORSDOF 7
ENDMDL
MODEL 7
REMARK VINA RESULT:      -5.8      1.274      1.349
REMARK  Name = 
REMARK  8 active torsions:
REMARK  status: ('A' for Active; 'I' for Inactive)
REMARK    1  A    between atoms: C_1  and  C_2
REMARK    2  A    between atoms: C_2  and  C_3
REMARK    3  A    between atoms: C_3  and  N_4
REMARK    4  A    between atoms: C_8  and  C_9
REMARK    5  A    between atoms: N_11  and  C_12
REMARK    6  A    between atoms: N_11  and  C_15
REMARK    7  A    between atoms: C_12  and  C_13
REMARK    8  A    between atoms: C_15  and  C_16
REMARK                            x       y       z     vdW  Elec       q    Type
REMARK                         _______ _______ _______ _____ _____    ______ ____
ROOT
ATOM      1  N   UNL     1       7.114   5.645  17.691  0.00  0.00    +0.000 N 
ATOM      2  C   UNL     1       7.119   5.502  16.307  0.00  0.00    +0.000 C 
ATOM      3  C   UNL     1       6.262   4.708  15.652  0.00  0.00    +0.000 C 
ATOM      4  C   UNL     1       5.211   3.914  16.394  0.00  0.00    +0.000 C 
ATOM      5  C   UNL     1       5.330   3.980  17.894  0.00  0.00    +0.000 C 
ATOM      6  C   UNL     1       6.224   4.853  18.421  0.00  0.00    +0.000 C 
ENDROOT
BRANCH   5   7
ATOM      7  C   UNL     1       4.474   3.263  18.898  0.00  0.00    +0.000 C 
ATOM      8  O   UNL     1       5.042   2.812  19.904  0.00  0.00    +0.000 OA
ATOM      9  N   UNL     1       3.101   3.071  18.782  0.00  0.00    +0.000 N 
BRANCH   9  10
ATOM     10  C   UNL     1       2.196   3.409  17.672  0.00  0.00    +0.000 C 
BRANCH  10  11
ATOM     11  C   UNL     1       1.484   4.762  17.798  0.00  0.00    +0.000 C 
ATOM     12 CL   UNL     1       2.604   6.132  18.021  0.00  0.00    +0.000 Cl
ENDBRANCH  10  11
ENDBRANCH   9  10
BRANCH   9  13
ATOM     13  C   UNL     1       2.470   2.312  19.884  0.00  0.00    +0.000 C 
BRANCH  13  14
ATOM     14  C   UNL     1       2.509   3.004  21.250  0.00  0.00    +0.000 C 
ATOM     15 CL   UNL     1       2.085   4.733  21.122  0.00  0.00    +0.000 Cl
ENDBRANCH  13  14
ENDBRANCH   9  13
ENDBRANCH   5   7
BRANCH   1  16
ATOM     16  C   UNL     1       7.820   6.782  18.314  0.00  0.00    +0.000 C 
BRANCH  16  18
ATOM     17  C   UNL     1       8.424   9.219  18.191  0.00  0.00    +0.000 C 
ATOM     18  C   UNL     1       7.640   8.087  17.537  0.00  0.00    +0.000 C 
ENDBRANCH  16  18
ENDBRANCH   1  16
TORSDOF 7
ENDMDL
MODEL 8
REMARK VINA RESULT:      -5.7      0.894      1.065
REMARK  Name = 
REMARK  8 active torsions:
REMARK  status: ('A' for Active; 'I' for Inactive)
REMARK    1  A    between atoms: C_1  and  C_2
REMARK    2  A    between atoms: C_2  and  C_3
REMARK    3  A    between atoms: C_3  and  N_4
REMARK    4  A    between atoms: C_8  and  C_9
REMARK    5  A    between atoms: N_11  and  C_12
REMARK    6  A    between atoms: N_11  and  C_15
REMARK    7  A    between atoms: C_12  and  C_13
REMARK    8  A    between atoms: C_15  and  C_16
REMARK                            x       y       z     vdW  Elec       q    Type
REMARK                         _______ _______ _______ _____ _____    ______ ____
ROOT
ATOM      1  N   UNL     1       6.959   4.453  17.226  0.00  0.00    +0.000 N 
ATOM      2  C   UNL     1       7.138   4.675  15.865  0.00  0.00    +0.000 C 
ATOM      3  C   UNL     1       6.127   4.681  14.987  0.00  0.00    +0.000 C 
ATOM      4  C   UNL     1       4.701   4.454  15.437  0.00  0.00    +0.000 C 
ATOM      5  C   UNL     1       4.564   4.074  16.888  0.00  0.00    +0.000 C 
ATOM      6  C   UNL     1       5.671   4.141  17.668  0.00  0.00    +0.000 C 
ENDROOT
BRANCH   5   7
ATOM      7  C   UNL     1       3.295   3.735  17.614  0.00  0.00    +0.000 C 
ATOM      8  O   UNL     1       2.761   2.650  17.342  0.00  0.00    +0.000 OA
ATOM      9  N   UNL     1       2.680   4.544  18.564  0.00  0.00    +0.000 N 
BRANCH   9  10
ATOM     10  C   UNL     1       3.032   5.901  19.011  0.00  0.00    +0.000 C 
BRANCH  10  11
ATOM     11  C   UNL     1       2.695   7.024  18.022  0.00  0.00    +0.000 C 
ATOM     12 CL   UNL     1       1.942   8.444  18.795  0.00  0.00    +0.000 Cl
ENDBRANCH  10  11
ENDBRANCH   9  10
BRANCH   9  13
ATOM     13  C   UNL     1       1.420   4.015  19.131  0.00  0.00    +0.000 C 
BRANCH  13  14
ATOM     14  C   UNL     1       1.240   4.247  20.634  0.00  0.00    +0.000 C 
ATOM     15 CL   UNL     1       2.132   3.039  21.598  0.00  0.00    +0.000 Cl
ENDBRANCH  13  14
ENDBRANCH   9  13
ENDBRANCH   5   7
BRANCH   1  16
ATOM     16  C   UNL     1       8.032   4.811  18.176  0.00  0.00    +0.000 C 
BRANCH  16  18
ATOM     17  C   UNL     1       7.846   7.313  18.017  0.00  0.00    +0.000 C 
ATOM     18  C   UNL     1       7.739   6.104  18.939  0.00  0.00    +0.000 C 
ENDBRANCH  16  18
ENDBRANCH   1  16
TORSDOF 7
ENDMDL
MODEL 9
REMARK VINA RESULT:      -5.7      3.060      5.926
REMARK  Name = 
REMARK  8 active torsions:
REMARK  status: ('A' for Active; 'I' for Inactive)
REMARK    1  A    between atoms: C_1  and  C_2
REMARK    2  A    between atoms: C_2  and  C_3
REMARK    3  A    between atoms: C_3  and  N_4
REMARK    4  A    between atoms: C_8  and  C_9
REMARK    5  A    between atoms: N_11  and  C_12
REMARK    6  A    between atoms: N_11  and  C_15
REMARK    7  A    between atoms: C_12  and  C_13
REMARK    8  A    between atoms: C_15  and  C_16
REMARK                            x       y       z     vdW  Elec       q    Type
REMARK                         _______ _______ _______ _____ _____    ______ ____
ROOT
ATOM      1  N   UNL     1       3.192   2.815  19.701  0.00  0.00    +0.000 N 
ATOM      2  C   UNL     1       2.761   2.186  18.538  0.00  0.00    +0.000 C 
ATOM      3  C   UNL     1       3.370   2.341  17.355  0.00  0.00    +0.000 C 
ATOM      4  C   UNL     1       4.594   3.218  17.216  0.00  0.00    +0.000 C 
ATOM      5  C   UNL     1       4.942   3.994  18.459  0.00  0.00    +0.000 C 
ATOM      6  C   UNL     1       4.259   3.711  19.595  0.00  0.00    +0.000 C 
ENDROOT
BRANCH   5   7
ATOM      7  C   UNL     1       6.061   4.983  18.620  0.00  0.00    +0.000 C 
ATOM      8  O   UNL     1       6.508   5.148  19.765  0.00  0.00    +0.000 OA
ATOM      9  N   UNL     1       6.628   5.719  17.586  0.00  0.00    +0.000 N 
BRANCH   9  10
ATOM     10  C   UNL     1       6.244   5.795  16.167  0.00  0.00    +0.000 C 
BRANCH  10  11
ATOM     11  C   UNL     1       7.038   4.882  15.224  0.00  0.00    +0.000 C 
ATOM     12 CL   UNL     1       6.053   4.205  13.900  0.00  0.00    +0.000 Cl
ENDBRANCH  10  11
ENDBRANCH   9  10
BRANCH   9  13
ATOM     13  C   UNL     1       7.704   6.653  17.986  0.00  0.00    +0.000 C 
BRANCH  13  14
ATOM     14  C   UNL     1       7.572   8.070  17.421  0.00  0.00    +0.000 C 
ATOM     15 CL   UNL     1       8.537   9.244  18.357  0.00  0.00    +0.000 Cl
ENDBRANCH  13  14
ENDBRANCH   9  13
ENDBRANCH   5   7
BRANCH   1  16
ATOM     16  C   UNL     1       2.718   2.334  21.014  0.00  0.00    +0.000 C 
BRANCH  16  18
ATOM     17  C   UNL     1       0.954   4.073  20.586  0.00  0.00    +0.000 C 
ATOM     18  C   UNL     1       1.694   3.273  21.653  0.00  0.00    +0.000 C 
ENDBRANCH  16  18
ENDBRANCH   1  16
TORSDOF 7
ENDMDL
