MODEL 1
REMARK VINA RESULT:      -8.5      0.000      0.000
REMARK  Name = 
REMARK  6 active torsions:
REMARK  status: ('A' for Active; 'I' for Inactive)
REMARK    1  A    between atoms: C_1  and  N_2
REMARK    2  A    between atoms: C_8  and  O_9
REMARK    3  A    between atoms: O_9  and  C_10
REMARK    4  A    between atoms: C_10  and  C_12
REMARK    5  A    between atoms: C_12  and  C_13
REMARK    6  A    between atoms: C_12  and  C_19
REMARK                            x       y       z     vdW  Elec       q    Type
REMARK                         _______ _______ _______ _____ _____    ______ ____
ROOT
ATOM      1  C   UNL     1       5.460   5.139  15.820  0.00  0.00    +0.000 C 
ENDROOT
BRANCH   1   2
ATOM      2  C   UNL     1       6.514   5.699  16.779  0.00  0.00    +0.000 A 
ATOM      3  C   UNL     1       7.141   4.881  17.735  0.00  0.00    +0.000 A 
ATOM      4  C   UNL     1       7.942   5.436  18.733  0.00  0.00    +0.000 A 
ATOM      5  C   UNL     1       8.154   6.811  18.776  0.00  0.00    +0.000 A 
ATOM      6  C   UNL     1       7.599   7.627  17.793  0.00  0.00    +0.000 A 
ATOM      7  C   UNL     1       6.789   7.076  16.797  0.00  0.00    +0.000 A 
ENDBRANCH   1   2
BRANCH   1   8
ATOM      8  C   UNL     1       6.019   4.673  14.473  0.00  0.00    +0.000 A 
ATOM      9  C   UNL     1       7.258   5.177  14.031  0.00  0.00    +0.000 A 
ATOM     10  C   UNL     1       7.775   4.828  12.779  0.00  0.00    +0.000 A 
ATOM     11  C   UNL     1       7.068   3.961  11.952  0.00  0.00    +0.000 A 
ATOM     12  C   UNL     1       5.859   3.424  12.383  0.00  0.00    +0.000 A 
ATOM     13  C   UNL     1       5.344   3.772  13.635  0.00  0.00    +0.000 A 
ENDBRANCH   1   8
BRANCH   1  14
ATOM     14  C   UNL     1       4.611   4.079  16.546  0.00  0.00    +0.000 C 
ATOM     15  O   UNL     1       4.948   2.905  16.704  0.00  0.00    +0.000 OA
BRANCH  14  16
ATOM     16  O   UNL     1       3.428   4.591  17.010  0.00  0.00    +0.000 OA
BRANCH  16  24
ATOM     17  C   UNL     1       1.482   6.190  20.712  0.00  0.00    +0.000 C 
ATOM     18  N   UNL     1       1.683   4.759  20.840  0.00  0.00    +0.000 NA
ATOM     19  C   UNL     1       3.071   4.289  20.786  0.00  0.00    +0.000 C 
ATOM     20  C   UNL     1       2.826   2.783  20.962  0.00  0.00    +0.000 C 
ATOM     21  C   UNL     1       1.443   2.538  20.337  0.00  0.00    +0.000 C 
ATOM     22  C   UNL     1       0.987   3.923  19.858  0.00  0.00    +0.000 C 
ATOM     23  C   UNL     1       1.455   4.208  18.420  0.00  0.00    +0.000 C 
ATOM     24  C   UNL     1       2.970   4.007  18.249  0.00  0.00    +0.000 C 
ATOM     25  C   UNL     1       3.744   4.607  19.432  0.00  0.00    +0.000 C 
ENDBRANCH  16  24
ENDBRANCH  14  16
ENDBRANCH   1  14
TORSDOF 5
ENDMDL
MODEL 2
REMARK VINA RESULT:      -8.2      0.246      1.384
REMARK  Name = 
REMARK  6 active torsions:
REMARK  status: ('A' for Active; 'I' for Inactive)
REMARK    1  A    between atoms: C_1  and  N_2
REMARK    2  A    between atoms: C_8  and  O_9
REMARK    3  A    between atoms: O_9  and  C_10
REMARK    4  A    between atoms: C_10  and  C_12
REMARK    5  A    between atoms: C_12  and  C_13
REMARK    6  A    between atoms: C_12  and  C_19
REMARK                            x       y       z     vdW  Elec       q    Type
REMARK                         _______ _______ _______ _____ _____    ______ ____
ROOT
ATOM      1  C   UNL     1       5.208   5.116  15.960  0.00  0.00    +0.000 C 
ENDROOT
BRANCH   1   2
ATOM      2  C   UNL     1       6.148   5.773  16.975  0.00  0.00    +0.000 A 
ATOM      3  C   UNL     1       6.397   7.156  16.952  0.00  0.00    +0.000 A 
ATOM      4  C   UNL     1       7.404   7.713  17.741  0.00  0.00    +0.000 A 
ATOM      5  C   UNL     1       8.158   6.902  18.585  0.00  0.00    +0.000 A 
ATOM      6  C   UNL     1       7.876   5.541  18.673  0.00  0.00    +0.000 A 
ATOM      7  C   UNL     1       6.874   4.979  17.878  0.00  0.00    +0.000 A 
ENDBRANCH   1   2
BRANCH   1   8
ATOM      8  C   UNL     1       5.873   4.754  14.629  0.00  0.00    +0.000 A 
ATOM      9  C   UNL     1       5.210   3.881  13.745  0.00  0.00    +0.000 A 
ATOM     10  C   UNL     1       5.809   3.474  12.548  0.00  0.00    +0.000 A 
ATOM     11  C   UNL     1       7.075   3.941  12.209  0.00  0.00    +0.000 A 
ATOM     12  C   UNL     1       7.733   4.832  13.051  0.00  0.00    +0.000 A 
ATOM     13  C   UNL     1       7.133   5.240  14.246  0.00  0.00    +0.000 A 
ENDBRANCH   1   8
BRANCH   1  14
ATOM     14  C   UNL     1       4.463   3.945  16.626  0.00  0.00    +0.000 C 
ATOM     15  O   UNL     1       4.945   2.827  16.809  0.00  0.00    +0.000 OA
BRANCH  14  16
ATOM     16  O   UNL     1       3.192   4.288  17.005  0.00  0.00    +0.000 OA
BRANCH  16  24
ATOM     17  C   UNL     1       1.472   6.170  20.686  0.00  0.00    +0.000 C 
ATOM     18  N   UNL     1       1.676   4.751  20.908  0.00  0.00    +0.000 NA
ATOM     19  C   UNL     1       3.057   4.269  20.808  0.00  0.00    +0.000 C 
ATOM     20  C   UNL     1       2.818   2.781  21.110  0.00  0.00    +0.000 C 
ATOM     21  C   UNL     1       1.400   2.501  20.586  0.00  0.00    +0.000 C 
ATOM     22  C   UNL     1       0.921   3.851  20.034  0.00  0.00    +0.000 C 
ATOM     23  C   UNL     1       1.304   4.025  18.553  0.00  0.00    +0.000 C 
ATOM     24  C   UNL     1       2.805   3.801  18.309  0.00  0.00    +0.000 C 
ATOM     25  C   UNL     1       3.650   4.481  19.397  0.00  0.00    +0.000 C 
ENDBRANCH  16  24
ENDBRANCH  14  16
ENDBRANCH   1  14
TORSDOF 5
ENDMDL
MODEL 3
REMARK VINA RESULT:      -8.1      0.781      1.582
REMARK  Name = 
REMARK  6 active torsions:
REMARK  status: ('A' for Active; 'I' for Inactive)
REMARK    1  A    between atoms: C_1  and  N_2
REMARK    2  A    between atoms: C_8  and  O_9
REMARK    3  A    between atoms: O_9  and  C_10
REMARK    4  A    between atoms: C_10  and  C_12
REMARK    5  A    between atoms: C_12  and  C_13
REMARK    6  A    between atoms: C_12  and  C_19
REMARK                            x       y       z     vdW  Elec       q    Type
REMARK                         _______ _______ _______ _____ _____    ______ ____
ROOT
ATOM      1  C   UNL     1       5.363   5.014  15.762  0.00  0.00    +0.000 C 
ENDROOT
BRANCH   1   2
ATOM      2  C   UNL     1       6.406   5.584  16.728  0.00  0.00    +0.000 A 
ATOM      3  C   UNL     1       7.106   4.755  17.620  0.00  0.00    +0.000 A 
ATOM      4  C   UNL     1       7.898   5.302  18.630  0.00  0.00    +0.000 A 
ATOM      5  C   UNL     1       8.025   6.683  18.748  0.00  0.00    +0.000 A 
ATOM      6  C   UNL     1       7.395   7.517  17.828  0.00  0.00    +0.000 A 
ATOM      7  C   UNL     1       6.595   6.973  16.819  0.00  0.00    +0.000 A 
ENDBRANCH   1   2
BRANCH   1   8
ATOM      8  C   UNL     1       5.933   4.566  14.414  0.00  0.00    +0.000 A 
ATOM      9  C   UNL     1       7.180   5.068  13.993  0.00  0.00    +0.000 A 
ATOM     10  C   UNL     1       7.708   4.735  12.741  0.00  0.00    +0.000 A 
ATOM     11  C   UNL     1       7.004   3.886  11.893  0.00  0.00    +0.000 A 
ATOM     12  C   UNL     1       5.786   3.352  12.302  0.00  0.00    +0.000 A 
ATOM     13  C   UNL     1       5.260   3.683  13.554  0.00  0.00    +0.000 A 
ENDBRANCH   1   8
BRANCH   1  14
ATOM     14  C   UNL     1       4.529   3.937  16.479  0.00  0.00    +0.000 C 
ATOM     15  O   UNL     1       4.994   2.910  16.975  0.00  0.00    +0.000 OA
BRANCH  14  16
ATOM     16  O   UNL     1       3.195   4.250  16.511  0.00  0.00    +0.000 OA
BRANCH  16  24
ATOM     17  C   UNL     1       4.356   2.269  20.355  0.00  0.00    +0.000 C 
ATOM     18  N   UNL     1       3.063   2.910  20.503  0.00  0.00    +0.000 NA
ATOM     19  C   UNL     1       1.992   2.426  19.626  0.00  0.00    +0.000 C 
ATOM     20  C   UNL     1       0.852   3.336  20.107  0.00  0.00    +0.000 C 
ATOM     21  C   UNL     1       1.551   4.630  20.558  0.00  0.00    +0.000 C 
ATOM     22  C   UNL     1       3.043   4.364  20.317  0.00  0.00    +0.000 C 
ATOM     23  C   UNL     1       3.468   4.772  18.895  0.00  0.00    +0.000 C 
ATOM     24  C   UNL     1       2.584   4.127  17.814  0.00  0.00    +0.000 C 
ATOM     25  C   UNL     1       2.313   2.648  18.131  0.00  0.00    +0.000 C 
ENDBRANCH  16  24
ENDBRANCH  14  16
ENDBRANCH   1  14
TORSDOF 5
ENDMDL
MODEL 4
REMARK VINA RESULT:      -8.0      0.817      2.083
REMARK  Name = 
REMARK  6 active torsions:
REMARK  status: ('A' for Active; 'I' for Inactive)
REMARK    1  A    between atoms: C_1  and  N_2
REMARK    2  A    between atoms: C_8  and  O_9
REMARK    3  A    between atoms: O_9  and  C_10
REMARK    4  A    between atoms: C_10  and  C_12
REMARK    5  A    between atoms: C_12  and  C_13
REMARK    6  A    between atoms: C_12  and  C_19
REMARK                            x       y       z     vdW  Elec       q    Type
REMARK                         _______ _______ _______ _____ _____    ______ ____
ROOT
ATOM      1  C   UNL     1       5.180   5.092  15.908  0.00  0.00    +0.000 C 
ENDROOT
BRANCH   1   2
ATOM      2  C   UNL     1       6.116   5.716  16.946  0.00  0.00    +0.000 A 
ATOM      3  C   UNL     1       6.374   7.098  16.961  0.00  0.00    +0.000 A 
ATOM      4  C   UNL     1       7.379   7.627  17.773  0.00  0.00    +0.000 A 
ATOM      5  C   UNL     1       8.122   6.790  18.600  0.00  0.00    +0.000 A 
ATOM      6  C   UNL     1       7.831   5.429  18.650  0.00  0.00    +0.000 A 
ATOM      7  C   UNL     1       6.830   4.894  17.834  0.00  0.00    +0.000 A 
ENDBRANCH   1   2
BRANCH   1   8
ATOM      8  C   UNL     1       5.858   4.739  14.581  0.00  0.00    +0.000 A 
ATOM      9  C   UNL     1       5.216   3.850  13.697  0.00  0.00    +0.000 A 
ATOM     10  C   UNL     1       5.828   3.450  12.504  0.00  0.00    +0.000 A 
ATOM     11  C   UNL     1       7.086   3.941  12.169  0.00  0.00    +0.000 A 
ATOM     12  C   UNL     1       7.723   4.847  13.012  0.00  0.00    +0.000 A 
ATOM     13  C   UNL     1       7.110   5.247  14.203  0.00  0.00    +0.000 A 
ENDBRANCH   1   8
BRANCH   1  14
ATOM     14  C   UNL     1       4.404   3.925  16.545  0.00  0.00    +0.000 C 
ATOM     15  O   UNL     1       4.927   2.907  17.001  0.00  0.00    +0.000 OA
BRANCH  14  16
ATOM     16  O   UNL     1       3.052   4.147  16.557  0.00  0.00    +0.000 OA
BRANCH  16  24
ATOM     17  C   UNL     1       4.286   2.277  20.434  0.00  0.00    +0.000 C 
ATOM     18  N   UNL     1       2.954   2.838  20.560  0.00  0.00    +0.000 NA
ATOM     19  C   UNL     1       1.927   2.279  19.675  0.00  0.00    +0.000 C 
ATOM     20  C   UNL     1       0.726   3.121  20.134  0.00  0.00    +0.000 C 
ATOM     21  C   UNL     1       1.337   4.459  20.580  0.00  0.00    +0.000 C 
ATOM     22  C   UNL     1       2.846   4.285  20.359  0.00  0.00    +0.000 C 
ATOM     23  C   UNL     1       3.263   4.706  18.938  0.00  0.00    +0.000 C 
ATOM     24  C   UNL     1       2.434   3.998  17.854  0.00  0.00    +0.000 C 
ATOM     25  C   UNL     1       2.252   2.508  18.182  0.00  0.00    +0.000 C 
ENDBRANCH  16  24
ENDBRANCH  14  16
ENDBRANCH   1  14
TORSDOF 5
ENDMDL
MODEL 5
REMARK VINA RESULT:      -8.0      0.688      3.878
REMARK  Name = 
REMARK  6 active torsions:
REMARK  status: ('A' for Active; 'I' for Inactive)
REMARK    1  A    between atoms: C_1  and  N_2
REMARK    2  A    between atoms: C_8  and  O_9
REMARK    3  A    between atoms: O_9  and  C_10
REMARK    4  A    between atoms: C_10  and  C_12
REMARK    5  A    between atoms: C_12  and  C_13
REMARK    6  A    between atoms: C_12  and  C_19
REMARK                            x       y       z     vdW  Elec       q    Type
REMARK                         _______ _______ _______ _____ _____    ______ ____
ROOT
ATOM      1  C   UNL     1       6.120   4.297  16.399  0.00  0.00    +0.000 C 
ENDROOT
BRANCH   1   2
ATOM      2  C   UNL     1       6.323   4.357  14.882  0.00  0.00    +0.000 A 
ATOM      3  C   UNL     1       5.514   3.611  14.007  0.00  0.00    +0.000 A 
ATOM      4  C   UNL     1       5.833   3.512  12.652  0.00  0.00    +0.000 A 
ATOM      5  C   UNL     1       6.946   4.177  12.145  0.00  0.00    +0.000 A 
ATOM      6  C   UNL     1       7.716   4.978  12.985  0.00  0.00    +0.000 A 
ATOM      7  C   UNL     1       7.404   5.073  14.344  0.00  0.00    +0.000 A 
ENDBRANCH   1   2
BRANCH   1   8
ATOM      8  C   UNL     1       6.890   5.365  17.179  0.00  0.00    +0.000 A 
ATOM      9  C   UNL     1       7.534   5.008  18.380  0.00  0.00    +0.000 A 
ATOM     10  C   UNL     1       8.195   5.965  19.158  0.00  0.00    +0.000 A 
ATOM     11  C   UNL     1       8.233   7.293  18.743  0.00  0.00    +0.000 A 
ATOM     12  C   UNL     1       7.633   7.661  17.542  0.00  0.00    +0.000 A 
ATOM     13  C   UNL     1       6.975   6.703  16.765  0.00  0.00    +0.000 A 
ENDBRANCH   1   8
BRANCH   1  14
ATOM     14  C   UNL     1       4.615   4.250  16.719  0.00  0.00    +0.000 C 
ATOM     15  O   UNL     1       3.852   5.212  16.619  0.00  0.00    +0.000 OA
BRANCH  14  16
ATOM     16  O   UNL     1       4.209   3.006  17.124  0.00  0.00    +0.000 OA
BRANCH  16  24
ATOM     17  C   UNL     1       2.344   6.182  19.670  0.00  0.00    +0.000 C 
ATOM     18  N   UNL     1       2.041   4.873  20.215  0.00  0.00    +0.000 NA
ATOM     19  C   UNL     1       3.188   4.061  20.634  0.00  0.00    +0.000 C 
ATOM     20  C   UNL     1       2.436   2.817  21.134  0.00  0.00    +0.000 C 
ATOM     21  C   UNL     1       1.165   2.758  20.270  0.00  0.00    +0.000 C 
ATOM     22  C   UNL     1       1.271   3.979  19.347  0.00  0.00    +0.000 C 
ATOM     23  C   UNL     1       2.025   3.643  18.048  0.00  0.00    +0.000 C 
ATOM     24  C   UNL     1       3.397   3.003  18.318  0.00  0.00    +0.000 C 
ATOM     25  C   UNL     1       4.131   3.728  19.457  0.00  0.00    +0.000 C 
ENDBRANCH  16  24
ENDBRANCH  14  16
ENDBRANCH   1  14
TORSDOF 5
ENDMDL
MODEL 6
REMARK VINA RESULT:      -8.0      2.435      7.079
REMARK  Name = 
REMARK  6 active torsions:
REMARK  status: ('A' for Active; 'I' for Inactive)
REMARK    1  A    between atoms: C_1  and  N_2
REMARK    2  A    between atoms: C_8  and  O_9
REMARK    3  A    between atoms: O_9  and  C_10
REMARK    4  A    between atoms: C_10  and  C_12
REMARK    5  A    between atoms: C_12  and  C_13
REMARK    6  A    between atoms: C_12  and  C_19
REMARK                            x       y       z     vdW  Elec       q    Type
REMARK                         _______ _______ _______ _____ _____    ______ ____
ROOT
ATOM      1  C   UNL     1       2.505   6.672  19.729  0.00  0.00    +0.000 C 
ENDROOT
BRANCH   1   2
ATOM      2  C   UNL     1       1.620   7.801  20.265  0.00  0.00    +0.000 A 
ATOM      3  C   UNL     1       0.796   7.612  21.388  0.00  0.00    +0.000 A 
ATOM      4  C   UNL     1      -0.154   8.570  21.744  0.00  0.00    +0.000 A 
ATOM      5  C   UNL     1      -0.278   9.741  21.003  0.00  0.00    +0.000 A 
ATOM      6  C   UNL     1       0.579   9.976  19.930  0.00  0.00    +0.000 A 
ATOM      7  C   UNL     1       1.527   9.015  19.566  0.00  0.00    +0.000 A 
ENDBRANCH   1   2
BRANCH   1   8
ATOM      8  C   UNL     1       2.039   5.267  20.119  0.00  0.00    +0.000 A 
ATOM      9  C   UNL     1       2.512   4.693  21.315  0.00  0.00    +0.000 A 
ATOM     10  C   UNL     1       2.163   3.388  21.678  0.00  0.00    +0.000 A 
ATOM     11  C   UNL     1       1.325   2.639  20.857  0.00  0.00    +0.000 A 
ATOM     12  C   UNL     1       0.819   3.199  19.688  0.00  0.00    +0.000 A 
ATOM     13  C   UNL     1       1.167   4.503  19.327  0.00  0.00    +0.000 A 
ENDBRANCH   1   8
BRANCH   1  14
ATOM     14  C   UNL     1       2.727   6.862  18.217  0.00  0.00    +0.000 C 
ATOM     15  O   UNL     1       2.295   7.812  17.563  0.00  0.00    +0.000 OA
BRANCH  14  16
ATOM     16  O   UNL     1       3.472   5.849  17.672  0.00  0.00    +0.000 OA
BRANCH  16  24
ATOM     17  C   UNL     1       7.129   4.466  15.489  0.00  0.00    +0.000 C 
ATOM     18  N   UNL     1       7.514   5.182  16.690  0.00  0.00    +0.000 NA
ATOM     19  C   UNL     1       7.058   4.612  17.962  0.00  0.00    +0.000 C 
ATOM     20  C   UNL     1       7.673   5.641  18.924  0.00  0.00    +0.000 C 
ATOM     21  C   UNL     1       7.691   6.956  18.127  0.00  0.00    +0.000 C 
ATOM     22  C   UNL     1       7.098   6.585  16.761  0.00  0.00    +0.000 C 
ATOM     23  C   UNL     1       5.567   6.737  16.747  0.00  0.00    +0.000 C 
ATOM     24  C   UNL     1       4.894   5.968  17.896  0.00  0.00    +0.000 C 
ATOM     25  C   UNL     1       5.518   4.574  18.068  0.00  0.00    +0.000 C 
ENDBRANCH  16  24
ENDBRANCH  14  16
ENDBRANCH   1  14
TORSDOF 5
ENDMDL
MODEL 7
REMARK VINA RESULT:      -7.9      2.482      7.174
REMARK  Name = 
REMARK  6 active torsions:
REMARK  status: ('A' for Active; 'I' for Inactive)
REMARK    1  A    between atoms: C_1  and  N_2
REMARK    2  A    between atoms: C_8  and  O_9
REMARK    3  A    between atoms: O_9  and  C_10
REMARK    4  A    between atoms: C_10  and  C_12
REMARK    5  A    between atoms: C_12  and  C_13
REMARK    6  A    between atoms: C_12  and  C_19
REMARK                            x       y       z     vdW  Elec       q    Type
REMARK                         _______ _______ _______ _____ _____    ______ ____
ROOT
ATOM      1  C   UNL     1       2.490   6.809  19.715  0.00  0.00    +0.000 C 
ENDROOT
BRANCH   1   2
ATOM      2  C   UNL     1       1.492   7.876  20.173  0.00  0.00    +0.000 A 
ATOM      3  C   UNL     1       1.337   9.082  19.468  0.00  0.00    +0.000 A 
ATOM      4  C   UNL     1       0.582  10.128  20.002  0.00  0.00    +0.000 A 
ATOM      5  C   UNL     1      -0.052   9.976  21.232  0.00  0.00    +0.000 A 
ATOM      6  C   UNL     1       0.033   8.762  21.909  0.00  0.00    +0.000 A 
ATOM      7  C   UNL     1       0.795   7.715  21.382  0.00  0.00    +0.000 A 
ENDBRANCH   1   2
BRANCH   1   8
ATOM      8  C   UNL     1       2.106   5.379  20.105  0.00  0.00    +0.000 A 
ATOM      9  C   UNL     1       1.256   4.641  19.258  0.00  0.00    +0.000 A 
ATOM     10  C   UNL     1       0.829   3.355  19.606  0.00  0.00    +0.000 A 
ATOM     11  C   UNL     1       1.253   2.781  20.801  0.00  0.00    +0.000 A 
ATOM     12  C   UNL     1       2.120   3.479  21.635  0.00  0.00    +0.000 A 
ATOM     13  C   UNL     1       2.548   4.763  21.286  0.00  0.00    +0.000 A 
ENDBRANCH   1   8
BRANCH   1  14
ATOM     14  C   UNL     1       2.790   6.991  18.216  0.00  0.00    +0.000 C 
ATOM     15  O   UNL     1       2.442   7.966  17.549  0.00  0.00    +0.000 OA
BRANCH  14  16
ATOM     16  O   UNL     1       3.502   5.940  17.699  0.00  0.00    +0.000 OA
BRANCH  16  24
ATOM     17  C   UNL     1       7.114   4.524  15.463  0.00  0.00    +0.000 C 
ATOM     18  N   UNL     1       7.522   5.202  16.679  0.00  0.00    +0.000 NA
ATOM     19  C   UNL     1       7.059   4.612  17.940  0.00  0.00    +0.000 C 
ATOM     20  C   UNL     1       7.703   5.603  18.923  0.00  0.00    +0.000 C 
ATOM     21  C   UNL     1       7.747   6.936  18.158  0.00  0.00    +0.000 C 
ATOM     22  C   UNL     1       7.140   6.612  16.786  0.00  0.00    +0.000 C 
ATOM     23  C   UNL     1       5.612   6.800  16.784  0.00  0.00    +0.000 C 
ATOM     24  C   UNL     1       4.927   6.020  17.918  0.00  0.00    +0.000 C 
ATOM     25  C   UNL     1       5.519   4.608  18.053  0.00  0.00    +0.000 C 
ENDBRANCH  16  24
ENDBRANCH  14  16
ENDBRANCH   1  14
TORSDOF 5
ENDMDL
MODEL 8
REMARK VINA RESULT:      -7.8      0.873      1.877
REMARK  Name = 
REMARK  6 active torsions:
REMARK  status: ('A' for Active; 'I' for Inactive)
REMARK    1  A    between atoms: C_1  and  N_2
REMARK    2  A    between atoms: C_8  and  O_9
REMARK    3  A    between atoms: O_9  and  C_10
REMARK    4  A    between atoms: C_10  and  C_12
REMARK    5  A    between atoms: C_12  and  C_13
REMARK    6  A    between atoms: C_12  and  C_19
REMARK                            x       y       z     vdW  Elec       q    Type
REMARK                         _______ _______ _______ _____ _____    ______ ____
ROOT
ATOM      1  C   UNL     1       5.461   5.494  15.933  0.00  0.00    +0.000 C 
ENDROOT
BRANCH   1   2
ATOM      2  C   UNL     1       6.554   5.939  16.909  0.00  0.00    +0.000 A 
ATOM      3  C   UNL     1       7.088   5.054  17.861  0.00  0.00    +0.000 A 
ATOM      4  C   UNL     1       7.929   5.518  18.873  0.00  0.00    +0.000 A 
ATOM      5  C   UNL     1       8.271   6.866  18.935  0.00  0.00    +0.000 A 
ATOM      6  C   UNL     1       7.807   7.743  17.958  0.00  0.00    +0.000 A 
ATOM      7  C   UNL     1       6.959   7.283  16.947  0.00  0.00    +0.000 A 
ENDBRANCH   1   2
BRANCH   1   8
ATOM      8  C   UNL     1       5.988   4.944  14.606  0.00  0.00    +0.000 A 
ATOM      9  C   UNL     1       5.197   4.037  13.874  0.00  0.00    +0.000 A 
ATOM     10  C   UNL     1       5.666   3.461  12.689  0.00  0.00    +0.000 A 
ATOM     11  C   UNL     1       6.930   3.791  12.208  0.00  0.00    +0.000 A 
ATOM     12  C   UNL     1       7.714   4.711  12.896  0.00  0.00    +0.000 A 
ATOM     13  C   UNL     1       7.243   5.288  14.080  0.00  0.00    +0.000 A 
ENDBRANCH   1   8
BRANCH   1  14
ATOM     14  C   UNL     1       4.476   4.554  16.653  0.00  0.00    +0.000 C 
ATOM     15  O   UNL     1       4.695   3.366  16.894  0.00  0.00    +0.000 OA
BRANCH  14  16
ATOM     16  O   UNL     1       3.316   5.192  17.009  0.00  0.00    +0.000 OA
BRANCH  16  24
ATOM     17  C   UNL     1       4.392   2.136  20.099  0.00  0.00    +0.000 C 
ATOM     18  N   UNL     1       3.034   2.597  20.315  0.00  0.00    +0.000 NA
ATOM     19  C   UNL     1       2.084   2.356  19.224  0.00  0.00    +0.000 C 
ATOM     20  C   UNL     1       0.825   2.970  19.857  0.00  0.00    +0.000 C 
ATOM     21  C   UNL     1       1.356   4.087  20.772  0.00  0.00    +0.000 C 
ATOM     22  C   UNL     1       2.881   4.024  20.609  0.00  0.00    +0.000 C 
ATOM     23  C   UNL     1       3.364   4.911  19.447  0.00  0.00    +0.000 C 
ATOM     24  C   UNL     1       2.629   4.600  18.133  0.00  0.00    +0.000 C 
ATOM     25  C   UNL     1       2.487   3.084  17.924  0.00  0.00    +0.000 C 
ENDBRANCH  16  24
ENDBRANCH  14  16
ENDBRANCH   1  14
TORSDOF 5
ENDMDL
MODEL 9
REMARK VINA RESULT:      -7.7      0.920      4.145
REMARK  Name = 
REMARK  6 active torsions:
REMARK  status: ('A' for Active; 'I' for Inactive)
REMARK    1  A    between atoms: C_1  and  N_2
REMARK    2  A    between atoms: C_8  and  O_9
REMARK    3  A    between atoms: O_9  and  C_10
REMARK    4  A    between atoms: C_10  and  C_12
REMARK    5  A    between atoms: C_12  and  C_13
REMARK    6  A    between atoms: C_12  and  C_19
REMARK                            x       y       z     vdW  Elec       q    Type
REMARK                         _______ _______ _______ _____ _____    ______ ____
ROOT
ATOM      1  C   UNL     1       6.142   4.283  16.271  0.00  0.00    +0.000 C 
ENDROOT
BRANCH   1   2
ATOM      2  C   UNL     1       6.362   4.373  14.758  0.00  0.00    +0.000 A 
ATOM      3  C   UNL     1       5.587   3.618  13.861  0.00  0.00    +0.000 A 
ATOM      4  C   UNL     1       5.926   3.549  12.509  0.00  0.00    +0.000 A 
ATOM      5  C   UNL     1       7.026   4.254  12.028  0.00  0.00    +0.000 A 
ATOM      6  C   UNL     1       7.761   5.064  12.890  0.00  0.00    +0.000 A 
ATOM      7  C   UNL     1       7.429   5.129  14.246  0.00  0.00    +0.000 A 
ENDBRANCH   1   2
BRANCH   1   8
ATOM      8  C   UNL     1       6.881   5.353  17.079  0.00  0.00    +0.000 A 
ATOM      9  C   UNL     1       7.503   4.991  18.290  0.00  0.00    +0.000 A 
ATOM     10  C   UNL     1       8.134   5.949  19.092  0.00  0.00    +0.000 A 
ATOM     11  C   UNL     1       8.165   7.281  18.691  0.00  0.00    +0.000 A 
ATOM     12  C   UNL     1       7.587   7.653  17.482  0.00  0.00    +0.000 A 
ATOM     13  C   UNL     1       6.958   6.696  16.680  0.00  0.00    +0.000 A 
ENDBRANCH   1   8
BRANCH   1  14
ATOM     14  C   UNL     1       4.634   4.202  16.571  0.00  0.00    +0.000 C 
ATOM     15  O   UNL     1       3.911   3.255  16.259  0.00  0.00    +0.000 OA
BRANCH  14  16
ATOM     16  O   UNL     1       4.178   5.310  17.237  0.00  0.00    +0.000 OA
BRANCH  16  24
ATOM     17  C   UNL     1       2.051   1.686  18.785  0.00  0.00    +0.000 C 
ATOM     18  N   UNL     1       1.879   2.791  19.709  0.00  0.00    +0.000 NA
ATOM     19  C   UNL     1       1.195   3.978  19.186  0.00  0.00    +0.000 C 
ATOM     20  C   UNL     1       1.224   4.852  20.449  0.00  0.00    +0.000 C 
ATOM     21  C   UNL     1       2.501   4.424  21.190  0.00  0.00    +0.000 C 
ATOM     22  C   UNL     1       3.106   3.324  20.307  0.00  0.00    +0.000 C 
ATOM     23  C   UNL     1       4.060   3.907  19.249  0.00  0.00    +0.000 C 
ATOM     24  C   UNL     1       3.397   5.018  18.416  0.00  0.00    +0.000 C 
ATOM     25  C   UNL     1       1.965   4.630  18.017  0.00  0.00    +0.000 C 
ENDBRANCH  16  24
ENDBRANCH  14  16
ENDBRANCH   1  14
TORSDOF 5
ENDMDL
