MODEL 1
REMARK VINA RESULT:      -7.3      0.000      0.000
REMARK  Name = 
REMARK  5 active torsions:
REMARK  status: ('A' for Active; 'I' for Inactive)
REMARK    1  A    between atoms: C_1  and  C_2
REMARK    2  A    between atoms: C_2  and  N_3
REMARK    3  A    between atoms: C_7  and  C_8
REMARK    4  A    between atoms: N_27  and  S_28
REMARK    5  A    between atoms: S_28  and  C_29
REMARK                            x       y       z     vdW  Elec       q    Type
REMARK                         _______ _______ _______ _____ _____    ______ ____
ROOT
ATOM      1  N   UNL     1      -3.722  13.231  21.407  0.00  0.00    +0.000 N 
ATOM      2  C   UNL     1      -4.802  13.574  20.491  0.00  0.00    +0.000 C 
ATOM      3  C   UNL     1      -4.600  12.781  19.202  0.00  0.00    +0.000 C 
ATOM      4  C   UNL     1      -3.268  12.180  19.416  0.00  0.00    +0.000 A 
ATOM      5  C   UNL     1      -2.503  11.369  18.609  0.00  0.00    +0.000 A 
ATOM      6  N   UNL     1      -1.324  10.889  19.039  0.00  0.00    +0.000 NA
ATOM      7  C   UNL     1      -0.925  11.186  20.286  0.00  0.00    +0.000 A 
ATOM      8  N   UNL     1       0.253  10.646  20.729  0.00  0.00    +0.000 N 
ATOM      9  C   UNL     1       1.077   9.794  19.877  0.00  0.00    +0.000 C 
ATOM     10  C   UNL     1       1.244   8.396  20.496  0.00  0.00    +0.000 C 
ATOM     11  O   UNL     1       1.673   8.467  21.866  0.00  0.00    +0.000 OA
ATOM     12  C   UNL     1       0.716   9.199  22.650  0.00  0.00    +0.000 C 
ATOM     13  C   UNL     1       0.563  10.646  22.151  0.00  0.00    +0.000 C 
ATOM     14  N   UNL     1      -1.657  11.942  21.128  0.00  0.00    +0.000 NA
ATOM     15  C   UNL     1      -2.803  12.449  20.679  0.00  0.00    +0.000 A 
ENDROOT
BRANCH   5  16
ATOM     16  C   UNL     1      -2.937  10.915  17.294  0.00  0.00    +0.000 A 
ATOM     17  C   UNL     1      -2.263   9.970  16.551  0.00  0.00    +0.000 A 
ATOM     18  N   UNL     1      -2.571   9.598  15.295  0.00  0.00    +0.000 NA
ATOM     19  C   UNL     1      -3.628  10.200  14.752  0.00  0.00    +0.000 A 
ATOM     20  N   UNL     1      -3.928   9.888  13.446  0.00  0.00    +0.000 N 
ATOM     21  N   UNL     1      -4.408  11.083  15.382  0.00  0.00    +0.000 NA
ATOM     22  C   UNL     1      -4.043  11.421  16.641  0.00  0.00    +0.000 A 
ATOM     23  H   UNL     1      -3.551   8.985  13.198  0.00  0.00    +0.000 HD
ATOM     24  H   UNL     1      -4.902  10.068  13.248  0.00  0.00    +0.000 HD
ENDBRANCH   5  16
BRANCH   1  26
ATOM     25  C   UNL     1      -2.320  14.892  22.577  0.00  0.00    +0.000 C 
ATOM     26  C   UNL     1      -3.483  13.898  22.699  0.00  0.00    +0.000 C 
ATOM     27  C   UNL     1      -3.199  12.917  23.858  0.00  0.00    +0.000 C 
ATOM     28  C   UNL     1      -4.580  12.372  24.210  0.00  0.00    +0.000 C 
ATOM     29  N   UNL     1      -5.490  13.519  24.021  0.00  0.00    +0.000 NA
ATOM     30  C   UNL     1      -4.761  14.574  23.243  0.00  0.00    +0.000 C 
BRANCH  29  31
ATOM     31  S   UNL     1      -7.088  13.212  23.574  0.00  0.00    +0.000 S 
ATOM     32  C   UNL     1      -7.506  14.655  22.608  0.00  0.00    +0.000 C 
ATOM     33  O   UNL     1      -7.089  12.078  22.689  0.00  0.00    +0.000 OA
ATOM     34  O   UNL     1      -7.911  13.242  24.782  0.00  0.00    +0.000 OA
ENDBRANCH  29  31
ENDBRANCH   1  26
TORSDOF 3
ENDMDL
MODEL 2
REMARK VINA RESULT:      -7.1      7.827     10.201
REMARK  Name = 
REMARK  5 active torsions:
REMARK  status: ('A' for Active; 'I' for Inactive)
REMARK    1  A    between atoms: C_1  and  C_2
REMARK    2  A    between atoms: C_2  and  N_3
REMARK    3  A    between atoms: C_7  and  C_8
REMARK    4  A    between atoms: N_27  and  S_28
REMARK    5  A    between atoms: S_28  and  C_29
REMARK                            x       y       z     vdW  Elec       q    Type
REMARK                         _______ _______ _______ _____ _____    ______ ____
ROOT
ATOM      1  N   UNL     1       4.271  15.438  19.583  0.00  0.00    +0.000 N 
ATOM      2  C   UNL     1       4.515  15.669  18.165  0.00  0.00    +0.000 C 
ATOM      3  C   UNL     1       5.927  15.186  17.843  0.00  0.00    +0.000 C 
ATOM      4  C   UNL     1       6.465  14.890  19.186  0.00  0.00    +0.000 A 
ATOM      5  C   UNL     1       7.703  14.439  19.584  0.00  0.00    +0.000 A 
ATOM      6  N   UNL     1       7.957  14.185  20.879  0.00  0.00    +0.000 NA
ATOM      7  C   UNL     1       6.967  14.345  21.773  0.00  0.00    +0.000 A 
ATOM      8  N   UNL     1       7.226  14.031  23.080  0.00  0.00    +0.000 N 
ATOM      9  C   UNL     1       8.538  13.562  23.514  0.00  0.00    +0.000 C 
ATOM     10  C   UNL     1       8.442  12.158  24.133  0.00  0.00    +0.000 C 
ATOM     11  O   UNL     1       7.418  12.088  25.140  0.00  0.00    +0.000 OA
ATOM     12  C   UNL     1       6.140  12.423  24.573  0.00  0.00    +0.000 C 
ATOM     13  C   UNL     1       6.126  13.856  24.016  0.00  0.00    +0.000 C 
ATOM     14  N   UNL     1       5.728  14.746  21.427  0.00  0.00    +0.000 NA
ATOM     15  C   UNL     1       5.497  15.037  20.148  0.00  0.00    +0.000 A 
ENDROOT
BRANCH   5  16
ATOM     16  C   UNL     1       8.778  14.132  18.650  0.00  0.00    +0.000 A 
ATOM     17  C   UNL     1       9.081  12.857  18.225  0.00  0.00    +0.000 A 
ATOM     18  N   UNL     1      10.125  12.519  17.447  0.00  0.00    +0.000 NA
ATOM     19  C   UNL     1      10.910  13.522  17.058  0.00  0.00    +0.000 A 
ATOM     20  N   UNL     1      12.022  13.200  16.315  0.00  0.00    +0.000 N 
ATOM     21  N   UNL     1      10.696  14.810  17.341  0.00  0.00    +0.000 NA
ATOM     22  C   UNL     1       9.633  15.086  18.133  0.00  0.00    +0.000 A 
ATOM     23  H   UNL     1      11.898  12.313  15.850  0.00  0.00    +0.000 HD
ATOM     24  H   UNL     1      12.327  13.989  15.763  0.00  0.00    +0.000 HD
ENDBRANCH   5  16
BRANCH   1  26
ATOM     25  C   UNL     1       3.205  17.400  20.637  0.00  0.00    +0.000 C 
ATOM     26  C   UNL     1       3.075  15.906  20.308  0.00  0.00    +0.000 C 
ATOM     27  C   UNL     1       2.793  15.118  21.607  0.00  0.00    +0.000 C 
ATOM     28  C   UNL     1       2.178  13.815  21.106  0.00  0.00    +0.000 C 
ATOM     29  N   UNL     1       1.370  14.212  19.936  0.00  0.00    +0.000 NA
ATOM     30  C   UNL     1       1.775  15.599  19.534  0.00  0.00    +0.000 C 
BRANCH  29  31
ATOM     31  S   UNL     1       1.150  13.093  18.693  0.00  0.00    +0.000 S 
ATOM     32  C   UNL     1       1.049  11.545  19.577  0.00  0.00    +0.000 C 
ATOM     33  O   UNL     1      -0.136  13.342  18.097  0.00  0.00    +0.000 OA
ATOM     34  O   UNL     1       2.372  13.058  17.891  0.00  0.00    +0.000 OA
ENDBRANCH  29  31
ENDBRANCH   1  26
TORSDOF 3
ENDMDL
MODEL 3
REMARK VINA RESULT:      -7.0      8.529     12.978
REMARK  Name = 
REMARK  5 active torsions:
REMARK  status: ('A' for Active; 'I' for Inactive)
REMARK    1  A    between atoms: C_1  and  C_2
REMARK    2  A    between atoms: C_2  and  N_3
REMARK    3  A    between atoms: C_7  and  C_8
REMARK    4  A    between atoms: N_27  and  S_28
REMARK    5  A    between atoms: S_28  and  C_29
REMARK                            x       y       z     vdW  Elec       q    Type
REMARK                         _______ _______ _______ _____ _____    ______ ____
ROOT
ATOM      1  N   UNL     1       8.512  14.390  20.957  0.00  0.00    +0.000 N 
ATOM      2  C   UNL     1       9.427  13.981  22.015  0.00  0.00    +0.000 C 
ATOM      3  C   UNL     1       8.595  13.451  23.181  0.00  0.00    +0.000 C 
ATOM      4  C   UNL     1       7.222  13.795  22.761  0.00  0.00    +0.000 A 
ATOM      5  C   UNL     1       6.012  13.605  23.388  0.00  0.00    +0.000 A 
ATOM      6  N   UNL     1       4.864  13.955  22.784  0.00  0.00    +0.000 NA
ATOM      7  C   UNL     1       4.918  14.460  21.541  0.00  0.00    +0.000 A 
ATOM      8  N   UNL     1       3.737  14.763  20.918  0.00  0.00    +0.000 N 
ATOM      9  C   UNL     1       2.448  14.576  21.579  0.00  0.00    +0.000 C 
ATOM     10  C   UNL     1       1.570  13.586  20.797  0.00  0.00    +0.000 C 
ATOM     11  O   UNL     1       1.484  13.933  19.404  0.00  0.00    +0.000 OA
ATOM     12  C   UNL     1       2.794  13.942  18.812  0.00  0.00    +0.000 C 
ATOM     13  C   UNL     1       3.710  14.982  19.480  0.00  0.00    +0.000 C 
ATOM     14  N   UNL     1       6.075  14.628  20.870  0.00  0.00    +0.000 NA
ATOM     15  C   UNL     1       7.211  14.319  21.492  0.00  0.00    +0.000 A 
ENDROOT
BRANCH   5  16
ATOM     16  C   UNL     1       5.878  12.953  24.684  0.00  0.00    +0.000 A 
ATOM     17  C   UNL     1       5.658  13.631  25.863  0.00  0.00    +0.000 A 
ATOM     18  N   UNL     1       5.631  13.079  27.089  0.00  0.00    +0.000 NA
ATOM     19  C   UNL     1       5.825  11.763  27.141  0.00  0.00    +0.000 A 
ATOM     20  N   UNL     1       5.867  11.180  28.385  0.00  0.00    +0.000 N 
ATOM     21  N   UNL     1       5.983  10.975  26.073  0.00  0.00    +0.000 NA
ATOM     22  C   UNL     1       6.007  11.590  24.867  0.00  0.00    +0.000 A 
ATOM     23  H   UNL     1       5.380  11.747  29.063  0.00  0.00    +0.000 HD
ATOM     24  H   UNL     1       5.636  10.198  28.331  0.00  0.00    +0.000 HD
ENDBRANCH   5  16
BRANCH   1  26
ATOM     25  C   UNL     1       8.771  16.607  19.903  0.00  0.00    +0.000 C 
ATOM     26  C   UNL     1       8.923  15.090  19.727  0.00  0.00    +0.000 C 
ATOM     27  C   UNL     1       8.145  14.640  18.470  0.00  0.00    +0.000 C 
ATOM     28  C   UNL     1       8.785  13.302  18.116  0.00  0.00    +0.000 C 
ATOM     29  N   UNL     1      10.214  13.476  18.445  0.00  0.00    +0.000 NA
ATOM     30  C   UNL     1      10.354  14.703  19.294  0.00  0.00    +0.000 C 
BRANCH  29  31
ATOM     31  S   UNL     1      11.101  12.120  18.915  0.00  0.00    +0.000 S 
ATOM     32  C   UNL     1       9.829  10.997  19.472  0.00  0.00    +0.000 C 
ATOM     33  O   UNL     1      11.699  11.553  17.735  0.00  0.00    +0.000 OA
ATOM     34  O   UNL     1      11.904  12.483  20.081  0.00  0.00    +0.000 OA
ENDBRANCH  29  31
ENDBRANCH   1  26
TORSDOF 3
ENDMDL
MODEL 4
REMARK VINA RESULT:      -7.0      9.136     11.088
REMARK  Name = 
REMARK  5 active torsions:
REMARK  status: ('A' for Active; 'I' for Inactive)
REMARK    1  A    between atoms: C_1  and  C_2
REMARK    2  A    between atoms: C_2  and  N_3
REMARK    3  A    between atoms: C_7  and  C_8
REMARK    4  A    between atoms: N_27  and  S_28
REMARK    5  A    between atoms: S_28  and  C_29
REMARK                            x       y       z     vdW  Elec       q    Type
REMARK                         _______ _______ _______ _____ _____    ______ ____
ROOT
ATOM      1  N   UNL     1       7.152  14.249  23.624  0.00  0.00    +0.000 N 
ATOM      2  C   UNL     1       5.847  14.856  23.849  0.00  0.00    +0.000 C 
ATOM      3  C   UNL     1       5.256  15.227  22.491  0.00  0.00    +0.000 C 
ATOM      4  C   UNL     1       6.392  14.975  21.581  0.00  0.00    +0.000 A 
ATOM      5  C   UNL     1       6.513  15.138  20.221  0.00  0.00    +0.000 A 
ATOM      6  N   UNL     1       7.645  14.788  19.586  0.00  0.00    +0.000 NA
ATOM      7  C   UNL     1       8.641  14.241  20.300  0.00  0.00    +0.000 A 
ATOM      8  N   UNL     1       9.767  13.841  19.632  0.00  0.00    +0.000 N 
ATOM      9  C   UNL     1       9.909  14.018  18.189  0.00  0.00    +0.000 C 
ATOM     10  C   UNL     1      10.097  12.665  17.485  0.00  0.00    +0.000 C 
ATOM     11  O   UNL     1      11.138  11.884  18.098  0.00  0.00    +0.000 OA
ATOM     12  C   UNL     1      10.826  11.638  19.479  0.00  0.00    +0.000 C 
ATOM     13  C   UNL     1      10.716  12.948  20.278  0.00  0.00    +0.000 C 
ATOM     14  N   UNL     1       8.555  14.024  21.628  0.00  0.00    +0.000 NA
ATOM     15  C   UNL     1       7.448  14.414  22.256  0.00  0.00    +0.000 A 
ENDROOT
BRANCH   5  16
ATOM     16  C   UNL     1       5.426  15.612  19.374  0.00  0.00    +0.000 A 
ATOM     17  C   UNL     1       4.919  14.900  18.310  0.00  0.00    +0.000 A 
ATOM     18  N   UNL     1       3.990  15.343  17.444  0.00  0.00    +0.000 NA
ATOM     19  C   UNL     1       3.528  16.573  17.663  0.00  0.00    +0.000 A 
ATOM     20  N   UNL     1       2.625  17.078  16.758  0.00  0.00    +0.000 N 
ATOM     21  N   UNL     1       3.884  17.346  18.694  0.00  0.00    +0.000 NA
ATOM     22  C   UNL     1       4.827  16.848  19.527  0.00  0.00    +0.000 A 
ATOM     23  H   UNL     1       2.152  16.332  16.270  0.00  0.00    +0.000 HD
ATOM     24  H   UNL     1       2.063  17.805  17.177  0.00  0.00    +0.000 HD
ENDBRANCH   5  16
BRANCH   1  26
ATOM     25  C   UNL     1       9.115  15.024  24.905  0.00  0.00    +0.000 C 
ATOM     26  C   UNL     1       8.100  13.891  24.695  0.00  0.00    +0.000 C 
ATOM     27  C   UNL     1       8.854  12.568  24.437  0.00  0.00    +0.000 C 
ATOM     28  C   UNL     1       7.820  11.498  24.772  0.00  0.00    +0.000 C 
ATOM     29  N   UNL     1       7.064  12.057  25.910  0.00  0.00    +0.000 NA
ATOM     30  C   UNL     1       7.373  13.521  26.006  0.00  0.00    +0.000 C 
BRANCH  29  31
ATOM     31  S   UNL     1       5.450  11.606  26.102  0.00  0.00    +0.000 S 
ATOM     32  C   UNL     1       5.511  10.539  27.533  0.00  0.00    +0.000 C 
ATOM     33  O   UNL     1       4.703  12.781  26.465  0.00  0.00    +0.000 OA
ATOM     34  O   UNL     1       5.069  10.780  24.958  0.00  0.00    +0.000 OA
ENDBRANCH  29  31
ENDBRANCH   1  26
TORSDOF 3
ENDMDL
MODEL 5
REMARK VINA RESULT:      -6.9      3.650      5.060
REMARK  Name = 
REMARK  5 active torsions:
REMARK  status: ('A' for Active; 'I' for Inactive)
REMARK    1  A    between atoms: C_1  and  C_2
REMARK    2  A    between atoms: C_2  and  N_3
REMARK    3  A    between atoms: C_7  and  C_8
REMARK    4  A    between atoms: N_27  and  S_28
REMARK    5  A    between atoms: S_28  and  C_29
REMARK                            x       y       z     vdW  Elec       q    Type
REMARK                         _______ _______ _______ _____ _____    ______ ____
ROOT
ATOM      1  N   UNL     1      -1.346  12.647  22.853  0.00  0.00    +0.000 N 
ATOM      2  C   UNL     1      -1.692  11.303  23.295  0.00  0.00    +0.000 C 
ATOM      3  C   UNL     1      -0.856  10.310  22.491  0.00  0.00    +0.000 C 
ATOM      4  C   UNL     1      -0.223  11.185  21.484  0.00  0.00    +0.000 A 
ATOM      5  C   UNL     1       0.633  10.895  20.446  0.00  0.00    +0.000 A 
ATOM      6  N   UNL     1       1.135  11.876  19.677  0.00  0.00    +0.000 NA
ATOM      7  C   UNL     1       0.813  13.148  19.963  0.00  0.00    +0.000 A 
ATOM      8  N   UNL     1       1.373  14.139  19.204  0.00  0.00    +0.000 N 
ATOM      9  C   UNL     1       2.275  13.842  18.094  0.00  0.00    +0.000 C 
ATOM     10  C   UNL     1       3.657  14.473  18.325  0.00  0.00    +0.000 C 
ATOM     11  O   UNL     1       3.558  15.868  18.659  0.00  0.00    +0.000 OA
ATOM     12  C   UNL     1       2.775  16.039  19.853  0.00  0.00    +0.000 C 
ATOM     13  C   UNL     1       1.341  15.517  19.669  0.00  0.00    +0.000 C 
ATOM     14  N   UNL     1       0.011  13.484  20.993  0.00  0.00    +0.000 NA
ATOM     15  C   UNL     1      -0.516  12.504  21.723  0.00  0.00    +0.000 A 
ENDROOT
BRANCH   5  16
ATOM     16  C   UNL     1       1.114   9.550  20.161  0.00  0.00    +0.000 A 
ATOM     17  C   UNL     1       1.202   8.552  21.107  0.00  0.00    +0.000 A 
ATOM     18  N   UNL     1       1.734   7.332  20.910  0.00  0.00    +0.000 NA
ATOM     19  C   UNL     1       2.196   7.089  19.684  0.00  0.00    +0.000 A 
ATOM     20  N   UNL     1       2.804   5.875  19.469  0.00  0.00    +0.000 N 
ATOM     21  N   UNL     1       2.114   7.940  18.658  0.00  0.00    +0.000 NA
ATOM     22  C   UNL     1       1.574   9.154  18.920  0.00  0.00    +0.000 A 
ATOM     23  H   UNL     1       2.491   5.193  20.145  0.00  0.00    +0.000 HD
ATOM     24  H   UNL     1       2.774   5.624  18.491  0.00  0.00    +0.000 HD
ENDBRANCH   5  16
BRANCH   1  26
ATOM     25  C   UNL     1      -1.032  14.905  23.801  0.00  0.00    +0.000 C 
ATOM     26  C   UNL     1      -2.043  13.871  23.287  0.00  0.00    +0.000 C 
ATOM     27  C   UNL     1      -3.115  13.621  24.371  0.00  0.00    +0.000 C 
ATOM     28  C   UNL     1      -4.286  13.037  23.586  0.00  0.00    +0.000 C 
ATOM     29  N   UNL     1      -4.262  13.756  22.296  0.00  0.00    +0.000 NA
ATOM     30  C   UNL     1      -2.939  14.450  22.170  0.00  0.00    +0.000 C 
BRANCH  29  31
ATOM     31  S   UNL     1      -4.839  12.963  20.923  0.00  0.00    +0.000 S 
ATOM     32  C   UNL     1      -5.718  14.260  20.066  0.00  0.00    +0.000 C 
ATOM     33  O   UNL     1      -3.706  12.595  20.116  0.00  0.00    +0.000 OA
ATOM     34  O   UNL     1      -5.827  11.974  21.351  0.00  0.00    +0.000 OA
ENDBRANCH  29  31
ENDBRANCH   1  26
TORSDOF 3
ENDMDL
MODEL 6
REMARK VINA RESULT:      -6.9      8.838     11.744
REMARK  Name = 
REMARK  5 active torsions:
REMARK  status: ('A' for Active; 'I' for Inactive)
REMARK    1  A    between atoms: C_1  and  C_2
REMARK    2  A    between atoms: C_2  and  N_3
REMARK    3  A    between atoms: C_7  and  C_8
REMARK    4  A    between atoms: N_27  and  S_28
REMARK    5  A    between atoms: S_28  and  C_29
REMARK                            x       y       z     vdW  Elec       q    Type
REMARK                         _______ _______ _______ _____ _____    ______ ____
ROOT
ATOM      1  N   UNL     1       7.652  15.486  23.250  0.00  0.00    +0.000 N 
ATOM      2  C   UNL     1       9.078  15.199  23.339  0.00  0.00    +0.000 C 
ATOM      3  C   UNL     1       9.578  14.849  21.939  0.00  0.00    +0.000 C 
ATOM      4  C   UNL     1       8.319  14.769  21.172  0.00  0.00    +0.000 A 
ATOM      5  C   UNL     1       8.083  14.467  19.851  0.00  0.00    +0.000 A 
ATOM      6  N   UNL     1       6.837  14.508  19.349  0.00  0.00    +0.000 NA
ATOM      7  C   UNL     1       5.831  14.885  20.154  0.00  0.00    +0.000 A 
ATOM      8  N   UNL     1       4.576  14.972  19.616  0.00  0.00    +0.000 N 
ATOM      9  C   UNL     1       4.313  14.644  18.217  0.00  0.00    +0.000 C 
ATOM     10  C   UNL     1       3.746  15.859  17.465  0.00  0.00    +0.000 C 
ATOM     11  O   UNL     1       2.632  16.445  18.161  0.00  0.00    +0.000 OA
ATOM     12  C   UNL     1       3.035  16.871  19.474  0.00  0.00    +0.000 C 
ATOM     13  C   UNL     1       3.528  15.690  20.326  0.00  0.00    +0.000 C 
ATOM     14  N   UNL     1       6.016  15.229  21.444  0.00  0.00    +0.000 NA
ATOM     15  C   UNL     1       7.247  15.144  21.944  0.00  0.00    +0.000 A 
ENDROOT
BRANCH   5  16
ATOM     16  C   UNL     1       9.145  14.169  18.900  0.00  0.00    +0.000 A 
ATOM     17  C   UNL     1       9.914  15.133  18.285  0.00  0.00    +0.000 A 
ATOM     18  N   UNL     1      10.833  14.908  17.328  0.00  0.00    +0.000 NA
ATOM     19  C   UNL     1      11.002  13.636  16.970  0.00  0.00    +0.000 A 
ATOM     20  N   UNL     1      11.887  13.381  15.949  0.00  0.00    +0.000 N 
ATOM     21  N   UNL     1      10.372  12.598  17.529  0.00  0.00    +0.000 NA
ATOM     22  C   UNL     1       9.456  12.889  18.482  0.00  0.00    +0.000 A 
ATOM     23  H   UNL     1      12.559  14.129  15.862  0.00  0.00    +0.000 HD
ATOM     24  H   UNL     1      12.233  12.433  16.000  0.00  0.00    +0.000 HD
ENDBRANCH   5  16
BRANCH   1  26
ATOM     25  C   UNL     1       6.282  17.174  24.420  0.00  0.00    +0.000 C 
ATOM     26  C   UNL     1       6.777  15.721  24.413  0.00  0.00    +0.000 C 
ATOM     27  C   UNL     1       7.449  15.402  25.767  0.00  0.00    +0.000 C 
ATOM     28  C   UNL     1       7.404  13.879  25.836  0.00  0.00    +0.000 C 
ATOM     29  N   UNL     1       6.120  13.516  25.203  0.00  0.00    +0.000 NA
ATOM     30  C   UNL     1       5.606  14.716  24.465  0.00  0.00    +0.000 C 
BRANCH  29  31
ATOM     31  S   UNL     1       6.003  12.029  24.416  0.00  0.00    +0.000 S 
ATOM     32  C   UNL     1       7.714  11.548  24.237  0.00  0.00    +0.000 C 
ATOM     33  O   UNL     1       5.379  11.099  25.319  0.00  0.00    +0.000 OA
ATOM     34  O   UNL     1       5.474  12.265  23.074  0.00  0.00    +0.000 OA
ENDBRANCH  29  31
ENDBRANCH   1  26
TORSDOF 3
ENDMDL
MODEL 7
REMARK VINA RESULT:      -6.8      8.376     10.740
REMARK  Name = 
REMARK  5 active torsions:
REMARK  status: ('A' for Active; 'I' for Inactive)
REMARK    1  A    between atoms: C_1  and  C_2
REMARK    2  A    between atoms: C_2  and  N_3
REMARK    3  A    between atoms: C_7  and  C_8
REMARK    4  A    between atoms: N_27  and  S_28
REMARK    5  A    between atoms: S_28  and  C_29
REMARK                            x       y       z     vdW  Elec       q    Type
REMARK                         _______ _______ _______ _____ _____    ______ ____
ROOT
ATOM      1  N   UNL     1       6.781  14.240  23.953  0.00  0.00    +0.000 N 
ATOM      2  C   UNL     1       5.512  14.869  24.295  0.00  0.00    +0.000 C 
ATOM      3  C   UNL     1       4.809  15.255  22.995  0.00  0.00    +0.000 C 
ATOM      4  C   UNL     1       5.855  14.986  21.988  0.00  0.00    +0.000 A 
ATOM      5  C   UNL     1       5.857  15.151  20.622  0.00  0.00    +0.000 A 
ATOM      6  N   UNL     1       6.921  14.783  19.888  0.00  0.00    +0.000 NA
ATOM      7  C   UNL     1       7.967  14.216  20.509  0.00  0.00    +0.000 A 
ATOM      8  N   UNL     1       9.021  13.798  19.743  0.00  0.00    +0.000 N 
ATOM      9  C   UNL     1       9.038  13.978  18.293  0.00  0.00    +0.000 C 
ATOM     10  C   UNL     1       9.138  12.624  17.573  0.00  0.00    +0.000 C 
ATOM     11  O   UNL     1      10.215  11.823  18.089  0.00  0.00    +0.000 OA
ATOM     12  C   UNL     1      10.024  11.578  19.493  0.00  0.00    +0.000 C 
ATOM     13  C   UNL     1      10.009  12.887  20.300  0.00  0.00    +0.000 C 
ATOM     14  N   UNL     1       7.996  13.997  21.839  0.00  0.00    +0.000 NA
ATOM     15  C   UNL     1       6.957  14.404  22.564  0.00  0.00    +0.000 A 
ENDROOT
BRANCH   5  16
ATOM     16  C   UNL     1       4.708  15.647  19.877  0.00  0.00    +0.000 A 
ATOM     17  C   UNL     1       4.392  16.983  19.757  0.00  0.00    +0.000 A 
ATOM     18  N   UNL     1       3.288  17.476  19.167  0.00  0.00    +0.000 NA
ATOM     19  C   UNL     1       2.451  16.576  18.653  0.00  0.00    +0.000 A 
ATOM     20  N   UNL     1       1.283  17.046  18.101  0.00  0.00    +0.000 N 
ATOM     21  N   UNL     1       2.665  15.258  18.640  0.00  0.00    +0.000 NA
ATOM     22  C   UNL     1       3.791  14.822  19.254  0.00  0.00    +0.000 A 
ATOM     23  H   UNL     1       1.381  18.011  17.822  0.00  0.00    +0.000 HD
ATOM     24  H   UNL     1       0.913  16.391  17.427  0.00  0.00    +0.000 HD
ENDBRANCH   5  16
BRANCH   1  26
ATOM     25  C   UNL     1       8.818  15.009  25.116  0.00  0.00    +0.000 C 
ATOM     26  C   UNL     1       7.814  13.862  24.934  0.00  0.00    +0.000 C 
ATOM     27  C   UNL     1       8.574  12.569  24.565  0.00  0.00    +0.000 C 
ATOM     28  C   UNL     1       7.591  11.462  24.931  0.00  0.00    +0.000 C 
ATOM     29  N   UNL     1       6.911  11.956  26.145  0.00  0.00    +0.000 NA
ATOM     30  C   UNL     1       7.196  13.422  26.279  0.00  0.00    +0.000 C 
BRANCH  29  31
ATOM     31  S   UNL     1       5.326  11.459  26.438  0.00  0.00    +0.000 S 
ATOM     32  C   UNL     1       5.518  10.332  27.810  0.00  0.00    +0.000 C 
ATOM     33  O   UNL     1       4.585  12.599  26.909  0.00  0.00    +0.000 OA
ATOM     34  O   UNL     1       4.876  10.675  25.289  0.00  0.00    +0.000 OA
ENDBRANCH  29  31
ENDBRANCH   1  26
TORSDOF 3
ENDMDL
MODEL 8
REMARK VINA RESULT:      -6.8      8.617     10.847
REMARK  Name = 
REMARK  5 active torsions:
REMARK  status: ('A' for Active; 'I' for Inactive)
REMARK    1  A    between atoms: C_1  and  C_2
REMARK    2  A    between atoms: C_2  and  N_3
REMARK    3  A    between atoms: C_7  and  C_8
REMARK    4  A    between atoms: N_27  and  S_28
REMARK    5  A    between atoms: S_28  and  C_29
REMARK                            x       y       z     vdW  Elec       q    Type
REMARK                         _______ _______ _______ _____ _____    ______ ____
ROOT
ATOM      1  N   UNL     1       5.356  16.693  20.388  0.00  0.00    +0.000 N 
ATOM      2  C   UNL     1       5.733  17.130  19.050  0.00  0.00    +0.000 C 
ATOM      3  C   UNL     1       6.945  16.313  18.610  0.00  0.00    +0.000 C 
ATOM      4  C   UNL     1       7.296  15.589  19.849  0.00  0.00    +0.000 A 
ATOM      5  C   UNL     1       8.314  14.704  20.120  0.00  0.00    +0.000 A 
ATOM      6  N   UNL     1       8.409  14.117  21.325  0.00  0.00    +0.000 NA
ATOM      7  C   UNL     1       7.470  14.383  22.248  0.00  0.00    +0.000 A 
ATOM      8  N   UNL     1       7.551  13.738  23.452  0.00  0.00    +0.000 N 
ATOM      9  C   UNL     1       8.633  12.805  23.754  0.00  0.00    +0.000 C 
ATOM     10  C   UNL     1       8.080  11.403  24.056  0.00  0.00    +0.000 C 
ATOM     11  O   UNL     1       7.032  11.442  25.039  0.00  0.00    +0.000 OA
ATOM     12  C   UNL     1       5.949  12.267  24.578  0.00  0.00    +0.000 C 
ATOM     13  C   UNL     1       6.402  13.718  24.344  0.00  0.00    +0.000 C 
ATOM     14  N   UNL     1       6.432  15.212  22.016  0.00  0.00    +0.000 NA
ATOM     15  C   UNL     1       6.370  15.822  20.834  0.00  0.00    +0.000 A 
ENDROOT
BRANCH   5  16
ATOM     16  C   UNL     1       9.292  14.283  19.126  0.00  0.00    +0.000 A 
ATOM     17  C   UNL     1      10.380  15.042  18.754  0.00  0.00    +0.000 A 
ATOM     18  N   UNL     1      11.247  14.738  17.771  0.00  0.00    +0.000 NA
ATOM     19  C   UNL     1      11.018  13.596  17.125  0.00  0.00    +0.000 A 
ATOM     20  N   UNL     1      11.848  13.290  16.073  0.00  0.00    +0.000 N 
ATOM     21  N   UNL     1      10.041  12.735  17.425  0.00  0.00    +0.000 NA
ATOM     22  C   UNL     1       9.198  13.100  18.420  0.00  0.00    +0.000 A 
ATOM     23  H   UNL     1      12.732  13.767  16.164  0.00  0.00    +0.000 HD
ATOM     24  H   UNL     1      11.859  12.294  15.900  0.00  0.00    +0.000 HD
ENDBRANCH   5  16
BRANCH   1  26
ATOM     25  C   UNL     1       4.965  18.385  22.142  0.00  0.00    +0.000 C 
ATOM     26  C   UNL     1       4.323  17.343  21.215  0.00  0.00    +0.000 C 
ATOM     27  C   UNL     1       3.491  16.352  22.058  0.00  0.00    +0.000 C 
ATOM     28  C   UNL     1       2.526  15.745  21.043  0.00  0.00    +0.000 C 
ATOM     29  N   UNL     1       2.202  16.859  20.130  0.00  0.00    +0.000 NA
ATOM     30  C   UNL     1       3.198  17.957  20.355  0.00  0.00    +0.000 C 
BRANCH  29  31
ATOM     31  S   UNL     1       1.816  16.498  18.528  0.00  0.00    +0.000 S 
ATOM     32  C   UNL     1       2.713  14.980  18.244  0.00  0.00    +0.000 C 
ATOM     33  O   UNL     1       0.410  16.193  18.470  0.00  0.00    +0.000 OA
ATOM     34  O   UNL     1       2.412  17.523  17.674  0.00  0.00    +0.000 OA
ENDBRANCH  29  31
ENDBRANCH   1  26
TORSDOF 3
ENDMDL
MODEL 9
REMARK VINA RESULT:      -6.7      9.564     13.636
REMARK  Name = 
REMARK  5 active torsions:
REMARK  status: ('A' for Active; 'I' for Inactive)
REMARK    1  A    between atoms: C_1  and  C_2
REMARK    2  A    between atoms: C_2  and  N_3
REMARK    3  A    between atoms: C_7  and  C_8
REMARK    4  A    between atoms: N_27  and  S_28
REMARK    5  A    between atoms: S_28  and  C_29
REMARK                            x       y       z     vdW  Elec       q    Type
REMARK                         _______ _______ _______ _____ _____    ______ ____
ROOT
ATOM      1  N   UNL     1       9.769  13.284  19.831  0.00  0.00    +0.000 N 
ATOM      2  C   UNL     1      10.446  12.453  20.818  0.00  0.00    +0.000 C 
ATOM      3  C   UNL     1       9.499  12.255  21.999  0.00  0.00    +0.000 C 
ATOM      4  C   UNL     1       8.397  13.182  21.670  0.00  0.00    +0.000 A 
ATOM      5  C   UNL     1       7.241  13.489  22.349  0.00  0.00    +0.000 A 
ATOM      6  N   UNL     1       6.341  14.337  21.824  0.00  0.00    +0.000 NA
ATOM      7  C   UNL     1       6.574  14.851  20.605  0.00  0.00    +0.000 A 
ATOM      8  N   UNL     1       5.624  15.671  20.061  0.00  0.00    +0.000 N 
ATOM      9  C   UNL     1       4.398  16.012  20.778  0.00  0.00    +0.000 C 
ATOM     10  C   UNL     1       3.159  15.548  19.997  0.00  0.00    +0.000 C 
ATOM     11  O   UNL     1       3.193  15.990  18.629  0.00  0.00    +0.000 OA
ATOM     12  C   UNL     1       4.363  15.476  17.970  0.00  0.00    +0.000 C 
ATOM     13  C   UNL     1       5.655  15.975  18.638  0.00  0.00    +0.000 C 
ATOM     14  N   UNL     1       7.672  14.549  19.884  0.00  0.00    +0.000 NA
ATOM     15  C   UNL     1       8.579  13.743  20.430  0.00  0.00    +0.000 A 
ENDROOT
BRANCH   5  16
ATOM     16  C   UNL     1       6.874  12.873  23.617  0.00  0.00    +0.000 A 
ATOM     17  C   UNL     1       7.413  13.240  24.831  0.00  0.00    +0.000 A 
ATOM     18  N   UNL     1       7.179  12.631  26.007  0.00  0.00    +0.000 NA
ATOM     19  C   UNL     1       6.343  11.595  25.971  0.00  0.00    +0.000 A 
ATOM     20  N   UNL     1       6.134  10.912  27.146  0.00  0.00    +0.000 N 
ATOM     21  N   UNL     1       5.700  11.175  24.878  0.00  0.00    +0.000 NA
ATOM     22  C   UNL     1       5.981  11.824  23.724  0.00  0.00    +0.000 A 
ATOM     23  H   UNL     1       6.338  11.498  27.942  0.00  0.00    +0.000 HD
ATOM     24  H   UNL     1       5.249  10.425  27.128  0.00  0.00    +0.000 HD
ENDBRANCH   5  16
BRANCH   1  26
ATOM     25  C   UNL     1       9.956  13.025  17.383  0.00  0.00    +0.000 C 
ATOM     26  C   UNL     1      10.409  13.820  18.616  0.00  0.00    +0.000 C 
ATOM     27  C   UNL     1      11.953  13.827  18.682  0.00  0.00    +0.000 C 
ATOM     28  C   UNL     1      12.266  15.026  19.571  0.00  0.00    +0.000 C 
ATOM     29  N   UNL     1      11.237  16.025  19.220  0.00  0.00    +0.000 NA
ATOM     30  C   UNL     1      10.153  15.333  18.449  0.00  0.00    +0.000 C 
BRANCH  29  31
ATOM     31  S   UNL     1      10.747  17.124  20.403  0.00  0.00    +0.000 S 
ATOM     32  C   UNL     1      10.865  16.160  21.902  0.00  0.00    +0.000 C 
ATOM     33  O   UNL     1      11.737  18.166  20.475  0.00  0.00    +0.000 OA
ATOM     34  O   UNL     1       9.333  17.424  20.187  0.00  0.00    +0.000 OA
ENDBRANCH  29  31
ENDBRANCH   1  26
TORSDOF 3
ENDMDL
