MODEL 1
REMARK VINA RESULT:      -6.8      0.000      0.000
REMARK  Name = 
REMARK  6 active torsions:
REMARK  status: ('A' for Active; 'I' for Inactive)
REMARK    1  A    between atoms: C_1  and  C_2
REMARK    2  A    between atoms: C_4  and  N_5
REMARK    3  A    between atoms: N_6  and  C_7
REMARK    4  A    between atoms: C_10  and  O_11
REMARK    5  A    between atoms: C_15  and  C_16
REMARK    6  A    between atoms: C_17  and  O_18
REMARK                            x       y       z     vdW  Elec       q    Type
REMARK                         _______ _______ _______ _____ _____    ______ ____
ROOT
ATOM      1  C   UNL     1      11.279  13.198  16.707  0.00  0.00    +0.000 C 
ATOM      2  C   UNL     1      10.646  12.581  17.922  0.00  0.00    +0.000 A 
ATOM      3  C   UNL     1      10.147  11.269  17.871  0.00  0.00    +0.000 A 
ATOM      4  C   UNL     1       9.553  10.672  18.993  0.00  0.00    +0.000 A 
ATOM      5  C   UNL     1       9.451  11.428  20.169  0.00  0.00    +0.000 A 
ATOM      6  C   UNL     1       9.941  12.745  20.253  0.00  0.00    +0.000 A 
ATOM      7  C   UNL     1       9.818  13.495  21.547  0.00  0.00    +0.000 C 
ATOM      8  C   UNL     1      10.535  13.306  19.116  0.00  0.00    +0.000 A 
ENDROOT
BRANCH   4   9
ATOM      9  N   UNL     1       8.998   9.371  18.993  0.00  0.00    +0.000 NA
ATOM     10  N   UNL     1       8.309   9.135  17.978  0.00  0.00    +0.000 NA
BRANCH  10  11
ATOM     11  C   UNL     1       7.746   7.838  17.984  0.00  0.00    +0.000 A 
ATOM     12  C   UNL     1       6.753   7.405  17.088  0.00  0.00    +0.000 A 
ATOM     13  C   UNL     1       6.260   6.095  17.130  0.00  0.00    +0.000 A 
ATOM     14  C   UNL     1       6.769   5.203  18.066  0.00  0.00    +0.000 A 
ATOM     15  C   UNL     1       7.760   5.599  18.955  0.00  0.00    +0.000 A 
ATOM     16  C   UNL     1       8.246   6.911  18.910  0.00  0.00    +0.000 A 
BRANCH  14  17
ATOM     17  O   UNL     1       6.319   3.918  18.143  0.00  0.00    +0.000 OA
ATOM     18  H   UNL     1       5.750   3.739  17.378  0.00  0.00    +0.000 HD
ENDBRANCH  14  17
ENDBRANCH  10  11
ENDBRANCH   4   9
BRANCH   8  19
ATOM     19  O   UNL     1      11.030  14.583  19.114  0.00  0.00    +0.000 OA
ATOM     20  H   UNL     1      11.727  14.667  19.783  0.00  0.00    +0.000 HD
ENDBRANCH   8  19
TORSDOF 4
ENDMDL
MODEL 2
REMARK VINA RESULT:      -6.6      0.259      2.346
REMARK  Name = 
REMARK  6 active torsions:
REMARK  status: ('A' for Active; 'I' for Inactive)
REMARK    1  A    between atoms: C_1  and  C_2
REMARK    2  A    between atoms: C_4  and  N_5
REMARK    3  A    between atoms: N_6  and  C_7
REMARK    4  A    between atoms: C_10  and  O_11
REMARK    5  A    between atoms: C_15  and  C_16
REMARK    6  A    between atoms: C_17  and  O_18
REMARK                            x       y       z     vdW  Elec       q    Type
REMARK                         _______ _______ _______ _____ _____    ______ ____
ROOT
ATOM      1  C   UNL     1       9.748  13.494  21.629  0.00  0.00    +0.000 C 
ATOM      2  C   UNL     1       9.831  12.700  20.355  0.00  0.00    +0.000 A 
ATOM      3  C   UNL     1       9.331  11.388  20.305  0.00  0.00    +0.000 A 
ATOM      4  C   UNL     1       9.395  10.630  19.127  0.00  0.00    +0.000 A 
ATOM      5  C   UNL     1       9.992  11.209  17.998  0.00  0.00    +0.000 A 
ATOM      6  C   UNL     1      10.502  12.521  18.015  0.00  0.00    +0.000 A 
ATOM      7  C   UNL     1      11.113  13.090  16.768  0.00  0.00    +0.000 C 
ATOM      8  C   UNL     1      10.413  13.252  19.206  0.00  0.00    +0.000 A 
ENDROOT
BRANCH   4   9
ATOM      9  N   UNL     1       8.945   9.293  19.024  0.00  0.00    +0.000 NA
ATOM     10  N   UNL     1       8.204   9.103  18.036  0.00  0.00    +0.000 NA
BRANCH  10  11
ATOM     11  C   UNL     1       7.745   7.769  17.941  0.00  0.00    +0.000 A 
ATOM     12  C   UNL     1       8.182   6.724  18.773  0.00  0.00    +0.000 A 
ATOM     13  C   UNL     1       7.663   5.429  18.644  0.00  0.00    +0.000 A 
ATOM     14  C   UNL     1       6.692   5.175  17.683  0.00  0.00    +0.000 A 
ATOM     15  C   UNL     1       6.231   6.192  16.856  0.00  0.00    +0.000 A 
ATOM     16  C   UNL     1       6.756   7.482  16.988  0.00  0.00    +0.000 A 
BRANCH  14  17
ATOM     17  O   UNL     1       6.158   3.931  17.522  0.00  0.00    +0.000 OA
ATOM     18  H   UNL     1       5.248   3.935  17.860  0.00  0.00    +0.000 HD
ENDBRANCH  14  17
ENDBRANCH  10  11
ENDBRANCH   4   9
BRANCH   8  19
ATOM     19  O   UNL     1      10.892  14.531  19.307  0.00  0.00    +0.000 OA
ATOM     20  H   UNL     1      11.384  14.762  18.504  0.00  0.00    +0.000 HD
ENDBRANCH   8  19
TORSDOF 4
ENDMDL
MODEL 3
REMARK VINA RESULT:      -6.6      0.314      2.055
REMARK  Name = 
REMARK  6 active torsions:
REMARK  status: ('A' for Active; 'I' for Inactive)
REMARK    1  A    between atoms: C_1  and  C_2
REMARK    2  A    between atoms: C_4  and  N_5
REMARK    3  A    between atoms: N_6  and  C_7
REMARK    4  A    between atoms: C_10  and  O_11
REMARK    5  A    between atoms: C_15  and  C_16
REMARK    6  A    between atoms: C_17  and  O_18
REMARK                            x       y       z     vdW  Elec       q    Type
REMARK                         _______ _______ _______ _____ _____    ______ ____
ROOT
ATOM      1  C   UNL     1       9.504  13.917  21.329  0.00  0.00    +0.000 C 
ATOM      2  C   UNL     1       9.742  13.040  20.132  0.00  0.00    +0.000 A 
ATOM      3  C   UNL     1       9.269  11.717  20.118  0.00  0.00    +0.000 A 
ATOM      4  C   UNL     1       9.478  10.881  19.012  0.00  0.00    +0.000 A 
ATOM      5  C   UNL     1      10.191  11.395  17.918  0.00  0.00    +0.000 A 
ATOM      6  C   UNL     1      10.677  12.715  17.901  0.00  0.00    +0.000 A 
ATOM      7  C   UNL     1      11.417  13.211  16.693  0.00  0.00    +0.000 C 
ATOM      8  C   UNL     1      10.443  13.524  19.020  0.00  0.00    +0.000 A 
ENDROOT
BRANCH   4   9
ATOM      9  N   UNL     1       9.061   9.531  18.953  0.00  0.00    +0.000 NA
ATOM     10  N   UNL     1       8.269   9.305  18.013  0.00  0.00    +0.000 NA
BRANCH  10  11
ATOM     11  C   UNL     1       7.844   7.958  17.963  0.00  0.00    +0.000 A 
ATOM     12  C   UNL     1       7.063   7.416  16.928  0.00  0.00    +0.000 A 
ATOM     13  C   UNL     1       6.702   6.062  16.924  0.00  0.00    +0.000 A 
ATOM     14  C   UNL     1       7.133   5.238  17.956  0.00  0.00    +0.000 A 
ATOM     15  C   UNL     1       7.918   5.743  18.985  0.00  0.00    +0.000 A 
ATOM     16  C   UNL     1       8.272   7.096  18.984  0.00  0.00    +0.000 A 
BRANCH  14  17
ATOM     17  O   UNL     1       6.807   3.914  17.993  0.00  0.00    +0.000 OA
ATOM     18  H   UNL     1       5.906   3.804  17.649  0.00  0.00    +0.000 HD
ENDBRANCH  14  17
ENDBRANCH  10  11
ENDBRANCH   4   9
BRANCH   8  19
ATOM     19  O   UNL     1      10.889  14.817  19.083  0.00  0.00    +0.000 OA
ATOM     20  H   UNL     1      11.786  14.838  19.451  0.00  0.00    +0.000 HD
ENDBRANCH   8  19
TORSDOF 4
ENDMDL
MODEL 4
REMARK VINA RESULT:      -6.5      7.234      9.574
REMARK  Name = 
REMARK  6 active torsions:
REMARK  status: ('A' for Active; 'I' for Inactive)
REMARK    1  A    between atoms: C_1  and  C_2
REMARK    2  A    between atoms: C_4  and  N_5
REMARK    3  A    between atoms: N_6  and  C_7
REMARK    4  A    between atoms: C_10  and  O_11
REMARK    5  A    between atoms: C_15  and  C_16
REMARK    6  A    between atoms: C_17  and  O_18
REMARK                            x       y       z     vdW  Elec       q    Type
REMARK                         _______ _______ _______ _____ _____    ______ ____
ROOT
ATOM      1  C   UNL     1       4.866   6.076  16.343  0.00  0.00    +0.000 C 
ATOM      2  C   UNL     1       4.197   5.607  17.605  0.00  0.00    +0.000 A 
ATOM      3  C   UNL     1       3.389   6.485  18.347  0.00  0.00    +0.000 A 
ATOM      4  C   UNL     1       2.754   6.069  19.525  0.00  0.00    +0.000 A 
ATOM      5  C   UNL     1       2.960   4.751  19.959  0.00  0.00    +0.000 A 
ATOM      6  C   UNL     1       3.762   3.847  19.239  0.00  0.00    +0.000 A 
ATOM      7  C   UNL     1       3.929   2.445  19.747  0.00  0.00    +0.000 C 
ATOM      8  C   UNL     1       4.375   4.295  18.062  0.00  0.00    +0.000 A 
ENDROOT
BRANCH   4   9
ATOM      9  N   UNL     1       1.961   6.915  20.335  0.00  0.00    +0.000 NA
ATOM     10  N   UNL     1       1.862   8.074  19.878  0.00  0.00    +0.000 NA
BRANCH  10  11
ATOM     11  C   UNL     1       1.079   8.922  20.694  0.00  0.00    +0.000 A 
ATOM     12  C   UNL     1       0.205   9.905  20.199  0.00  0.00    +0.000 A 
ATOM     13  C   UNL     1      -0.566  10.693  21.063  0.00  0.00    +0.000 A 
ATOM     14  C   UNL     1      -0.474  10.491  22.435  0.00  0.00    +0.000 A 
ATOM     15  C   UNL     1       0.371   9.518  22.953  0.00  0.00    +0.000 A 
ATOM     16  C   UNL     1       1.140   8.737  22.083  0.00  0.00    +0.000 A 
BRANCH  14  17
ATOM     17  O   UNL     1      -1.206  11.233  23.314  0.00  0.00    +0.000 OA
ATOM     18  H   UNL     1      -1.352  10.711  24.119  0.00  0.00    +0.000 HD
ENDBRANCH  14  17
ENDBRANCH  10  11
ENDBRANCH   4   9
BRANCH   8  19
ATOM     19  O   UNL     1       5.176   3.479  17.309  0.00  0.00    +0.000 OA
ATOM     20  H   UNL     1       4.634   2.818  16.850  0.00  0.00    +0.000 HD
ENDBRANCH   8  19
TORSDOF 4
ENDMDL
MODEL 5
REMARK VINA RESULT:      -6.5      6.850      8.204
REMARK  Name = 
REMARK  6 active torsions:
REMARK  status: ('A' for Active; 'I' for Inactive)
REMARK    1  A    between atoms: C_1  and  C_2
REMARK    2  A    between atoms: C_4  and  N_5
REMARK    3  A    between atoms: N_6  and  C_7
REMARK    4  A    between atoms: C_10  and  O_11
REMARK    5  A    between atoms: C_15  and  C_16
REMARK    6  A    between atoms: C_17  and  O_18
REMARK                            x       y       z     vdW  Elec       q    Type
REMARK                         _______ _______ _______ _____ _____    ______ ____
ROOT
ATOM      1  C   UNL     1      -0.055   9.497  23.329  0.00  0.00    +0.000 C 
ATOM      2  C   UNL     1       0.380   9.447  21.892  0.00  0.00    +0.000 A 
ATOM      3  C   UNL     1       1.123   8.354  21.415  0.00  0.00    +0.000 A 
ATOM      4  C   UNL     1       1.539   8.285  20.077  0.00  0.00    +0.000 A 
ATOM      5  C   UNL     1       1.210   9.349  19.225  0.00  0.00    +0.000 A 
ATOM      6  C   UNL     1       0.467  10.458  19.672  0.00  0.00    +0.000 A 
ATOM      7  C   UNL     1       0.132  11.556  18.706  0.00  0.00    +0.000 C 
ATOM      8  C   UNL     1       0.061  10.489  21.012  0.00  0.00    +0.000 A 
ENDROOT
BRANCH   4   9
ATOM      9  N   UNL     1       2.321   7.232  19.548  0.00  0.00    +0.000 NA
ATOM     10  N   UNL     1       2.645   7.417  18.355  0.00  0.00    +0.000 NA
BRANCH  10  11
ATOM     11  C   UNL     1       3.417   6.359  17.824  0.00  0.00    +0.000 A 
ATOM     12  C   UNL     1       3.041   5.005  17.875  0.00  0.00    +0.000 A 
ATOM     13  C   UNL     1       3.839   4.008  17.301  0.00  0.00    +0.000 A 
ATOM     14  C   UNL     1       5.019   4.363  16.659  0.00  0.00    +0.000 A 
ATOM     15  C   UNL     1       5.410   5.694  16.581  0.00  0.00    +0.000 A 
ATOM     16  C   UNL     1       4.609   6.685  17.160  0.00  0.00    +0.000 A 
BRANCH  14  17
ATOM     17  O   UNL     1       5.827   3.427  16.085  0.00  0.00    +0.000 OA
ATOM     18  H   UNL     1       6.654   3.374  16.591  0.00  0.00    +0.000 HD
ENDBRANCH  14  17
ENDBRANCH  10  11
ENDBRANCH   4   9
BRANCH   8  19
ATOM     19  O   UNL     1      -0.658  11.535  21.525  0.00  0.00    +0.000 OA
ATOM     20  H   UNL     1      -0.939  12.124  20.808  0.00  0.00    +0.000 HD
ENDBRANCH   8  19
TORSDOF 4
ENDMDL
MODEL 6
REMARK VINA RESULT:      -6.5      6.862      8.280
REMARK  Name = 
REMARK  6 active torsions:
REMARK  status: ('A' for Active; 'I' for Inactive)
REMARK    1  A    between atoms: C_1  and  C_2
REMARK    2  A    between atoms: C_4  and  N_5
REMARK    3  A    between atoms: N_6  and  C_7
REMARK    4  A    between atoms: C_10  and  O_11
REMARK    5  A    between atoms: C_15  and  C_16
REMARK    6  A    between atoms: C_17  and  O_18
REMARK                            x       y       z     vdW  Elec       q    Type
REMARK                         _______ _______ _______ _____ _____    ______ ____
ROOT
ATOM      1  C   UNL     1      -0.093   9.485  23.355  0.00  0.00    +0.000 C 
ATOM      2  C   UNL     1       0.315   9.464  21.909  0.00  0.00    +0.000 A 
ATOM      3  C   UNL     1       1.123   8.426  21.417  0.00  0.00    +0.000 A 
ATOM      4  C   UNL     1       1.515   8.384  20.070  0.00  0.00    +0.000 A 
ATOM      5  C   UNL     1       1.093   9.421  19.225  0.00  0.00    +0.000 A 
ATOM      6  C   UNL     1       0.283  10.475  19.687  0.00  0.00    +0.000 A 
ATOM      7  C   UNL     1      -0.149  11.545  18.728  0.00  0.00    +0.000 C 
ATOM      8  C   UNL     1      -0.095  10.480  21.036  0.00  0.00    +0.000 A 
ENDROOT
BRANCH   4   9
ATOM      9  N   UNL     1       2.357   7.388  19.525  0.00  0.00    +0.000 NA
ATOM     10  N   UNL     1       2.522   7.510  18.292  0.00  0.00    +0.000 NA
BRANCH  10  11
ATOM     11  C   UNL     1       3.355   6.507  17.746  0.00  0.00    +0.000 A 
ATOM     12  C   UNL     1       4.592   6.760  17.127  0.00  0.00    +0.000 A 
ATOM     13  C   UNL     1       5.383   5.716  16.633  0.00  0.00    +0.000 A 
ATOM     14  C   UNL     1       4.944   4.404  16.767  0.00  0.00    +0.000 A 
ATOM     15  C   UNL     1       3.733   4.123  17.386  0.00  0.00    +0.000 A 
ATOM     16  C   UNL     1       2.946   5.172  17.874  0.00  0.00    +0.000 A 
BRANCH  14  17
ATOM     17  O   UNL     1       5.681   3.356  16.302  0.00  0.00    +0.000 OA
ATOM     18  H   UNL     1       6.387   3.162  16.939  0.00  0.00    +0.000 HD
ENDBRANCH  14  17
ENDBRANCH  10  11
ENDBRANCH   4   9
BRANCH   8  19
ATOM     19  O   UNL     1      -0.876  11.473  21.563  0.00  0.00    +0.000 OA
ATOM     20  H   UNL     1      -0.979  11.338  22.518  0.00  0.00    +0.000 HD
ENDBRANCH   8  19
TORSDOF 4
ENDMDL
MODEL 7
REMARK VINA RESULT:      -6.5      7.817     10.285
REMARK  Name = 
REMARK  6 active torsions:
REMARK  status: ('A' for Active; 'I' for Inactive)
REMARK    1  A    between atoms: C_1  and  C_2
REMARK    2  A    between atoms: C_4  and  N_5
REMARK    3  A    between atoms: N_6  and  C_7
REMARK    4  A    between atoms: C_10  and  O_11
REMARK    5  A    between atoms: C_15  and  C_16
REMARK    6  A    between atoms: C_17  and  O_18
REMARK                            x       y       z     vdW  Elec       q    Type
REMARK                         _______ _______ _______ _____ _____    ______ ____
ROOT
ATOM      1  C   UNL     1       4.149   4.785  17.102  0.00  0.00    +0.000 C 
ATOM      2  C   UNL     1       3.379   5.044  18.366  0.00  0.00    +0.000 A 
ATOM      3  C   UNL     1       2.853   6.321  18.625  0.00  0.00    +0.000 A 
ATOM      4  C   UNL     1       2.130   6.586  19.797  0.00  0.00    +0.000 A 
ATOM      5  C   UNL     1       1.960   5.544  20.721  0.00  0.00    +0.000 A 
ATOM      6  C   UNL     1       2.474   4.254  20.491  0.00  0.00    +0.000 A 
ATOM      7  C   UNL     1       2.243   3.178  21.511  0.00  0.00    +0.000 C 
ATOM      8  C   UNL     1       3.184   4.024  19.306  0.00  0.00    +0.000 A 
ENDROOT
BRANCH   4   9
ATOM      9  N   UNL     1       1.609   7.857  20.132  0.00  0.00    +0.000 NA
ATOM     10  N   UNL     1       1.111   7.894  21.277  0.00  0.00    +0.000 NA
BRANCH  10  11
ATOM     11  C   UNL     1       0.581   9.163  21.607  0.00  0.00    +0.000 A 
ATOM     12  C   UNL     1       0.817  10.333  20.865  0.00  0.00    +0.000 A 
ATOM     13  C   UNL     1       0.234  11.553  21.230  0.00  0.00    +0.000 A 
ATOM     14  C   UNL     1      -0.600  11.607  22.340  0.00  0.00    +0.000 A 
ATOM     15  C   UNL     1      -0.862  10.464  23.084  0.00  0.00    +0.000 A 
ATOM     16  C   UNL     1      -0.274   9.249  22.715  0.00  0.00    +0.000 A 
BRANCH  14  17
ATOM     17  O   UNL     1      -1.189  12.772  22.732  0.00  0.00    +0.000 OA
ATOM     18  H   UNL     1      -1.620  12.632  23.590  0.00  0.00    +0.000 HD
ENDBRANCH  14  17
ENDBRANCH  10  11
ENDBRANCH   4   9
BRANCH   8  19
ATOM     19  O   UNL     1       3.722   2.800  19.012  0.00  0.00    +0.000 OA
ATOM     20  H   UNL     1       3.939   2.329  19.832  0.00  0.00    +0.000 HD
ENDBRANCH   8  19
TORSDOF 4
ENDMDL
MODEL 8
REMARK VINA RESULT:      -6.4      7.259     10.095
REMARK  Name = 
REMARK  6 active torsions:
REMARK  status: ('A' for Active; 'I' for Inactive)
REMARK    1  A    between atoms: C_1  and  C_2
REMARK    2  A    between atoms: C_4  and  N_5
REMARK    3  A    between atoms: N_6  and  C_7
REMARK    4  A    between atoms: C_10  and  O_11
REMARK    5  A    between atoms: C_15  and  C_16
REMARK    6  A    between atoms: C_17  and  O_18
REMARK                            x       y       z     vdW  Elec       q    Type
REMARK                         _______ _______ _______ _____ _____    ______ ____
ROOT
ATOM      1  C   UNL     1       5.798   4.882  18.286  0.00  0.00    +0.000 C 
ATOM      2  C   UNL     1       4.368   4.749  18.730  0.00  0.00    +0.000 A 
ATOM      3  C   UNL     1       3.742   5.798  19.425  0.00  0.00    +0.000 A 
ATOM      4  C   UNL     1       2.409   5.697  19.847  0.00  0.00    +0.000 A 
ATOM      5  C   UNL     1       1.715   4.509  19.574  0.00  0.00    +0.000 A 
ATOM      6  C   UNL     1       2.314   3.440  18.881  0.00  0.00    +0.000 A 
ATOM      7  C   UNL     1       1.512   2.201  18.605  0.00  0.00    +0.000 C 
ATOM      8  C   UNL     1       3.644   3.579  18.467  0.00  0.00    +0.000 A 
ENDROOT
BRANCH   4   9
ATOM      9  N   UNL     1       1.737   6.701  20.582  0.00  0.00    +0.000 NA
ATOM     10  N   UNL     1       1.739   7.810  20.007  0.00  0.00    +0.000 NA
BRANCH  10  11
ATOM     11  C   UNL     1       1.076   8.816  20.748  0.00  0.00    +0.000 A 
ATOM     12  C   UNL     1       0.529   9.980  20.182  0.00  0.00    +0.000 A 
ATOM     13  C   UNL     1      -0.143  10.923  20.971  0.00  0.00    +0.000 A 
ATOM     14  C   UNL     1      -0.280  10.699  22.335  0.00  0.00    +0.000 A 
ATOM     15  C   UNL     1       0.239   9.550  22.920  0.00  0.00    +0.000 A 
ATOM     16  C   UNL     1       0.911   8.614  22.126  0.00  0.00    +0.000 A 
BRANCH  14  17
ATOM     17  O   UNL     1      -0.926  11.588  23.142  0.00  0.00    +0.000 OA
ATOM     18  H   UNL     1      -0.392  12.396  23.208  0.00  0.00    +0.000 HD
ENDBRANCH  14  17
ENDBRANCH  10  11
ENDBRANCH   4   9
BRANCH   8  19
ATOM     19  O   UNL     1       4.299   2.583  17.793  0.00  0.00    +0.000 OA
ATOM     20  H   UNL     1       3.936   2.497  16.898  0.00  0.00    +0.000 HD
ENDBRANCH   8  19
TORSDOF 4
ENDMDL
MODEL 9
REMARK VINA RESULT:      -6.4      6.917      8.043
REMARK  Name = 
REMARK  6 active torsions:
REMARK  status: ('A' for Active; 'I' for Inactive)
REMARK    1  A    between atoms: C_1  and  C_2
REMARK    2  A    between atoms: C_4  and  N_5
REMARK    3  A    between atoms: N_6  and  C_7
REMARK    4  A    between atoms: C_10  and  O_11
REMARK    5  A    between atoms: C_15  and  C_16
REMARK    6  A    between atoms: C_17  and  O_18
REMARK                            x       y       z     vdW  Elec       q    Type
REMARK                         _______ _______ _______ _____ _____    ______ ____
ROOT
ATOM      1  C   UNL     1      -0.332  11.524  18.621  0.00  0.00    +0.000 C 
ATOM      2  C   UNL     1       0.201  10.457  19.535  0.00  0.00    +0.000 A 
ATOM      3  C   UNL     1       1.012   9.429  19.026  0.00  0.00    +0.000 A 
ATOM      4  C   UNL     1       1.522   8.423  19.860  0.00  0.00    +0.000 A 
ATOM      5  C   UNL     1       1.186   8.459  21.221  0.00  0.00    +0.000 A 
ATOM      6  C   UNL     1       0.376   9.475  21.763  0.00  0.00    +0.000 A 
ATOM      7  C   UNL     1       0.067   9.467  23.231  0.00  0.00    +0.000 C 
ATOM      8  C   UNL     1      -0.109  10.467  20.901  0.00  0.00    +0.000 A 
ENDROOT
BRANCH   4   9
ATOM      9  N   UNL     1       2.310   7.342  19.402  0.00  0.00    +0.000 NA
ATOM     10  N   UNL     1       2.737   7.509  18.240  0.00  0.00    +0.000 NA
BRANCH  10  11
ATOM     11  C   UNL     1       3.516   6.423  17.778  0.00  0.00    +0.000 A 
ATOM     12  C   UNL     1       3.264   5.079  18.102  0.00  0.00    +0.000 A 
ATOM     13  C   UNL     1       4.058   4.047  17.585  0.00  0.00    +0.000 A 
ATOM     14  C   UNL     1       5.107   4.357  16.728  0.00  0.00    +0.000 A 
ATOM     15  C   UNL     1       5.371   5.675  16.379  0.00  0.00    +0.000 A 
ATOM     16  C   UNL     1       4.576   6.701  16.902  0.00  0.00    +0.000 A 
BRANCH  14  17
ATOM     17  O   UNL     1       5.905   3.386  16.200  0.00  0.00    +0.000 OA
ATOM     18  H   UNL     1       5.863   3.438  15.232  0.00  0.00    +0.000 HD
ENDBRANCH  14  17
ENDBRANCH  10  11
ENDBRANCH   4   9
BRANCH   8  19
ATOM     19  O   UNL     1      -0.907  11.485  21.348  0.00  0.00    +0.000 OA
ATOM     20  H   UNL     1      -1.143  12.068  20.610  0.00  0.00    +0.000 HD
ENDBRANCH   8  19
TORSDOF 4
ENDMDL
