MODEL 1
REMARK VINA RESULT:      -8.2      0.000      0.000
REMARK  Name = 
REMARK  7 active torsions:
REMARK  status: ('A' for Active; 'I' for Inactive)
REMARK    1  A    between atoms: C_1  and  N_2
REMARK    2  A    between atoms: C_8  and  N_9
REMARK    3  A    between atoms: N_9  and  C_10
REMARK    4  A    between atoms: C_10  and  C_11
REMARK    5  A    between atoms: C_11  and  O_13
REMARK    6  A    between atoms: C_14  and  C_15
REMARK    7  A    between atoms: N_17  and  C_18
REMARK                            x       y       z     vdW  Elec       q    Type
REMARK                         _______ _______ _______ _____ _____    ______ ____
ROOT
ATOM      1  C   UNL     1      -2.052  16.344  23.530  0.00  0.00    +0.000 C 
ATOM      2  N   UNL     1      -2.221  14.972  23.052  0.00  0.00    +0.000 NA
ATOM      3  C   UNL     1      -0.981  14.194  23.267  0.00  0.00    +0.000 C 
ATOM      4  C   UNL     1      -1.084  12.752  22.720  0.00  0.00    +0.000 C 
ATOM      5  N   UNL     1      -1.447  12.788  21.298  0.00  0.00    +0.000 N 
ATOM      6  C   UNL     1      -0.998  11.876  20.394  0.00  0.00    +0.000 A 
ATOM      7  N   UNL     1      -1.633  11.544  19.288  0.00  0.00    +0.000 NA
ATOM      8  C   UNL     1      -0.880  10.688  18.522  0.00  0.00    +0.000 A 
ATOM      9  C   UNL     1       0.355  10.343  19.039  0.00  0.00    +0.000 A 
ATOM     10  S   UNL     1       0.550  11.115  20.551  0.00  0.00    +0.000 S 
ATOM     11  C   UNL     1      -2.685  13.530  21.029  0.00  0.00    +0.000 C 
ATOM     12  C   UNL     1      -2.563  14.961  21.608  0.00  0.00    +0.000 C 
ENDROOT
BRANCH   9  13
ATOM     13  C   UNL     1       1.373   9.469  18.475  0.00  0.00    +0.000 C 
ATOM     14  O   UNL     1       1.926   9.749  17.414  0.00  0.00    +0.000 OA
ATOM     15  N   UNL     1       1.619   8.309  19.202  0.00  0.00    +0.000 N 
ATOM     16  H   UNL     1       1.011   8.156  19.996  0.00  0.00    +0.000 HD
BRANCH  15  17
ATOM     17  C   UNL     1       2.530   7.275  18.903  0.00  0.00    +0.000 A 
ATOM     18  C   UNL     1       2.710   6.156  19.711  0.00  0.00    +0.000 A 
ATOM     19  C   UNL     1       3.663   5.189  19.380  0.00  0.00    +0.000 A 
ATOM     20  C   UNL     1       4.466   5.326  18.242  0.00  0.00    +0.000 A 
ATOM     21  C   UNL     1       5.455   4.380  17.932  0.00  0.00    +0.000 A 
ATOM     22  C   UNL     1       6.264   4.536  16.806  0.00  0.00    +0.000 A 
ATOM     23  C   UNL     1       6.085   5.635  15.972  0.00  0.00    +0.000 A 
ATOM     24  C   UNL     1       5.095   6.579  16.261  0.00  0.00    +0.000 A 
ATOM     25  C   UNL     1       4.277   6.443  17.398  0.00  0.00    +0.000 A 
ATOM     26  C   UNL     1       3.294   7.395  17.731  0.00  0.00    +0.000 A 
ENDBRANCH  15  17
ENDBRANCH   9  13
BRANCH   8  27
ATOM     27  N   UNL     1      -1.372  10.247  17.334  0.00  0.00    +0.000 N 
ATOM     28  H   UNL     1      -0.807   9.513  16.886  0.00  0.00    +0.000 HD
BRANCH  27  29
ATOM     29  C   UNL     1      -2.811   9.950  17.252  0.00  0.00    +0.000 C 
BRANCH  29  30
ATOM     30  C   UNL     1      -3.524  11.063  16.492  0.00  0.00    +0.000 C 
ATOM     31  O   UNL     1      -4.600  11.549  16.807  0.00  0.00    +0.000 OA
BRANCH  30  32
ATOM     32  O   UNL     1      -2.814  11.481  15.411  0.00  0.00    +0.000 OA
ATOM     33  H   UNL     1      -1.967  10.985  15.365  0.00  0.00    +0.000 HD
ENDBRANCH  30  32
ENDBRANCH  29  30
ENDBRANCH  27  29
ENDBRANCH   8  27
TORSDOF 6
ENDMDL
MODEL 2
REMARK VINA RESULT:      -8.1      3.860      6.256
REMARK  Name = 
REMARK  7 active torsions:
REMARK  status: ('A' for Active; 'I' for Inactive)
REMARK    1  A    between atoms: C_1  and  N_2
REMARK    2  A    between atoms: C_8  and  N_9
REMARK    3  A    between atoms: N_9  and  C_10
REMARK    4  A    between atoms: C_10  and  C_11
REMARK    5  A    between atoms: C_11  and  O_13
REMARK    6  A    between atoms: C_14  and  C_15
REMARK    7  A    between atoms: N_17  and  C_18
REMARK                            x       y       z     vdW  Elec       q    Type
REMARK                         _______ _______ _______ _____ _____    ______ ____
ROOT
ATOM      1  C   UNL     1      -2.063  12.425  19.387  0.00  0.00    +0.000 C 
ATOM      2  N   UNL     1      -0.810  11.777  19.769  0.00  0.00    +0.000 NA
ATOM      3  C   UNL     1       0.043  11.560  18.579  0.00  0.00    +0.000 C 
ATOM      4  C   UNL     1       1.355  10.818  18.919  0.00  0.00    +0.000 C 
ATOM      5  N   UNL     1       1.047   9.548  19.588  0.00  0.00    +0.000 N 
ATOM      6  C   UNL     1       1.796   8.424  19.428  0.00  0.00    +0.000 A 
ATOM      7  N   UNL     1       1.895   7.460  20.321  0.00  0.00    +0.000 NA
ATOM      8  C   UNL     1       2.626   6.404  19.831  0.00  0.00    +0.000 A 
ATOM      9  C   UNL     1       3.109   6.550  18.543  0.00  0.00    +0.000 A 
ATOM     10  S   UNL     1       2.633   8.082  17.951  0.00  0.00    +0.000 S 
ATOM     11  C   UNL     1       0.220   9.707  20.791  0.00  0.00    +0.000 C 
ATOM     12  C   UNL     1      -1.076  10.474  20.427  0.00  0.00    +0.000 C 
ENDROOT
BRANCH   9  13
ATOM     13  C   UNL     1       3.904   5.624  17.752  0.00  0.00    +0.000 C 
ATOM     14  O   UNL     1       4.069   4.463  18.119  0.00  0.00    +0.000 OA
ATOM     15  N   UNL     1       4.475   6.169  16.607  0.00  0.00    +0.000 N 
ATOM     16  H   UNL     1       4.346   7.166  16.489  0.00  0.00    +0.000 HD
BRANCH  15  17
ATOM     17  C   UNL     1       5.299   5.530  15.659  0.00  0.00    +0.000 A 
ATOM     18  C   UNL     1       6.683   5.668  15.629  0.00  0.00    +0.000 A 
ATOM     19  C   UNL     1       7.437   5.043  14.633  0.00  0.00    +0.000 A 
ATOM     20  C   UNL     1       6.823   4.275  13.637  0.00  0.00    +0.000 A 
ATOM     21  C   UNL     1       7.573   3.683  12.609  0.00  0.00    +0.000 A 
ATOM     22  C   UNL     1       6.948   2.937  11.609  0.00  0.00    +0.000 A 
ATOM     23  C   UNL     1       5.568   2.766  11.633  0.00  0.00    +0.000 A 
ATOM     24  C   UNL     1       4.810   3.339  12.657  0.00  0.00    +0.000 A 
ATOM     25  C   UNL     1       5.421   4.104  13.668  0.00  0.00    +0.000 A 
ATOM     26  C   UNL     1       4.678   4.719  14.694  0.00  0.00    +0.000 A 
ENDBRANCH  15  17
ENDBRANCH   9  13
BRANCH   8  27
ATOM     27  N   UNL     1       2.824   5.309  20.611  0.00  0.00    +0.000 N 
ATOM     28  H   UNL     1       3.370   5.488  21.464  0.00  0.00    +0.000 HD
BRANCH  27  29
ATOM     29  C   UNL     1       1.669   4.436  20.879  0.00  0.00    +0.000 C 
BRANCH  29  30
ATOM     30  C   UNL     1       2.153   3.024  21.190  0.00  0.00    +0.000 C 
ATOM     31  O   UNL     1       1.752   2.334  22.115  0.00  0.00    +0.000 OA
BRANCH  30  32
ATOM     32  O   UNL     1       3.086   2.594  20.300  0.00  0.00    +0.000 OA
ATOM     33  H   UNL     1       3.967   2.574  20.735  0.00  0.00    +0.000 HD
ENDBRANCH  30  32
ENDBRANCH  29  30
ENDBRANCH  27  29
ENDBRANCH   8  27
TORSDOF 6
ENDMDL
MODEL 3
REMARK VINA RESULT:      -7.9      2.758      3.972
REMARK  Name = 
REMARK  7 active torsions:
REMARK  status: ('A' for Active; 'I' for Inactive)
REMARK    1  A    between atoms: C_1  and  N_2
REMARK    2  A    between atoms: C_8  and  N_9
REMARK    3  A    between atoms: N_9  and  C_10
REMARK    4  A    between atoms: C_10  and  C_11
REMARK    5  A    between atoms: C_11  and  O_13
REMARK    6  A    between atoms: C_14  and  C_15
REMARK    7  A    between atoms: N_17  and  C_18
REMARK                            x       y       z     vdW  Elec       q    Type
REMARK                         _______ _______ _______ _____ _____    ______ ____
ROOT
ATOM      1  C   UNL     1      -7.435  11.440  19.946  0.00  0.00    +0.000 C 
ATOM      2  N   UNL     1      -6.219  11.862  19.253  0.00  0.00    +0.000 NA
ATOM      3  C   UNL     1      -5.615  10.721  18.529  0.00  0.00    +0.000 C 
ATOM      4  C   UNL     1      -4.289  11.099  17.831  0.00  0.00    +0.000 C 
ATOM      5  N   UNL     1      -3.353  11.658  18.814  0.00  0.00    +0.000 N 
ATOM      6  C   UNL     1      -2.006  11.474  18.746  0.00  0.00    +0.000 A 
ATOM      7  N   UNL     1      -1.113  12.304  19.246  0.00  0.00    +0.000 NA
ATOM      8  C   UNL     1       0.157  11.795  19.126  0.00  0.00    +0.000 A 
ATOM      9  C   UNL     1       0.257  10.556  18.520  0.00  0.00    +0.000 A 
ATOM     10  S   UNL     1      -1.310  10.038  18.074  0.00  0.00    +0.000 S 
ATOM     11  C   UNL     1      -3.894  12.809  19.547  0.00  0.00    +0.000 C 
ATOM     12  C   UNL     1      -5.233  12.410  20.216  0.00  0.00    +0.000 C 
ENDROOT
BRANCH   9  13
ATOM     13  C   UNL     1       1.445   9.760  18.251  0.00  0.00    +0.000 C 
ATOM     14  O   UNL     1       2.360  10.208  17.563  0.00  0.00    +0.000 OA
ATOM     15  N   UNL     1       1.428   8.479  18.790  0.00  0.00    +0.000 N 
ATOM     16  H   UNL     1       0.563   8.207  19.239  0.00  0.00    +0.000 HD
BRANCH  15  17
ATOM     17  C   UNL     1       2.419   7.481  18.688  0.00  0.00    +0.000 A 
ATOM     18  C   UNL     1       2.643   6.521  19.670  0.00  0.00    +0.000 A 
ATOM     19  C   UNL     1       3.674   5.588  19.527  0.00  0.00    +0.000 A 
ATOM     20  C   UNL     1       4.510   5.602  18.405  0.00  0.00    +0.000 A 
ATOM     21  C   UNL     1       5.574   4.695  18.280  0.00  0.00    +0.000 A 
ATOM     22  C   UNL     1       6.415   4.732  17.167  0.00  0.00    +0.000 A 
ATOM     23  C   UNL     1       6.194   5.668  16.163  0.00  0.00    +0.000 A 
ATOM     24  C   UNL     1       5.131   6.569  16.268  0.00  0.00    +0.000 A 
ATOM     25  C   UNL     1       4.279   6.554  17.388  0.00  0.00    +0.000 A 
ATOM     26  C   UNL     1       3.219   7.471  17.534  0.00  0.00    +0.000 A 
ENDBRANCH  15  17
ENDBRANCH   9  13
BRANCH   8  27
ATOM     27  N   UNL     1       1.211  12.511  19.600  0.00  0.00    +0.000 N 
ATOM     28  H   UNL     1       2.106  12.005  19.594  0.00  0.00    +0.000 HD
BRANCH  27  29
ATOM     29  C   UNL     1       1.369  13.897  19.130  0.00  0.00    +0.000 C 
BRANCH  29  30
ATOM     30  C   UNL     1       2.671  14.030  18.347  0.00  0.00    +0.000 C 
ATOM     31  O   UNL     1       3.301  15.068  18.206  0.00  0.00    +0.000 OA
BRANCH  30  32
ATOM     32  O   UNL     1       3.076  12.844  17.822  0.00  0.00    +0.000 OA
ATOM     33  H   UNL     1       2.323  12.213  17.820  0.00  0.00    +0.000 HD
ENDBRANCH  30  32
ENDBRANCH  29  30
ENDBRANCH  27  29
ENDBRANCH   8  27
TORSDOF 6
ENDMDL
MODEL 4
REMARK VINA RESULT:      -7.8      3.229      3.878
REMARK  Name = 
REMARK  7 active torsions:
REMARK  status: ('A' for Active; 'I' for Inactive)
REMARK    1  A    between atoms: C_1  and  N_2
REMARK    2  A    between atoms: C_8  and  N_9
REMARK    3  A    between atoms: N_9  and  C_10
REMARK    4  A    between atoms: C_10  and  C_11
REMARK    5  A    between atoms: C_11  and  O_13
REMARK    6  A    between atoms: C_14  and  C_15
REMARK    7  A    between atoms: N_17  and  C_18
REMARK                            x       y       z     vdW  Elec       q    Type
REMARK                         _______ _______ _______ _____ _____    ______ ____
ROOT
ATOM      1  C   UNL     1       1.078  18.609  18.458  0.00  0.00    +0.000 C 
ATOM      2  N   UNL     1       1.392  17.364  19.158  0.00  0.00    +0.000 NA
ATOM      3  C   UNL     1       2.223  16.487  18.303  0.00  0.00    +0.000 C 
ATOM      4  C   UNL     1       2.531  15.128  18.972  0.00  0.00    +0.000 C 
ATOM      5  N   UNL     1       1.276  14.467  19.349  0.00  0.00    +0.000 N 
ATOM      6  C   UNL     1       1.110  13.116  19.319  0.00  0.00    +0.000 A 
ATOM      7  N   UNL     1       0.261  12.451  20.076  0.00  0.00    +0.000 NA
ATOM      8  C   UNL     1       0.236  11.119  19.739  0.00  0.00    +0.000 A 
ATOM      9  C   UNL     1       1.079  10.741  18.711  0.00  0.00    +0.000 A 
ATOM     10  S   UNL     1       1.941  12.116  18.176  0.00  0.00    +0.000 S 
ATOM     11  C   UNL     1       0.421  15.285  20.218  0.00  0.00    +0.000 C 
ATOM     12  C   UNL     1       0.149  16.649  19.534  0.00  0.00    +0.000 C 
ENDROOT
BRANCH   9  13
ATOM     13  C   UNL     1       1.280   9.422  18.128  0.00  0.00    +0.000 C 
ATOM     14  O   UNL     1       0.443   8.934  17.373  0.00  0.00    +0.000 OA
ATOM     15  N   UNL     1       2.444   8.774  18.527  0.00  0.00    +0.000 N 
ATOM     16  H   UNL     1       2.984   9.249  19.239  0.00  0.00    +0.000 HD
BRANCH  15  17
ATOM     17  C   UNL     1       2.899   7.495  18.147  0.00  0.00    +0.000 A 
ATOM     18  C   UNL     1       2.412   6.314  18.697  0.00  0.00    +0.000 A 
ATOM     19  C   UNL     1       2.941   5.080  18.308  0.00  0.00    +0.000 A 
ATOM     20  C   UNL     1       3.976   5.002  17.370  0.00  0.00    +0.000 A 
ATOM     21  C   UNL     1       4.540   3.767  17.011  0.00  0.00    +0.000 A 
ATOM     22  C   UNL     1       5.586   3.702  16.090  0.00  0.00    +0.000 A 
ATOM     23  C   UNL     1       6.073   4.869  15.511  0.00  0.00    +0.000 A 
ATOM     24  C   UNL     1       5.513   6.104  15.849  0.00  0.00    +0.000 A 
ATOM     25  C   UNL     1       4.465   6.190  16.784  0.00  0.00    +0.000 A 
ATOM     26  C   UNL     1       3.903   7.425  17.167  0.00  0.00    +0.000 A 
ENDBRANCH  15  17
ENDBRANCH   9  13
BRANCH   8  27
ATOM     27  N   UNL     1      -0.594  10.277  20.408  0.00  0.00    +0.000 N 
ATOM     28  H   UNL     1      -1.195   9.702  19.803  0.00  0.00    +0.000 HD
BRANCH  27  29
ATOM     29  C   UNL     1      -0.030   9.490  21.517  0.00  0.00    +0.000 C 
BRANCH  29  30
ATOM     30  C   UNL     1      -0.396  10.140  22.848  0.00  0.00    +0.000 C 
ATOM     31  O   UNL     1      -1.295  10.952  23.007  0.00  0.00    +0.000 OA
BRANCH  30  32
ATOM     32  O   UNL     1       0.390   9.700  23.866  0.00  0.00    +0.000 OA
ATOM     33  H   UNL     1      -0.107   9.759  24.711  0.00  0.00    +0.000 HD
ENDBRANCH  30  32
ENDBRANCH  29  30
ENDBRANCH  27  29
ENDBRANCH   8  27
TORSDOF 6
ENDMDL
MODEL 5
REMARK VINA RESULT:      -7.8      1.351      2.363
REMARK  Name = 
REMARK  7 active torsions:
REMARK  status: ('A' for Active; 'I' for Inactive)
REMARK    1  A    between atoms: C_1  and  N_2
REMARK    2  A    between atoms: C_8  and  N_9
REMARK    3  A    between atoms: N_9  and  C_10
REMARK    4  A    between atoms: C_10  and  C_11
REMARK    5  A    between atoms: C_11  and  O_13
REMARK    6  A    between atoms: C_14  and  C_15
REMARK    7  A    between atoms: N_17  and  C_18
REMARK                            x       y       z     vdW  Elec       q    Type
REMARK                         _______ _______ _______ _____ _____    ______ ____
ROOT
ATOM      1  C   UNL     1      -1.605  16.577  23.807  0.00  0.00    +0.000 C 
ATOM      2  N   UNL     1      -2.008  15.304  23.211  0.00  0.00    +0.000 NA
ATOM      3  C   UNL     1      -1.046  14.238  23.570  0.00  0.00    +0.000 C 
ATOM      4  C   UNL     1      -1.391  12.883  22.912  0.00  0.00    +0.000 C 
ATOM      5  N   UNL     1      -1.480  13.048  21.456  0.00  0.00    +0.000 N 
ATOM      6  C   UNL     1      -1.108  12.080  20.575  0.00  0.00    +0.000 A 
ATOM      7  N   UNL     1      -1.599  11.948  19.360  0.00  0.00    +0.000 NA
ATOM      8  C   UNL     1      -0.948  10.955  18.667  0.00  0.00    +0.000 A 
ATOM      9  C   UNL     1       0.058  10.302  19.353  0.00  0.00    +0.000 A 
ATOM     10  S   UNL     1       0.163  10.958  20.928  0.00  0.00    +0.000 S 
ATOM     11  C   UNL     1      -2.438  14.080  21.042  0.00  0.00    +0.000 C 
ATOM     12  C   UNL     1      -2.084  15.420  21.734  0.00  0.00    +0.000 C 
ENDROOT
BRANCH   9  13
ATOM     13  C   UNL     1       0.923   9.221  18.902  0.00  0.00    +0.000 C 
ATOM     14  O   UNL     1       1.258   9.133  17.723  0.00  0.00    +0.000 OA
ATOM     15  N   UNL     1       1.284   8.308  19.888  0.00  0.00    +0.000 N 
ATOM     16  H   UNL     1       0.844   8.444  20.789  0.00  0.00    +0.000 HD
BRANCH  15  17
ATOM     17  C   UNL     1       2.093   7.161  19.753  0.00  0.00    +0.000 A 
ATOM     18  C   UNL     1       3.135   7.062  18.837  0.00  0.00    +0.000 A 
ATOM     19  C   UNL     1       3.868   5.877  18.723  0.00  0.00    +0.000 A 
ATOM     20  C   UNL     1       3.568   4.763  19.515  0.00  0.00    +0.000 A 
ATOM     21  C   UNL     1       4.273   3.558  19.371  0.00  0.00    +0.000 A 
ATOM     22  C   UNL     1       3.951   2.446  20.151  0.00  0.00    +0.000 A 
ATOM     23  C   UNL     1       2.928   2.532  21.089  0.00  0.00    +0.000 A 
ATOM     24  C   UNL     1       2.225   3.729  21.252  0.00  0.00    +0.000 A 
ATOM     25  C   UNL     1       2.529   4.857  20.468  0.00  0.00    +0.000 A 
ATOM     26  C   UNL     1       1.816   6.066  20.589  0.00  0.00    +0.000 A 
ENDBRANCH  15  17
ENDBRANCH   9  13
BRANCH   8  27
ATOM     27  N   UNL     1      -1.314  10.684  17.387  0.00  0.00    +0.000 N 
ATOM     28  H   UNL     1      -1.448   9.684  17.186  0.00  0.00    +0.000 HD
BRANCH  27  29
ATOM     29  C   UNL     1      -2.378  11.505  16.785  0.00  0.00    +0.000 C 
BRANCH  29  30
ATOM     30  C   UNL     1      -3.138  10.684  15.749  0.00  0.00    +0.000 C 
ATOM     31  O   UNL     1      -2.619   9.990  14.887  0.00  0.00    +0.000 OA
BRANCH  30  32
ATOM     32  O   UNL     1      -4.484  10.793  15.896  0.00  0.00    +0.000 OA
ATOM     33  H   UNL     1      -4.769  10.281  16.685  0.00  0.00    +0.000 HD
ENDBRANCH  30  32
ENDBRANCH  29  30
ENDBRANCH  27  29
ENDBRANCH   8  27
TORSDOF 6
ENDMDL
MODEL 6
REMARK VINA RESULT:      -7.8      2.770      4.103
REMARK  Name = 
REMARK  7 active torsions:
REMARK  status: ('A' for Active; 'I' for Inactive)
REMARK    1  A    between atoms: C_1  and  N_2
REMARK    2  A    between atoms: C_8  and  N_9
REMARK    3  A    between atoms: N_9  and  C_10
REMARK    4  A    between atoms: C_10  and  C_11
REMARK    5  A    between atoms: C_11  and  O_13
REMARK    6  A    between atoms: C_14  and  C_15
REMARK    7  A    between atoms: N_17  and  C_18
REMARK                            x       y       z     vdW  Elec       q    Type
REMARK                         _______ _______ _______ _____ _____    ______ ____
ROOT
ATOM      1  C   UNL     1      -7.298  11.694  18.396  0.00  0.00    +0.000 C 
ATOM      2  N   UNL     1      -5.908  12.148  18.396  0.00  0.00    +0.000 NA
ATOM      3  C   UNL     1      -5.140  11.460  17.335  0.00  0.00    +0.000 C 
ATOM      4  C   UNL     1      -3.646  11.858  17.333  0.00  0.00    +0.000 C 
ATOM      5  N   UNL     1      -3.065  11.605  18.657  0.00  0.00    +0.000 N 
ATOM      6  C   UNL     1      -1.778  11.204  18.839  0.00  0.00    +0.000 A 
ATOM      7  N   UNL     1      -1.069  11.437  19.925  0.00  0.00    +0.000 NA
ATOM      8  C   UNL     1       0.152  10.811  19.863  0.00  0.00    +0.000 A 
ATOM      9  C   UNL     1       0.402  10.088  18.712  0.00  0.00    +0.000 A 
ATOM     10  S   UNL     1      -0.949  10.226  17.675  0.00  0.00    +0.000 S 
ATOM     11  C   UNL     1      -3.777  12.283  19.748  0.00  0.00    +0.000 C 
ATOM     12  C   UNL     1      -5.274  11.886  19.711  0.00  0.00    +0.000 C 
ENDROOT
BRANCH   9  13
ATOM     13  C   UNL     1       1.586   9.322  18.350  0.00  0.00    +0.000 C 
ATOM     14  O   UNL     1       2.396   9.761  17.538  0.00  0.00    +0.000 OA
ATOM     15  N   UNL     1       1.686   8.074  18.956  0.00  0.00    +0.000 N 
ATOM     16  H   UNL     1       0.890   7.797  19.516  0.00  0.00    +0.000 HD
BRANCH  15  17
ATOM     17  C   UNL     1       2.701   7.109  18.793  0.00  0.00    +0.000 A 
ATOM     18  C   UNL     1       2.952   6.099  19.716  0.00  0.00    +0.000 A 
ATOM     19  C   UNL     1       4.005   5.202  19.516  0.00  0.00    +0.000 A 
ATOM     20  C   UNL     1       4.838   5.304  18.396  0.00  0.00    +0.000 A 
ATOM     21  C   UNL     1       5.924   4.433  18.216  0.00  0.00    +0.000 A 
ATOM     22  C   UNL     1       6.760   4.557  17.106  0.00  0.00    +0.000 A 
ATOM     23  C   UNL     1       6.514   5.545  16.160  0.00  0.00    +0.000 A 
ATOM     24  C   UNL     1       5.429   6.412  16.319  0.00  0.00    +0.000 A 
ATOM     25  C   UNL     1       4.581   6.309  17.437  0.00  0.00    +0.000 A 
ATOM     26  C   UNL     1       3.498   7.188  17.640  0.00  0.00    +0.000 A 
ENDBRANCH  15  17
ENDBRANCH   9  13
BRANCH   8  27
ATOM     27  N   UNL     1       1.017  10.930  20.905  0.00  0.00    +0.000 N 
ATOM     28  H   UNL     1       0.920  11.802  21.441  0.00  0.00    +0.000 HD
BRANCH  27  29
ATOM     29  C   UNL     1       1.194   9.767  21.790  0.00  0.00    +0.000 C 
BRANCH  29  30
ATOM     30  C   UNL     1      -0.096   9.506  22.561  0.00  0.00    +0.000 C 
ATOM     31  O   UNL     1      -0.833   8.546  22.389  0.00  0.00    +0.000 OA
BRANCH  30  32
ATOM     32  O   UNL     1      -0.339  10.465  23.493  0.00  0.00    +0.000 OA
ATOM     33  H   UNL     1      -1.070  11.043  23.183  0.00  0.00    +0.000 HD
ENDBRANCH  30  32
ENDBRANCH  29  30
ENDBRANCH  27  29
ENDBRANCH   8  27
TORSDOF 6
ENDMDL
MODEL 7
REMARK VINA RESULT:      -7.7      0.972      1.591
REMARK  Name = 
REMARK  7 active torsions:
REMARK  status: ('A' for Active; 'I' for Inactive)
REMARK    1  A    between atoms: C_1  and  N_2
REMARK    2  A    between atoms: C_8  and  N_9
REMARK    3  A    between atoms: N_9  and  C_10
REMARK    4  A    between atoms: C_10  and  C_11
REMARK    5  A    between atoms: C_11  and  O_13
REMARK    6  A    between atoms: C_14  and  C_15
REMARK    7  A    between atoms: N_17  and  C_18
REMARK                            x       y       z     vdW  Elec       q    Type
REMARK                         _______ _______ _______ _____ _____    ______ ____
ROOT
ATOM      1  C   UNL     1      -2.288  16.038  23.994  0.00  0.00    +0.000 C 
ATOM      2  N   UNL     1      -2.428  14.730  23.355  0.00  0.00    +0.000 NA
ATOM      3  C   UNL     1      -1.191  13.937  23.526  0.00  0.00    +0.000 C 
ATOM      4  C   UNL     1      -1.263  12.567  22.812  0.00  0.00    +0.000 C 
ATOM      5  N   UNL     1      -1.574  12.766  21.391  0.00  0.00    +0.000 N 
ATOM      6  C   UNL     1      -1.084  11.966  20.405  0.00  0.00    +0.000 A 
ATOM      7  N   UNL     1      -1.676  11.762  19.246  0.00  0.00    +0.000 NA
ATOM      8  C   UNL     1      -0.889  11.003  18.415  0.00  0.00    +0.000 A 
ATOM      9  C   UNL     1       0.329  10.604  18.934  0.00  0.00    +0.000 A 
ATOM     10  S   UNL     1       0.463  11.198  20.531  0.00  0.00    +0.000 S 
ATOM     11  C   UNL     1      -2.806  13.529  21.163  0.00  0.00    +0.000 C 
ATOM     12  C   UNL     1      -2.717  14.885  21.908  0.00  0.00    +0.000 C 
ENDROOT
BRANCH   9  13
ATOM     13  C   UNL     1       1.374   9.805  18.311  0.00  0.00    +0.000 C 
ATOM     14  O   UNL     1       2.078  10.273  17.419  0.00  0.00    +0.000 OA
ATOM     15  N   UNL     1       1.468   8.497  18.775  0.00  0.00    +0.000 N 
ATOM     16  H   UNL     1       0.751   8.216  19.432  0.00  0.00    +0.000 HD
BRANCH  15  17
ATOM     17  C   UNL     1       2.363   7.491  18.358  0.00  0.00    +0.000 A 
ATOM     18  C   UNL     1       3.582   7.757  17.743  0.00  0.00    +0.000 A 
ATOM     19  C   UNL     1       4.402   6.710  17.313  0.00  0.00    +0.000 A 
ATOM     20  C   UNL     1       4.015   5.375  17.476  0.00  0.00    +0.000 A 
ATOM     21  C   UNL     1       4.816   4.323  17.004  0.00  0.00    +0.000 A 
ATOM     22  C   UNL     1       4.411   2.997  17.154  0.00  0.00    +0.000 A 
ATOM     23  C   UNL     1       3.206   2.708  17.787  0.00  0.00    +0.000 A 
ATOM     24  C   UNL     1       2.405   3.744  18.273  0.00  0.00    +0.000 A 
ATOM     25  C   UNL     1       2.792   5.088  18.122  0.00  0.00    +0.000 A 
ATOM     26  C   UNL     1       1.989   6.154  18.574  0.00  0.00    +0.000 A 
ENDBRANCH  15  17
ENDBRANCH   9  13
BRANCH   8  27
ATOM     27  N   UNL     1      -1.333  10.700  17.166  0.00  0.00    +0.000 N 
ATOM     28  H   UNL     1      -0.637  10.236  16.568  0.00  0.00    +0.000 HD
BRANCH  27  29
ATOM     29  C   UNL     1      -2.660  10.076  17.040  0.00  0.00    +0.000 C 
BRANCH  29  30
ATOM     30  C   UNL     1      -3.434  10.735  15.903  0.00  0.00    +0.000 C 
ATOM     31  O   UNL     1      -4.343  11.539  16.047  0.00  0.00    +0.000 OA
BRANCH  30  32
ATOM     32  O   UNL     1      -2.985  10.341  14.682  0.00  0.00    +0.000 OA
ATOM     33  H   UNL     1      -3.313  10.964  13.997  0.00  0.00    +0.000 HD
ENDBRANCH  30  32
ENDBRANCH  29  30
ENDBRANCH  27  29
ENDBRANCH   8  27
TORSDOF 6
ENDMDL
MODEL 8
REMARK VINA RESULT:      -7.7      2.552      3.269
REMARK  Name = 
REMARK  7 active torsions:
REMARK  status: ('A' for Active; 'I' for Inactive)
REMARK    1  A    between atoms: C_1  and  N_2
REMARK    2  A    between atoms: C_8  and  N_9
REMARK    3  A    between atoms: N_9  and  C_10
REMARK    4  A    between atoms: C_10  and  C_11
REMARK    5  A    between atoms: C_11  and  O_13
REMARK    6  A    between atoms: C_14  and  C_15
REMARK    7  A    between atoms: N_17  and  C_18
REMARK                            x       y       z     vdW  Elec       q    Type
REMARK                         _______ _______ _______ _____ _____    ______ ____
ROOT
ATOM      1  C   UNL     1       1.883  18.328  19.487  0.00  0.00    +0.000 C 
ATOM      2  N   UNL     1       0.987  17.197  19.719  0.00  0.00    +0.000 NA
ATOM      3  C   UNL     1       1.592  16.246  20.678  0.00  0.00    +0.000 C 
ATOM      4  C   UNL     1       0.712  14.997  20.910  0.00  0.00    +0.000 C 
ATOM      5  N   UNL     1       0.428  14.346  19.625  0.00  0.00    +0.000 N 
ATOM      6  C   UNL     1       0.300  12.998  19.488  0.00  0.00    +0.000 A 
ATOM      7  N   UNL     1      -0.413  12.408  18.550  0.00  0.00    +0.000 NA
ATOM      8  C   UNL     1      -0.256  11.043  18.595  0.00  0.00    +0.000 A 
ATOM      9  C   UNL     1       0.584  10.564  19.583  0.00  0.00    +0.000 A 
ATOM     10  S   UNL     1       1.172  11.888  20.490  0.00  0.00    +0.000 S 
ATOM     11  C   UNL     1      -0.196  15.240  18.642  0.00  0.00    +0.000 C 
ATOM     12  C   UNL     1       0.695  16.493  18.447  0.00  0.00    +0.000 C 
ENDROOT
BRANCH   9  13
ATOM     13  C   UNL     1       0.951   9.189  19.886  0.00  0.00    +0.000 C 
ATOM     14  O   UNL     1       0.495   8.618  20.874  0.00  0.00    +0.000 OA
ATOM     15  N   UNL     1       1.867   8.619  19.008  0.00  0.00    +0.000 N 
ATOM     16  H   UNL     1       2.241   9.242  18.304  0.00  0.00    +0.000 HD
BRANCH  15  17
ATOM     17  C   UNL     1       2.417   7.322  19.049  0.00  0.00    +0.000 A 
ATOM     18  C   UNL     1       3.285   6.827  18.082  0.00  0.00    +0.000 A 
ATOM     19  C   UNL     1       3.758   5.514  18.158  0.00  0.00    +0.000 A 
ATOM     20  C   UNL     1       3.363   4.663  19.197  0.00  0.00    +0.000 A 
ATOM     21  C   UNL     1       3.800   3.330  19.251  0.00  0.00    +0.000 A 
ATOM     22  C   UNL     1       3.384   2.485  20.280  0.00  0.00    +0.000 A 
ATOM     23  C   UNL     1       2.534   2.966  21.270  0.00  0.00    +0.000 A 
ATOM     24  C   UNL     1       2.101   4.294  21.236  0.00  0.00    +0.000 A 
ATOM     25  C   UNL     1       2.502   5.159  20.201  0.00  0.00    +0.000 A 
ATOM     26  C   UNL     1       2.055   6.493  20.124  0.00  0.00    +0.000 A 
ENDBRANCH  15  17
ENDBRANCH   9  13
BRANCH   8  27
ATOM     27  N   UNL     1      -0.910  10.266  17.692  0.00  0.00    +0.000 N 
ATOM     28  H   UNL     1      -0.557   9.302  17.627  0.00  0.00    +0.000 HD
BRANCH  27  29
ATOM     29  C   UNL     1      -2.382  10.307  17.685  0.00  0.00    +0.000 C 
BRANCH  29  30
ATOM     30  C   UNL     1      -2.875  10.882  16.361  0.00  0.00    +0.000 C 
ATOM     31  O   UNL     1      -2.551  10.473  15.256  0.00  0.00    +0.000 OA
BRANCH  30  32
ATOM     32  O   UNL     1      -3.746  11.909  16.542  0.00  0.00    +0.000 OA
ATOM     33  H   UNL     1      -4.559  11.575  16.979  0.00  0.00    +0.000 HD
ENDBRANCH  30  32
ENDBRANCH  29  30
ENDBRANCH  27  29
ENDBRANCH   8  27
TORSDOF 6
ENDMDL
MODEL 9
REMARK VINA RESULT:      -7.7      3.393      4.383
REMARK  Name = 
REMARK  7 active torsions:
REMARK  status: ('A' for Active; 'I' for Inactive)
REMARK    1  A    between atoms: C_1  and  N_2
REMARK    2  A    between atoms: C_8  and  N_9
REMARK    3  A    between atoms: N_9  and  C_10
REMARK    4  A    between atoms: C_10  and  C_11
REMARK    5  A    between atoms: C_11  and  O_13
REMARK    6  A    between atoms: C_14  and  C_15
REMARK    7  A    between atoms: N_17  and  C_18
REMARK                            x       y       z     vdW  Elec       q    Type
REMARK                         _______ _______ _______ _____ _____    ______ ____
ROOT
ATOM      1  C   UNL     1       0.817  18.268  18.835  0.00  0.00    +0.000 C 
ATOM      2  N   UNL     1       1.429  17.057  19.381  0.00  0.00    +0.000 NA
ATOM      3  C   UNL     1       2.062  16.267  18.301  0.00  0.00    +0.000 C 
ATOM      4  C   UNL     1       2.670  14.942  18.815  0.00  0.00    +0.000 C 
ATOM      5  N   UNL     1       1.638  14.161  19.508  0.00  0.00    +0.000 N 
ATOM      6  C   UNL     1       1.595  12.801  19.484  0.00  0.00    +0.000 A 
ATOM      7  N   UNL     1       1.058  12.054  20.428  0.00  0.00    +0.000 NA
ATOM      8  C   UNL     1       1.061  10.727  20.070  0.00  0.00    +0.000 A 
ATOM      9  C   UNL     1       1.613  10.435  18.837  0.00  0.00    +0.000 A 
ATOM     10  S   UNL     1       2.159  11.889  18.124  0.00  0.00    +0.000 S 
ATOM     11  C   UNL     1       0.991  14.890  20.606  0.00  0.00    +0.000 C 
ATOM     12  C   UNL     1       0.413  16.223  20.068  0.00  0.00    +0.000 C 
ENDROOT
BRANCH   9  13
ATOM     13  C   UNL     1       1.761   9.144  18.181  0.00  0.00    +0.000 C 
ATOM     14  O   UNL     1       1.173   8.900  17.131  0.00  0.00    +0.000 OA
ATOM     15  N   UNL     1       2.568   8.233  18.855  0.00  0.00    +0.000 N 
ATOM     16  H   UNL     1       2.897   8.532  19.764  0.00  0.00    +0.000 HD
BRANCH  15  17
ATOM     17  C   UNL     1       2.885   6.912  18.479  0.00  0.00    +0.000 A 
ATOM     18  C   UNL     1       3.892   6.594  17.574  0.00  0.00    +0.000 A 
ATOM     19  C   UNL     1       4.125   5.265  17.209  0.00  0.00    +0.000 A 
ATOM     20  C   UNL     1       3.348   4.226  17.733  0.00  0.00    +0.000 A 
ATOM     21  C   UNL     1       3.549   2.895  17.334  0.00  0.00    +0.000 A 
ATOM     22  C   UNL     1       2.754   1.870  17.847  0.00  0.00    +0.000 A 
ATOM     23  C   UNL     1       1.757   2.162  18.770  0.00  0.00    +0.000 A 
ATOM     24  C   UNL     1       1.553   3.481  19.186  0.00  0.00    +0.000 A 
ATOM     25  C   UNL     1       2.338   4.530  18.673  0.00  0.00    +0.000 A 
ATOM     26  C   UNL     1       2.133   5.872  19.050  0.00  0.00    +0.000 A 
ENDBRANCH  15  17
ENDBRANCH   9  13
BRANCH   8  27
ATOM     27  N   UNL     1       0.534   9.806  20.920  0.00  0.00    +0.000 N 
ATOM     28  H   UNL     1       1.209   9.403  21.582  0.00  0.00    +0.000 HD
BRANCH  27  29
ATOM     29  C   UNL     1      -0.745  10.125  21.575  0.00  0.00    +0.000 C 
BRANCH  29  30
ATOM     30  C   UNL     1      -0.503  10.444  23.047  0.00  0.00    +0.000 C 
ATOM     31  O   UNL     1       0.187   9.778  23.804  0.00  0.00    +0.000 OA
BRANCH  30  32
ATOM     32  O   UNL     1      -1.135  11.583  23.435  0.00  0.00    +0.000 OA
ATOM     33  H   UNL     1      -0.527  12.123  23.986  0.00  0.00    +0.000 HD
ENDBRANCH  30  32
ENDBRANCH  29  30
ENDBRANCH  27  29
ENDBRANCH   8  27
TORSDOF 6
ENDMDL
