MODEL 1
REMARK VINA RESULT:      -7.9      0.000      0.000
REMARK  Name = 
REMARK  1 active torsions:
REMARK  status: ('A' for Active; 'I' for Inactive)
REMARK    1  A    between atoms: C_2  and  C_3
REMARK                            x       y       z     vdW  Elec       q    Type
REMARK                         _______ _______ _______ _____ _____    ______ ____
ROOT
ATOM      1  O   UNL     1       3.422   5.648  19.800  0.00  0.00    +0.000 OA
ATOM      2  C   UNL     1       3.428   4.812  18.893  0.00  0.00    +0.000 C 
ATOM      3  N   UNL     1       4.433   5.003  17.908  0.00  0.00    +0.000 N 
ATOM      4  C   UNL     1       5.480   5.911  17.979  0.00  0.00    +0.000 A 
ATOM      5  C   UNL     1       6.193   5.788  16.816  0.00  0.00    +0.000 A 
ATOM      6  C   UNL     1       7.377   6.470  16.355  0.00  0.00    +0.000 A 
ATOM      7  O   UNL     1       7.975   7.308  17.017  0.00  0.00    +0.000 OA
ATOM      8  O   UNL     1       7.809   6.093  15.067  0.00  0.00    +0.000 OA
ATOM      9  C   UNL     1       7.113   5.139  14.271  0.00  0.00    +0.000 A 
ATOM     10  C   UNL     1       7.619   4.909  12.995  0.00  0.00    +0.000 A 
ATOM     11  C   UNL     1       6.961   4.005  12.164  0.00  0.00    +0.000 A 
ATOM     12  C   UNL     1       5.816   3.339  12.615  0.00  0.00    +0.000 A 
ATOM     13  C   UNL     1       5.318   3.567  13.902  0.00  0.00    +0.000 A 
ATOM     14  C   UNL     1       5.967   4.475  14.738  0.00  0.00    +0.000 A 
ATOM     15  C   UNL     1       5.514   4.817  16.068  0.00  0.00    +0.000 A 
ATOM     16  N   UNL     1       4.460   4.317  16.720  0.00  0.00    +0.000 NA
ENDROOT
BRANCH   2  17
ATOM     17  C   UNL     1       2.478   3.716  18.887  0.00  0.00    +0.000 A 
ATOM     18  C   UNL     1       1.148   3.704  18.501  0.00  0.00    +0.000 A 
ATOM     19  C   UNL     1       0.645   2.414  18.792  0.00  0.00    +0.000 A 
ATOM     20  C   UNL     1       1.697   1.711  19.326  0.00  0.00    +0.000 A 
ATOM     21  O   UNL     1       2.808   2.488  19.387  0.00  0.00    +0.000 OA
ENDBRANCH   2  17
TORSDOF 1
ENDMDL
MODEL 2
REMARK VINA RESULT:      -7.8      1.773      6.044
REMARK  Name = 
REMARK  1 active torsions:
REMARK  status: ('A' for Active; 'I' for Inactive)
REMARK    1  A    between atoms: C_2  and  C_3
REMARK                            x       y       z     vdW  Elec       q    Type
REMARK                         _______ _______ _______ _____ _____    ______ ____
ROOT
ATOM      1  O   UNL     1       7.800   4.646  14.354  0.00  0.00    +0.000 OA
ATOM      2  C   UNL     1       6.644   4.220  14.408  0.00  0.00    +0.000 C 
ATOM      3  N   UNL     1       6.048   4.265  15.697  0.00  0.00    +0.000 N 
ATOM      4  C   UNL     1       6.575   4.895  16.815  0.00  0.00    +0.000 A 
ATOM      5  C   UNL     1       5.700   4.673  17.846  0.00  0.00    +0.000 A 
ATOM      6  C   UNL     1       5.733   5.097  19.223  0.00  0.00    +0.000 A 
ATOM      7  O   UNL     1       6.617   5.802  19.692  0.00  0.00    +0.000 OA
ATOM      8  O   UNL     1       4.655   4.639  20.006  0.00  0.00    +0.000 OA
ATOM      9  C   UNL     1       3.630   3.797  19.486  0.00  0.00    +0.000 A 
ATOM     10  C   UNL     1       2.660   3.371  20.389  0.00  0.00    +0.000 A 
ATOM     11  C   UNL     1       1.649   2.524  19.939  0.00  0.00    +0.000 A 
ATOM     12  C   UNL     1       1.614   2.119  18.600  0.00  0.00    +0.000 A 
ATOM     13  C   UNL     1       2.587   2.557  17.696  0.00  0.00    +0.000 A 
ATOM     14  C   UNL     1       3.605   3.401  18.139  0.00  0.00    +0.000 A 
ATOM     15  C   UNL     1       4.682   3.878  17.301  0.00  0.00    +0.000 A 
ATOM     16  N   UNL     1       4.866   3.639  15.999  0.00  0.00    +0.000 NA
ENDROOT
BRANCH   2  17
ATOM     17  C   UNL     1       5.972   3.740  13.215  0.00  0.00    +0.000 A 
ATOM     18  C   UNL     1       4.744   4.105  12.688  0.00  0.00    +0.000 A 
ATOM     19  C   UNL     1       4.506   3.264  11.577  0.00  0.00    +0.000 A 
ATOM     20  C   UNL     1       5.604   2.445  11.481  0.00  0.00    +0.000 A 
ATOM     21  O   UNL     1       6.496   2.725  12.465  0.00  0.00    +0.000 OA
ENDBRANCH   2  17
TORSDOF 1
ENDMDL
MODEL 3
REMARK VINA RESULT:      -7.7      4.113      6.564
REMARK  Name = 
REMARK  1 active torsions:
REMARK  status: ('A' for Active; 'I' for Inactive)
REMARK    1  A    between atoms: C_2  and  C_3
REMARK                            x       y       z     vdW  Elec       q    Type
REMARK                         _______ _______ _______ _____ _____    ______ ____
ROOT
ATOM      1  O   UNL     1       1.926  10.001  17.369  0.00  0.00    +0.000 OA
ATOM      2  C   UNL     1       1.676   9.398  18.415  0.00  0.00    +0.000 C 
ATOM      3  N   UNL     1       2.315   8.136  18.549  0.00  0.00    +0.000 N 
ATOM      4  C   UNL     1       3.301   7.631  17.713  0.00  0.00    +0.000 A 
ATOM      5  C   UNL     1       3.618   6.384  18.181  0.00  0.00    +0.000 A 
ATOM      6  C   UNL     1       4.575   5.412  17.712  0.00  0.00    +0.000 A 
ATOM      7  O   UNL     1       5.322   5.603  16.762  0.00  0.00    +0.000 OA
ATOM      8  O   UNL     1       4.594   4.207  18.442  0.00  0.00    +0.000 OA
ATOM      9  C   UNL     1       3.716   3.954  19.534  0.00  0.00    +0.000 A 
ATOM     10  C   UNL     1       3.804   2.696  20.123  0.00  0.00    +0.000 A 
ATOM     11  C   UNL     1       2.949   2.387  21.179  0.00  0.00    +0.000 A 
ATOM     12  C   UNL     1       2.025   3.333  21.637  0.00  0.00    +0.000 A 
ATOM     13  C   UNL     1       1.948   4.598  21.047  0.00  0.00    +0.000 A 
ATOM     14  C   UNL     1       2.796   4.914  19.986  0.00  0.00    +0.000 A 
ATOM     15  C   UNL     1       2.771   6.174  19.278  0.00  0.00    +0.000 A 
ATOM     16  N   UNL     1       1.991   7.231  19.527  0.00  0.00    +0.000 NA
ENDROOT
BRANCH   2  17
ATOM     17  C   UNL     1       0.809   9.983  19.420  0.00  0.00    +0.000 A 
ATOM     18  C   UNL     1      -0.539  10.294  19.348  0.00  0.00    +0.000 A 
ATOM     19  C   UNL     1      -0.878  10.943  20.558  0.00  0.00    +0.000 A 
ATOM     20  C   UNL     1       0.275  10.980  21.302  0.00  0.00    +0.000 A 
ATOM     21  O   UNL     1       1.300  10.403  20.624  0.00  0.00    +0.000 OA
ENDBRANCH   2  17
TORSDOF 1
ENDMDL
MODEL 4
REMARK VINA RESULT:      -7.5      3.777      5.707
REMARK  Name = 
REMARK  1 active torsions:
REMARK  status: ('A' for Active; 'I' for Inactive)
REMARK    1  A    between atoms: C_2  and  C_3
REMARK                            x       y       z     vdW  Elec       q    Type
REMARK                         _______ _______ _______ _____ _____    ______ ____
ROOT
ATOM      1  O   UNL     1       2.690  10.193  17.386  0.00  0.00    +0.000 OA
ATOM      2  C   UNL     1       2.079   9.329  18.019  0.00  0.00    +0.000 C 
ATOM      3  N   UNL     1       2.631   8.022  17.937  0.00  0.00    +0.000 N 
ATOM      4  C   UNL     1       3.856   7.690  17.376  0.00  0.00    +0.000 A 
ATOM      5  C   UNL     1       3.986   6.331  17.481  0.00  0.00    +0.000 A 
ATOM      6  C   UNL     1       5.053   5.448  17.077  0.00  0.00    +0.000 A 
ATOM      7  O   UNL     1       6.093   5.837  16.564  0.00  0.00    +0.000 OA
ATOM      8  O   UNL     1       4.810   4.082  17.323  0.00  0.00    +0.000 OA
ATOM      9  C   UNL     1       3.596   3.607  17.896  0.00  0.00    +0.000 A 
ATOM     10  C   UNL     1       3.469   2.227  18.025  0.00  0.00    +0.000 A 
ATOM     11  C   UNL     1       2.289   1.707  18.555  0.00  0.00    +0.000 A 
ATOM     12  C   UNL     1       1.258   2.565  18.953  0.00  0.00    +0.000 A 
ATOM     13  C   UNL     1       1.395   3.951  18.828  0.00  0.00    +0.000 A 
ATOM     14  C   UNL     1       2.570   4.480  18.295  0.00  0.00    +0.000 A 
ATOM     15  C   UNL     1       2.799   5.892  18.082  0.00  0.00    +0.000 A 
ATOM     16  N   UNL     1       1.977   6.902  18.384  0.00  0.00    +0.000 NA
ENDROOT
BRANCH   2  17
ATOM     17  C   UNL     1       0.902   9.670  18.796  0.00  0.00    +0.000 A 
ATOM     18  C   UNL     1      -0.304  10.208  18.380  0.00  0.00    +0.000 A 
ATOM     19  C   UNL     1      -1.072  10.448  19.543  0.00  0.00    +0.000 A 
ATOM     20  C   UNL     1      -0.298  10.033  20.598  0.00  0.00    +0.000 A 
ATOM     21  O   UNL     1       0.896   9.561  20.158  0.00  0.00    +0.000 OA
ENDBRANCH   2  17
TORSDOF 1
ENDMDL
MODEL 5
REMARK VINA RESULT:      -7.4      5.109      7.910
REMARK  Name = 
REMARK  1 active torsions:
REMARK  status: ('A' for Active; 'I' for Inactive)
REMARK    1  A    between atoms: C_2  and  C_3
REMARK                            x       y       z     vdW  Elec       q    Type
REMARK                         _______ _______ _______ _____ _____    ______ ____
ROOT
ATOM      1  O   UNL     1       3.502   5.432  18.299  0.00  0.00    +0.000 OA
ATOM      2  C   UNL     1       2.683   5.566  19.211  0.00  0.00    +0.000 C 
ATOM      3  N   UNL     1       2.167   6.880  19.367  0.00  0.00    +0.000 N 
ATOM      4  C   UNL     1       2.366   7.941  18.494  0.00  0.00    +0.000 A 
ATOM      5  C   UNL     1       1.724   9.024  19.032  0.00  0.00    +0.000 A 
ATOM      6  C   UNL     1       1.589  10.378  18.554  0.00  0.00    +0.000 A 
ATOM      7  O   UNL     1       2.051  10.768  17.490  0.00  0.00    +0.000 OA
ATOM      8  O   UNL     1       0.871  11.236  19.412  0.00  0.00    +0.000 OA
ATOM      9  C   UNL     1       0.347  10.808  20.665  0.00  0.00    +0.000 A 
ATOM     10  C   UNL     1      -0.287  11.779  21.436  0.00  0.00    +0.000 A 
ATOM     11  C   UNL     1      -0.794  11.420  22.683  0.00  0.00    +0.000 A 
ATOM     12  C   UNL     1      -0.670  10.104  23.143  0.00  0.00    +0.000 A 
ATOM     13  C   UNL     1      -0.039   9.132  22.360  0.00  0.00    +0.000 A 
ATOM     14  C   UNL     1       0.476   9.483  21.113  0.00  0.00    +0.000 A 
ATOM     15  C   UNL     1       1.183   8.570  20.242  0.00  0.00    +0.000 A 
ATOM     16  N   UNL     1       1.424   7.271  20.451  0.00  0.00    +0.000 NA
ENDROOT
BRANCH   2  17
ATOM     17  C   UNL     1       2.284   4.432  20.023  0.00  0.00    +0.000 A 
ATOM     18  C   UNL     1       1.131   3.665  19.962  0.00  0.00    +0.000 A 
ATOM     19  C   UNL     1       1.183   2.755  21.043  0.00  0.00    +0.000 A 
ATOM     20  C   UNL     1       2.366   3.009  21.693  0.00  0.00    +0.000 A 
ATOM     21  O   UNL     1       3.038   4.019  21.085  0.00  0.00    +0.000 OA
ENDBRANCH   2  17
TORSDOF 1
ENDMDL
MODEL 6
REMARK VINA RESULT:      -7.4      4.380      6.684
REMARK  Name = 
REMARK  1 active torsions:
REMARK  status: ('A' for Active; 'I' for Inactive)
REMARK    1  A    between atoms: C_2  and  C_3
REMARK                            x       y       z     vdW  Elec       q    Type
REMARK                         _______ _______ _______ _____ _____    ______ ____
ROOT
ATOM      1  O   UNL     1       1.065  10.356  18.772  0.00  0.00    +0.000 OA
ATOM      2  C   UNL     1       1.091   9.550  19.705  0.00  0.00    +0.000 C 
ATOM      3  N   UNL     1       1.794   8.344  19.438  0.00  0.00    +0.000 N 
ATOM      4  C   UNL     1       2.578   8.090  18.321  0.00  0.00    +0.000 A 
ATOM      5  C   UNL     1       3.045   6.809  18.446  0.00  0.00    +0.000 A 
ATOM      6  C   UNL     1       3.906   6.028  17.593  0.00  0.00    +0.000 A 
ATOM      7  O   UNL     1       4.402   6.456  16.560  0.00  0.00    +0.000 OA
ATOM      8  O   UNL     1       4.143   4.713  18.042  0.00  0.00    +0.000 OA
ATOM      9  C   UNL     1       3.554   4.187  19.228  0.00  0.00    +0.000 A 
ATOM     10  C   UNL     1       3.828   2.853  19.517  0.00  0.00    +0.000 A 
ATOM     11  C   UNL     1       3.255   2.281  20.651  0.00  0.00    +0.000 A 
ATOM     12  C   UNL     1       2.426   3.042  21.483  0.00  0.00    +0.000 A 
ATOM     13  C   UNL     1       2.162   4.384  21.191  0.00  0.00    +0.000 A 
ATOM     14  C   UNL     1       2.727   4.964  20.055  0.00  0.00    +0.000 A 
ATOM     15  C   UNL     1       2.486   6.327  19.638  0.00  0.00    +0.000 A 
ATOM     16  N   UNL     1       1.744   7.248  20.260  0.00  0.00    +0.000 NA
ENDROOT
BRANCH   2  17
ATOM     17  C   UNL     1       0.458   9.860  20.973  0.00  0.00    +0.000 A 
ATOM     18  C   UNL     1       0.613   9.253  22.208  0.00  0.00    +0.000 A 
ATOM     19  C   UNL     1      -0.309   9.864  23.088  0.00  0.00    +0.000 A 
ATOM     20  C   UNL     1      -0.965  10.816  22.345  0.00  0.00    +0.000 A 
ATOM     21  O   UNL     1      -0.508  10.822  21.067  0.00  0.00    +0.000 OA
ENDBRANCH   2  17
TORSDOF 1
ENDMDL
MODEL 7
REMARK VINA RESULT:      -7.2      4.130      6.223
REMARK  Name = 
REMARK  1 active torsions:
REMARK  status: ('A' for Active; 'I' for Inactive)
REMARK    1  A    between atoms: C_2  and  C_3
REMARK                            x       y       z     vdW  Elec       q    Type
REMARK                         _______ _______ _______ _____ _____    ______ ____
ROOT
ATOM      1  O   UNL     1       0.477   8.512  22.202  0.00  0.00    +0.000 OA
ATOM      2  C   UNL     1       0.940   8.767  21.087  0.00  0.00    +0.000 C 
ATOM      3  N   UNL     1       1.555   7.670  20.428  0.00  0.00    +0.000 N 
ATOM      4  C   UNL     1       1.515   6.345  20.841  0.00  0.00    +0.000 A 
ATOM      5  C   UNL     1       2.254   5.625  19.941  0.00  0.00    +0.000 A 
ATOM      6  C   UNL     1       2.546   4.215  19.869  0.00  0.00    +0.000 A 
ATOM      7  O   UNL     1       2.107   3.393  20.663  0.00  0.00    +0.000 OA
ATOM      8  O   UNL     1       3.384   3.841  18.800  0.00  0.00    +0.000 OA
ATOM      9  C   UNL     1       3.925   4.785  17.880  0.00  0.00    +0.000 A 
ATOM     10  C   UNL     1       4.787   4.282  16.910  0.00  0.00    +0.000 A 
ATOM     11  C   UNL     1       5.366   5.166  16.002  0.00  0.00    +0.000 A 
ATOM     12  C   UNL     1       5.076   6.533  16.067  0.00  0.00    +0.000 A 
ATOM     13  C   UNL     1       4.203   7.031  17.040  0.00  0.00    +0.000 A 
ATOM     14  C   UNL     1       3.623   6.155  17.956  0.00  0.00    +0.000 A 
ATOM     15  C   UNL     1       2.742   6.567  19.026  0.00  0.00    +0.000 A 
ATOM     16  N   UNL     1       2.313   7.805  19.293  0.00  0.00    +0.000 NA
ENDROOT
BRANCH   2  17
ATOM     17  C   UNL     1       0.820  10.097  20.520  0.00  0.00    +0.000 A 
ATOM     18  C   UNL     1       0.331  10.487  19.284  0.00  0.00    +0.000 A 
ATOM     19  C   UNL     1       0.535  11.882  19.181  0.00  0.00    +0.000 A 
ATOM     20  C   UNL     1       1.125  12.265  20.360  0.00  0.00    +0.000 A 
ATOM     21  O   UNL     1       1.301  11.194  21.176  0.00  0.00    +0.000 OA
ENDBRANCH   2  17
TORSDOF 1
ENDMDL
MODEL 8
REMARK VINA RESULT:      -7.2      2.748      6.671
REMARK  Name = 
REMARK  1 active torsions:
REMARK  status: ('A' for Active; 'I' for Inactive)
REMARK    1  A    between atoms: C_2  and  C_3
REMARK                            x       y       z     vdW  Elec       q    Type
REMARK                         _______ _______ _______ _____ _____    ______ ____
ROOT
ATOM      1  O   UNL     1       4.744   2.448  17.052  0.00  0.00    +0.000 OA
ATOM      2  C   UNL     1       4.790   3.651  16.784  0.00  0.00    +0.000 C 
ATOM      3  N   UNL     1       4.052   4.490  17.661  0.00  0.00    +0.000 N 
ATOM      4  C   UNL     1       3.460   4.100  18.854  0.00  0.00    +0.000 A 
ATOM      5  C   UNL     1       2.832   5.204  19.366  0.00  0.00    +0.000 A 
ATOM      6  C   UNL     1       2.072   5.384  20.578  0.00  0.00    +0.000 A 
ATOM      7  O   UNL     1       1.894   4.496  21.402  0.00  0.00    +0.000 OA
ATOM      8  O   UNL     1       1.542   6.677  20.754  0.00  0.00    +0.000 OA
ATOM      9  C   UNL     1       1.716   7.717  19.796  0.00  0.00    +0.000 A 
ATOM     10  C   UNL     1       1.084   8.927  20.071  0.00  0.00    +0.000 A 
ATOM     11  C   UNL     1       1.200   9.968  19.154  0.00  0.00    +0.000 A 
ATOM     12  C   UNL     1       1.943   9.796  17.981  0.00  0.00    +0.000 A 
ATOM     13  C   UNL     1       2.582   8.580  17.714  0.00  0.00    +0.000 A 
ATOM     14  C   UNL     1       2.468   7.530  18.624  0.00  0.00    +0.000 A 
ATOM     15  C   UNL     1       3.050   6.222  18.428  0.00  0.00    +0.000 A 
ATOM     16  N   UNL     1       3.803   5.813  17.401  0.00  0.00    +0.000 NA
ENDROOT
BRANCH   2  17
ATOM     17  C   UNL     1       5.572   4.132  15.661  0.00  0.00    +0.000 A 
ATOM     18  C   UNL     1       5.383   3.932  14.304  0.00  0.00    +0.000 A 
ATOM     19  C   UNL     1       6.484   4.522  13.642  0.00  0.00    +0.000 A 
ATOM     20  C   UNL     1       7.274   5.059  14.629  0.00  0.00    +0.000 A 
ATOM     21  O   UNL     1       6.732   4.829  15.852  0.00  0.00    +0.000 OA
ENDBRANCH   2  17
TORSDOF 1
ENDMDL
MODEL 9
REMARK VINA RESULT:      -7.1      3.437      5.346
REMARK  Name = 
REMARK  1 active torsions:
REMARK  status: ('A' for Active; 'I' for Inactive)
REMARK    1  A    between atoms: C_2  and  C_3
REMARK                            x       y       z     vdW  Elec       q    Type
REMARK                         _______ _______ _______ _____ _____    ______ ____
ROOT
ATOM      1  O   UNL     1       1.076   7.668  21.515  0.00  0.00    +0.000 OA
ATOM      2  C   UNL     1       1.496   7.961  20.393  0.00  0.00    +0.000 C 
ATOM      3  N   UNL     1       2.167   6.911  19.711  0.00  0.00    +0.000 N 
ATOM      4  C   UNL     1       2.225   5.584  20.115  0.00  0.00    +0.000 A 
ATOM      5  C   UNL     1       2.990   4.921  19.193  0.00  0.00    +0.000 A 
ATOM      6  C   UNL     1       3.373   3.533  19.103  0.00  0.00    +0.000 A 
ATOM      7  O   UNL     1       3.008   2.679  19.900  0.00  0.00    +0.000 OA
ATOM      8  O   UNL     1       4.210   3.224  18.013  0.00  0.00    +0.000 OA
ATOM      9  C   UNL     1       4.667   4.208  17.090  0.00  0.00    +0.000 A 
ATOM     10  C   UNL     1       5.539   3.769  16.097  0.00  0.00    +0.000 A 
ATOM     11  C   UNL     1       6.037   4.696  15.184  0.00  0.00    +0.000 A 
ATOM     12  C   UNL     1       5.659   6.041  15.267  0.00  0.00    +0.000 A 
ATOM     13  C   UNL     1       4.776   6.473  16.262  0.00  0.00    +0.000 A 
ATOM     14  C   UNL     1       4.276   5.554  17.183  0.00  0.00    +0.000 A 
ATOM     15  C   UNL     1       3.394   5.900  18.275  0.00  0.00    +0.000 A 
ATOM     16  N   UNL     1       2.889   7.104  18.562  0.00  0.00    +0.000 NA
ENDROOT
BRANCH   2  17
ATOM     17  C   UNL     1       1.275   9.283  19.839  0.00  0.00    +0.000 A 
ATOM     18  C   UNL     1       1.347   9.711  18.523  0.00  0.00    +0.000 A 
ATOM     19  C   UNL     1       1.153  11.111  18.533  0.00  0.00    +0.000 A 
ATOM     20  C   UNL     1       0.962  11.456  19.849  0.00  0.00    +0.000 A 
ATOM     21  O   UNL     1       1.033  10.359  20.645  0.00  0.00    +0.000 OA
ENDBRANCH   2  17
TORSDOF 1
ENDMDL
