MODEL 1
REMARK VINA RESULT:      -7.6      0.000      0.000
REMARK  Name = 
REMARK  2 active torsions:
REMARK  status: ('A' for Active; 'I' for Inactive)
REMARK    1  A    between atoms: C_7  and  O_8
REMARK    2  A    between atoms: C_9  and  C_10
REMARK                            x       y       z     vdW  Elec       q    Type
REMARK                         _______ _______ _______ _____ _____    ______ ____
ROOT
ATOM      1  O   UNL     1       8.331   8.413  17.916  0.00  0.00    +0.000 OA
ATOM      2  C   UNL     1       7.782   7.330  17.848  0.00  0.00    +0.000 C 
ATOM      3  C   UNL     1       7.757   6.341  18.923  0.00  0.00    +0.000 C 
ATOM      4  C   UNL     1       7.027   5.324  18.476  0.00  0.00    +0.000 C 
ATOM      5  C   UNL     1       6.523   5.597  17.112  0.00  0.00    +0.000 C 
ATOM      6  C   UNL     1       6.868   4.529  16.089  0.00  0.00    +0.000 C 
ATOM      7  C   UNL     1       5.535   4.031  15.579  0.00  0.00    +0.000 C 
ATOM      8  C   UNL     1       4.458   4.780  16.375  0.00  0.00    +0.000 C 
ATOM      9  O   UNL     1       5.116   5.764  17.177  0.00  0.00    +0.000 OA
ATOM     10  O   UNL     1       7.132   6.835  16.762  0.00  0.00    +0.000 OA
ENDROOT
BRANCH   8  11
ATOM     11  C   UNL     1       3.598   3.875  17.241  0.00  0.00    +0.000 A 
ATOM     12  C   UNL     1       4.044   2.618  17.679  0.00  0.00    +0.000 A 
ATOM     13  C   UNL     1       3.235   1.808  18.476  0.00  0.00    +0.000 A 
ATOM     14  C   UNL     1       1.971   2.246  18.859  0.00  0.00    +0.000 A 
ATOM     15  C   UNL     1       1.522   3.503  18.461  0.00  0.00    +0.000 A 
ATOM     16  C   UNL     1       2.331   4.314  17.660  0.00  0.00    +0.000 A 
ENDBRANCH   8  11
BRANCH   7  17
ATOM     17  O   UNL     1       5.424   4.283  14.175  0.00  0.00    +0.000 OA
ATOM     18  H   UNL     1       5.627   5.224  14.013  0.00  0.00    +0.000 HD
ENDBRANCH   7  17
TORSDOF 2
ENDMDL
MODEL 2
REMARK VINA RESULT:      -7.4      2.512      4.520
REMARK  Name = 
REMARK  2 active torsions:
REMARK  status: ('A' for Active; 'I' for Inactive)
REMARK    1  A    between atoms: C_7  and  O_8
REMARK    2  A    between atoms: C_9  and  C_10
REMARK                            x       y       z     vdW  Elec       q    Type
REMARK                         _______ _______ _______ _____ _____    ______ ____
ROOT
ATOM      1  O   UNL     1       8.043   5.475  20.685  0.00  0.00    +0.000 OA
ATOM      2  C   UNL     1       7.578   5.597  19.567  0.00  0.00    +0.000 C 
ATOM      3  C   UNL     1       7.979   6.623  18.608  0.00  0.00    +0.000 C 
ATOM      4  C   UNL     1       7.278   6.390  17.502  0.00  0.00    +0.000 C 
ATOM      5  C   UNL     1       6.411   5.204  17.667  0.00  0.00    +0.000 C 
ATOM      6  C   UNL     1       4.941   5.454  17.376  0.00  0.00    +0.000 C 
ATOM      7  C   UNL     1       4.600   4.509  16.247  0.00  0.00    +0.000 C 
ATOM      8  C   UNL     1       5.903   3.790  15.873  0.00  0.00    +0.000 C 
ATOM      9  O   UNL     1       6.898   4.170  16.827  0.00  0.00    +0.000 OA
ATOM     10  O   UNL     1       6.592   4.833  19.029  0.00  0.00    +0.000 OA
ENDROOT
BRANCH   8  11
ATOM     11  C   UNL     1       6.379   4.083  14.461  0.00  0.00    +0.000 A 
ATOM     12  C   UNL     1       7.423   4.985  14.198  0.00  0.00    +0.000 A 
ATOM     13  C   UNL     1       7.843   5.234  12.891  0.00  0.00    +0.000 A 
ATOM     14  C   UNL     1       7.234   4.578  11.826  0.00  0.00    +0.000 A 
ATOM     15  C   UNL     1       6.218   3.657  12.067  0.00  0.00    +0.000 A 
ATOM     16  C   UNL     1       5.795   3.408  13.376  0.00  0.00    +0.000 A 
ENDBRANCH   8  11
BRANCH   7  17
ATOM     17  O   UNL     1       3.591   3.587  16.670  0.00  0.00    +0.000 OA
ATOM     18  H   UNL     1       3.592   2.827  16.058  0.00  0.00    +0.000 HD
ENDBRANCH   7  17
TORSDOF 2
ENDMDL
MODEL 3
REMARK VINA RESULT:      -7.3      2.510      4.507
REMARK  Name = 
REMARK  2 active torsions:
REMARK  status: ('A' for Active; 'I' for Inactive)
REMARK    1  A    between atoms: C_7  and  O_8
REMARK    2  A    between atoms: C_9  and  C_10
REMARK                            x       y       z     vdW  Elec       q    Type
REMARK                         _______ _______ _______ _____ _____    ______ ____
ROOT
ATOM      1  O   UNL     1       8.040   5.487  20.714  0.00  0.00    +0.000 OA
ATOM      2  C   UNL     1       7.580   5.605  19.594  0.00  0.00    +0.000 C 
ATOM      3  C   UNL     1       8.002   6.612  18.623  0.00  0.00    +0.000 C 
ATOM      4  C   UNL     1       7.300   6.380  17.518  0.00  0.00    +0.000 C 
ATOM      5  C   UNL     1       6.409   5.212  17.695  0.00  0.00    +0.000 C 
ATOM      6  C   UNL     1       4.945   5.489  17.398  0.00  0.00    +0.000 C 
ATOM      7  C   UNL     1       4.587   4.538  16.279  0.00  0.00    +0.000 C 
ATOM      8  C   UNL     1       5.877   3.788  15.917  0.00  0.00    +0.000 C 
ATOM      9  O   UNL     1       6.878   4.160  16.868  0.00  0.00    +0.000 OA
ATOM     10  O   UNL     1       6.579   4.854  19.062  0.00  0.00    +0.000 OA
ENDROOT
BRANCH   8  11
ATOM     11  C   UNL     1       6.362   4.056  14.502  0.00  0.00    +0.000 A 
ATOM     12  C   UNL     1       5.807   3.408  13.388  0.00  0.00    +0.000 A 
ATOM     13  C   UNL     1       6.269   3.675  12.099  0.00  0.00    +0.000 A 
ATOM     14  C   UNL     1       7.288   4.601  11.901  0.00  0.00    +0.000 A 
ATOM     15  C   UNL     1       7.832   5.277  12.991  0.00  0.00    +0.000 A 
ATOM     16  C   UNL     1       7.370   5.010  14.283  0.00  0.00    +0.000 A 
ENDBRANCH   8  11
BRANCH   7  17
ATOM     17  O   UNL     1       3.560   3.640  16.710  0.00  0.00    +0.000 OA
ATOM     18  H   UNL     1       2.694   4.059  16.545  0.00  0.00    +0.000 HD
ENDBRANCH   7  17
TORSDOF 2
ENDMDL
MODEL 4
REMARK VINA RESULT:      -7.2      3.096      5.688
REMARK  Name = 
REMARK  2 active torsions:
REMARK  status: ('A' for Active; 'I' for Inactive)
REMARK    1  A    between atoms: C_7  and  O_8
REMARK    2  A    between atoms: C_9  and  C_10
REMARK                            x       y       z     vdW  Elec       q    Type
REMARK                         _______ _______ _______ _____ _____    ______ ____
ROOT
ATOM      1  O   UNL     1       1.101   2.667  22.600  0.00  0.00    +0.000 OA
ATOM      2  C   UNL     1       1.407   2.913  21.448  0.00  0.00    +0.000 C 
ATOM      3  C   UNL     1       0.826   3.985  20.643  0.00  0.00    +0.000 C 
ATOM      4  C   UNL     1       1.453   3.951  19.471  0.00  0.00    +0.000 C 
ATOM      5  C   UNL     1       2.479   2.885  19.452  0.00  0.00    +0.000 C 
ATOM      6  C   UNL     1       2.340   1.900  18.305  0.00  0.00    +0.000 C 
ATOM      7  C   UNL     1       3.639   2.008  17.539  0.00  0.00    +0.000 C 
ATOM      8  C   UNL     1       4.461   3.105  18.229  0.00  0.00    +0.000 C 
ATOM      9  O   UNL     1       3.759   3.494  19.413  0.00  0.00    +0.000 OA
ATOM     10  O   UNL     1       2.307   2.221  20.700  0.00  0.00    +0.000 OA
ENDROOT
BRANCH   8  11
ATOM     11  C   UNL     1       4.730   4.313  17.349  0.00  0.00    +0.000 A 
ATOM     12  C   UNL     1       5.269   4.190  16.059  0.00  0.00    +0.000 A 
ATOM     13  C   UNL     1       5.504   5.317  15.269  0.00  0.00    +0.000 A 
ATOM     14  C   UNL     1       5.193   6.584  15.753  0.00  0.00    +0.000 A 
ATOM     15  C   UNL     1       4.629   6.725  17.018  0.00  0.00    +0.000 A 
ATOM     16  C   UNL     1       4.396   5.597  17.810  0.00  0.00    +0.000 A 
ENDBRANCH   8  11
BRANCH   7  17
ATOM     17  O   UNL     1       4.321   0.750  17.553  0.00  0.00    +0.000 OA
ATOM     18  H   UNL     1       3.680   0.054  17.791  0.00  0.00    +0.000 HD
ENDBRANCH   7  17
TORSDOF 2
ENDMDL
MODEL 5
REMARK VINA RESULT:      -7.2      2.063      3.469
REMARK  Name = 
REMARK  2 active torsions:
REMARK  status: ('A' for Active; 'I' for Inactive)
REMARK    1  A    between atoms: C_7  and  O_8
REMARK    2  A    between atoms: C_9  and  C_10
REMARK                            x       y       z     vdW  Elec       q    Type
REMARK                         _______ _______ _______ _____ _____    ______ ____
ROOT
ATOM      1  O   UNL     1       7.317   4.508  13.806  0.00  0.00    +0.000 OA
ATOM      2  C   UNL     1       6.725   4.887  14.799  0.00  0.00    +0.000 C 
ATOM      3  C   UNL     1       5.472   5.638  14.785  0.00  0.00    +0.000 C 
ATOM      4  C   UNL     1       5.134   5.819  16.058  0.00  0.00    +0.000 C 
ATOM      5  C   UNL     1       6.120   5.186  16.961  0.00  0.00    +0.000 C 
ATOM      6  C   UNL     1       6.712   6.123  18.000  0.00  0.00    +0.000 C 
ATOM      7  C   UNL     1       6.347   5.509  19.333  0.00  0.00    +0.000 C 
ATOM      8  C   UNL     1       5.495   4.270  19.021  0.00  0.00    +0.000 C 
ATOM      9  O   UNL     1       5.500   4.084  17.603  0.00  0.00    +0.000 OA
ATOM     10  O   UNL     1       7.136   4.714  16.083  0.00  0.00    +0.000 OA
ENDROOT
BRANCH   8  11
ATOM     11  C   UNL     1       4.070   4.362  19.540  0.00  0.00    +0.000 A 
ATOM     12  C   UNL     1       3.379   3.240  20.024  0.00  0.00    +0.000 A 
ATOM     13  C   UNL     1       2.071   3.353  20.498  0.00  0.00    +0.000 A 
ATOM     14  C   UNL     1       1.437   4.591  20.506  0.00  0.00    +0.000 A 
ATOM     15  C   UNL     1       2.116   5.722  20.059  0.00  0.00    +0.000 A 
ATOM     16  C   UNL     1       3.426   5.610  19.582  0.00  0.00    +0.000 A 
ENDBRANCH   8  11
BRANCH   7  17
ATOM     17  O   UNL     1       7.534   5.164  20.053  0.00  0.00    +0.000 OA
ATOM     18  H   UNL     1       8.301   5.298  19.466  0.00  0.00    +0.000 HD
ENDBRANCH   7  17
TORSDOF 2
ENDMDL
MODEL 6
REMARK VINA RESULT:      -7.1      2.083      3.641
REMARK  Name = 
REMARK  2 active torsions:
REMARK  status: ('A' for Active; 'I' for Inactive)
REMARK    1  A    between atoms: C_7  and  O_8
REMARK    2  A    between atoms: C_9  and  C_10
REMARK                            x       y       z     vdW  Elec       q    Type
REMARK                         _______ _______ _______ _____ _____    ______ ____
ROOT
ATOM      1  O   UNL     1       7.219   4.332  13.856  0.00  0.00    +0.000 OA
ATOM      2  C   UNL     1       6.643   4.754  14.841  0.00  0.00    +0.000 C 
ATOM      3  C   UNL     1       5.413   5.541  14.812  0.00  0.00    +0.000 C 
ATOM      4  C   UNL     1       5.085   5.765  16.081  0.00  0.00    +0.000 C 
ATOM      5  C   UNL     1       6.056   5.127  16.997  0.00  0.00    +0.000 C 
ATOM      6  C   UNL     1       6.679   6.072  18.009  0.00  0.00    +0.000 C 
ATOM      7  C   UNL     1       6.302   5.503  19.358  0.00  0.00    +0.000 C 
ATOM      8  C   UNL     1       5.413   4.283  19.082  0.00  0.00    +0.000 C 
ATOM      9  O   UNL     1       5.407   4.060  17.669  0.00  0.00    +0.000 OA
ATOM     10  O   UNL     1       7.054   4.602  16.128  0.00  0.00    +0.000 OA
ENDROOT
BRANCH   8  11
ATOM     11  C   UNL     1       3.994   4.431  19.603  0.00  0.00    +0.000 A 
ATOM     12  C   UNL     1       3.341   5.673  19.648  0.00  0.00    +0.000 A 
ATOM     13  C   UNL     1       2.035   5.780  20.129  0.00  0.00    +0.000 A 
ATOM     14  C   UNL     1       1.357   4.646  20.564  0.00  0.00    +0.000 A 
ATOM     15  C   UNL     1       1.976   3.400  20.499  0.00  0.00    +0.000 A 
ATOM     16  C   UNL     1       3.284   3.292  20.019  0.00  0.00    +0.000 A 
ENDBRANCH   8  11
BRANCH   7  17
ATOM     17  O   UNL     1       7.481   5.142  20.083  0.00  0.00    +0.000 OA
ATOM     18  H   UNL     1       8.122   5.876  20.017  0.00  0.00    +0.000 HD
ENDBRANCH   7  17
TORSDOF 2
ENDMDL
MODEL 7
REMARK VINA RESULT:      -7.1      2.102      3.360
REMARK  Name = 
REMARK  2 active torsions:
REMARK  status: ('A' for Active; 'I' for Inactive)
REMARK    1  A    between atoms: C_7  and  O_8
REMARK    2  A    between atoms: C_9  and  C_10
REMARK                            x       y       z     vdW  Elec       q    Type
REMARK                         _______ _______ _______ _____ _____    ______ ____
ROOT
ATOM      1  O   UNL     1       7.813   6.880  16.682  0.00  0.00    +0.000 OA
ATOM      2  C   UNL     1       6.659   6.527  16.834  0.00  0.00    +0.000 C 
ATOM      3  C   UNL     1       6.054   5.363  16.192  0.00  0.00    +0.000 C 
ATOM      4  C   UNL     1       4.806   5.295  16.647  0.00  0.00    +0.000 C 
ATOM      5  C   UNL     1       4.537   6.382  17.614  0.00  0.00    +0.000 C 
ATOM      6  C   UNL     1       3.332   7.240  17.275  0.00  0.00    +0.000 C 
ATOM      7  C   UNL     1       2.401   7.092  18.457  0.00  0.00    +0.000 C 
ATOM      8  C   UNL     1       3.070   6.095  19.414  0.00  0.00    +0.000 C 
ATOM      9  O   UNL     1       4.374   5.809  18.901  0.00  0.00    +0.000 OA
ATOM     10  O   UNL     1       5.727   7.164  17.591  0.00  0.00    +0.000 OA
ENDROOT
BRANCH   8  11
ATOM     11  C   UNL     1       2.282   4.812  19.609  0.00  0.00    +0.000 A 
ATOM     12  C   UNL     1       2.024   4.280  20.882  0.00  0.00    +0.000 A 
ATOM     13  C   UNL     1       1.294   3.101  21.033  0.00  0.00    +0.000 A 
ATOM     14  C   UNL     1       0.800   2.438  19.913  0.00  0.00    +0.000 A 
ATOM     15  C   UNL     1       1.019   2.965  18.643  0.00  0.00    +0.000 A 
ATOM     16  C   UNL     1       1.751   4.146  18.491  0.00  0.00    +0.000 A 
ENDBRANCH   8  11
BRANCH   7  17
ATOM     17  O   UNL     1       2.196   8.363  19.080  0.00  0.00    +0.000 OA
ATOM     18  H   UNL     1       2.169   8.233  20.047  0.00  0.00    +0.000 HD
ENDBRANCH   7  17
TORSDOF 2
ENDMDL
MODEL 8
REMARK VINA RESULT:      -7.1      3.921      6.076
REMARK  Name = 
REMARK  2 active torsions:
REMARK  status: ('A' for Active; 'I' for Inactive)
REMARK    1  A    between atoms: C_7  and  O_8
REMARK    2  A    between atoms: C_9  and  C_10
REMARK                            x       y       z     vdW  Elec       q    Type
REMARK                         _______ _______ _______ _____ _____    ______ ____
ROOT
ATOM      1  O   UNL     1       3.032   1.903  22.028  0.00  0.00    +0.000 OA
ATOM      2  C   UNL     1       2.593   2.762  21.287  0.00  0.00    +0.000 C 
ATOM      3  C   UNL     1       1.214   3.245  21.297  0.00  0.00    +0.000 C 
ATOM      4  C   UNL     1       1.150   4.204  20.378  0.00  0.00    +0.000 C 
ATOM      5  C   UNL     1       2.469   4.414  19.742  0.00  0.00    +0.000 C 
ATOM      6  C   UNL     1       2.459   4.309  18.227  0.00  0.00    +0.000 C 
ATOM      7  C   UNL     1       2.943   5.656  17.739  0.00  0.00    +0.000 C 
ATOM      8  C   UNL     1       3.152   6.521  18.989  0.00  0.00    +0.000 C 
ATOM      9  O   UNL     1       2.960   5.686  20.134  0.00  0.00    +0.000 OA
ATOM     10  O   UNL     1       3.288   3.395  20.305  0.00  0.00    +0.000 OA
ENDROOT
BRANCH   8  11
ATOM     11  C   UNL     1       2.237   7.732  19.055  0.00  0.00    +0.000 A 
ATOM     12  C   UNL     1       1.657   8.165  20.258  0.00  0.00    +0.000 A 
ATOM     13  C   UNL     1       0.821   9.282  20.291  0.00  0.00    +0.000 A 
ATOM     14  C   UNL     1       0.560   9.991  19.123  0.00  0.00    +0.000 A 
ATOM     15  C   UNL     1       1.150   9.597  17.924  0.00  0.00    +0.000 A 
ATOM     16  C   UNL     1       1.985   8.477  17.890  0.00  0.00    +0.000 A 
ENDBRANCH   8  11
BRANCH   7  17
ATOM     17  O   UNL     1       4.156   5.500  16.998  0.00  0.00    +0.000 OA
ATOM     18  H   UNL     1       4.908   5.677  17.595  0.00  0.00    +0.000 HD
ENDBRANCH   7  17
TORSDOF 2
ENDMDL
MODEL 9
REMARK VINA RESULT:      -7.1      2.117      3.379
REMARK  Name = 
REMARK  2 active torsions:
REMARK  status: ('A' for Active; 'I' for Inactive)
REMARK    1  A    between atoms: C_7  and  O_8
REMARK    2  A    between atoms: C_9  and  C_10
REMARK                            x       y       z     vdW  Elec       q    Type
REMARK                         _______ _______ _______ _____ _____    ______ ____
ROOT
ATOM      1  O   UNL     1       7.793   6.929  16.635  0.00  0.00    +0.000 OA
ATOM      2  C   UNL     1       6.638   6.579  16.789  0.00  0.00    +0.000 C 
ATOM      3  C   UNL     1       6.023   5.428  16.131  0.00  0.00    +0.000 C 
ATOM      4  C   UNL     1       4.779   5.359  16.594  0.00  0.00    +0.000 C 
ATOM      5  C   UNL     1       4.521   6.430  17.580  0.00  0.00    +0.000 C 
ATOM      6  C   UNL     1       3.317   7.300  17.263  0.00  0.00    +0.000 C 
ATOM      7  C   UNL     1       2.394   7.136  18.449  0.00  0.00    +0.000 C 
ATOM      8  C   UNL     1       3.064   6.121  19.384  0.00  0.00    +0.000 C 
ATOM      9  O   UNL     1       4.364   5.837  18.859  0.00  0.00    +0.000 OA
ATOM     10  O   UNL     1       5.714   7.208  17.562  0.00  0.00    +0.000 OA
ENDROOT
BRANCH   8  11
ATOM     11  C   UNL     1       2.271   4.837  19.563  0.00  0.00    +0.000 A 
ATOM     12  C   UNL     1       1.766   4.114  18.471  0.00  0.00    +0.000 A 
ATOM     13  C   UNL     1       1.043   2.937  18.663  0.00  0.00    +0.000 A 
ATOM     14  C   UNL     1       0.821   2.457  19.950  0.00  0.00    +0.000 A 
ATOM     15  C   UNL     1       1.339   3.143  21.045  0.00  0.00    +0.000 A 
ATOM     16  C   UNL     1       2.062   4.324  20.854  0.00  0.00    +0.000 A 
ENDBRANCH   8  11
BRANCH   7  17
ATOM     17  O   UNL     1       2.199   8.398  19.094  0.00  0.00    +0.000 OA
ATOM     18  H   UNL     1       2.493   9.104  18.488  0.00  0.00    +0.000 HD
ENDBRANCH   7  17
TORSDOF 2
ENDMDL
