MODEL 1
REMARK VINA RESULT:      -6.7      0.000      0.000
REMARK  Name = 
REMARK  12 active torsions:
REMARK  status: ('A' for Active; 'I' for Inactive)
REMARK    1  A    between atoms: C_1  and  C_2
REMARK    2  A    between atoms: C_2  and  C_3
REMARK    3  A    between atoms: C_3  and  C_4
REMARK    4  A    between atoms: C_3  and  C_5
REMARK    5  A    between atoms: C_5  and  C_6
REMARK    6  A    between atoms: C_5  and  N_16
REMARK    7  A    between atoms: C_6  and  O_8
REMARK    8  A    between atoms: O_8  and  C_9
REMARK    9  A    between atoms: C_9  and  C_10
REMARK   10  A    between atoms: C_18  and  C_19
REMARK   11  A    between atoms: C_19  and  O_21
REMARK   12  A    between atoms: O_21  and  C_22
REMARK                            x       y       z     vdW  Elec       q    Type
REMARK                         _______ _______ _______ _____ _____    ______ ____
ROOT
ATOM      1  C   UNL     1       4.712   5.947  18.005  0.00  0.00    +0.000 C 
ENDROOT
BRANCH   1   2
ATOM      2  N   UNL     1       4.942   5.634  16.565  0.00  0.00    +0.000 NA
ATOM      3  C   UNL     1       5.117   6.825  15.734  0.00  0.00    +0.000 C 
ATOM      4  C   UNL     1       6.309   5.973  16.075  0.00  0.00    +0.000 C 
BRANCH   4   5
ATOM      5  C   UNL     1       6.895   5.110  15.013  0.00  0.00    +0.000 C 
ATOM      6  O   UNL     1       7.943   5.377  14.450  0.00  0.00    +0.000 OA
BRANCH   5   7
ATOM      7  O   UNL     1       6.157   3.977  14.835  0.00  0.00    +0.000 OA
ATOM      8  C   UNL     1       5.931   3.634  13.468  0.00  0.00    +0.000 C 
ENDBRANCH   5   7
ENDBRANCH   4   5
ENDBRANCH   1   2
BRANCH   1   9
ATOM      9  C   UNL     1       3.215   6.285  18.343  0.00  0.00    +0.000 C 
ATOM     10  C   UNL     1       2.860   7.692  17.840  0.00  0.00    +0.000 C 
BRANCH   9  12
ATOM     11  C   UNL     1       1.911   7.224  20.361  0.00  0.00    +0.000 C 
ATOM     12  C   UNL     1       2.789   6.100  19.819  0.00  0.00    +0.000 C 
ENDBRANCH   9  12
ENDBRANCH   1   9
BRANCH   1  13
ATOM     13  C   UNL     1       5.361   4.842  18.876  0.00  0.00    +0.000 C 
ATOM     14  O   UNL     1       6.084   5.102  19.834  0.00  0.00    +0.000 OA
BRANCH  13  15
ATOM     15  O   UNL     1       5.033   3.584  18.488  0.00  0.00    +0.000 OA
BRANCH  15  16
ATOM     16  C   UNL     1       4.681   2.653  19.528  0.00  0.00    +0.000 C 
BRANCH  16  17
ATOM     17  C   UNL     1       3.193   2.674  19.761  0.00  0.00    +0.000 A 
ATOM     18  C   UNL     1       2.313   2.611  18.674  0.00  0.00    +0.000 A 
ATOM     19  C   UNL     1       0.940   2.745  18.868  0.00  0.00    +0.000 A 
ATOM     20  C   UNL     1       0.433   2.929  20.152  0.00  0.00    +0.000 A 
ATOM     21  C   UNL     1       1.296   2.955  21.246  0.00  0.00    +0.000 A 
ATOM     22  C   UNL     1       2.671   2.822  21.055  0.00  0.00    +0.000 A 
ENDBRANCH  16  17
ENDBRANCH  15  16
ENDBRANCH  13  15
ENDBRANCH   1  13
TORSDOF 9
ENDMDL
MODEL 2
REMARK VINA RESULT:      -6.4      1.874      4.366
REMARK  Name = 
REMARK  12 active torsions:
REMARK  status: ('A' for Active; 'I' for Inactive)
REMARK    1  A    between atoms: C_1  and  C_2
REMARK    2  A    between atoms: C_2  and  C_3
REMARK    3  A    between atoms: C_3  and  C_4
REMARK    4  A    between atoms: C_3  and  C_5
REMARK    5  A    between atoms: C_5  and  C_6
REMARK    6  A    between atoms: C_5  and  N_16
REMARK    7  A    between atoms: C_6  and  O_8
REMARK    8  A    between atoms: O_8  and  C_9
REMARK    9  A    between atoms: C_9  and  C_10
REMARK   10  A    between atoms: C_18  and  C_19
REMARK   11  A    between atoms: C_19  and  O_21
REMARK   12  A    between atoms: O_21  and  C_22
REMARK                            x       y       z     vdW  Elec       q    Type
REMARK                         _______ _______ _______ _____ _____    ______ ____
ROOT
ATOM      1  C   UNL     1       3.757   4.498  17.764  0.00  0.00    +0.000 C 
ENDROOT
BRANCH   1   2
ATOM      2  N   UNL     1       5.068   4.260  17.095  0.00  0.00    +0.000 NA
ATOM      3  C   UNL     1       5.075   4.641  15.682  0.00  0.00    +0.000 C 
ATOM      4  C   UNL     1       5.784   5.504  16.690  0.00  0.00    +0.000 C 
BRANCH   4   5
ATOM      5  C   UNL     1       7.273   5.484  16.722  0.00  0.00    +0.000 C 
ATOM      6  O   UNL     1       7.913   4.471  16.946  0.00  0.00    +0.000 OA
BRANCH   5   7
ATOM      7  O   UNL     1       7.790   6.702  16.391  0.00  0.00    +0.000 OA
ATOM      8  C   UNL     1       7.757   7.659  17.450  0.00  0.00    +0.000 C 
ENDBRANCH   5   7
ENDBRANCH   4   5
ENDBRANCH   1   2
BRANCH   1   9
ATOM      9  C   UNL     1       2.607   3.561  17.244  0.00  0.00    +0.000 C 
ATOM     10  C   UNL     1       1.240   4.227  17.460  0.00  0.00    +0.000 C 
BRANCH   9  12
ATOM     11  C   UNL     1       1.478   1.810  18.766  0.00  0.00    +0.000 C 
ATOM     12  C   UNL     1       2.609   2.112  17.787  0.00  0.00    +0.000 C 
ENDBRANCH   9  12
ENDBRANCH   1   9
BRANCH   1  13
ATOM     13  C   UNL     1       3.965   4.511  19.300  0.00  0.00    +0.000 C 
ATOM     14  O   UNL     1       4.302   3.509  19.925  0.00  0.00    +0.000 OA
BRANCH  13  15
ATOM     15  O   UNL     1       3.763   5.729  19.863  0.00  0.00    +0.000 OA
BRANCH  15  16
ATOM     16  C   UNL     1       2.408   6.066  20.214  0.00  0.00    +0.000 C 
BRANCH  16  17
ATOM     17  C   UNL     1       2.062   7.435  19.691  0.00  0.00    +0.000 A 
ATOM     18  C   UNL     1       1.396   8.351  20.513  0.00  0.00    +0.000 A 
ATOM     19  C   UNL     1       0.969   9.576  20.004  0.00  0.00    +0.000 A 
ATOM     20  C   UNL     1       1.217   9.902  18.673  0.00  0.00    +0.000 A 
ATOM     21  C   UNL     1       1.914   9.014  17.856  0.00  0.00    +0.000 A 
ATOM     22  C   UNL     1       2.341   7.786  18.362  0.00  0.00    +0.000 A 
ENDBRANCH  16  17
ENDBRANCH  15  16
ENDBRANCH  13  15
ENDBRANCH   1  13
TORSDOF 9
ENDMDL
MODEL 3
REMARK VINA RESULT:      -6.3      1.606      3.000
REMARK  Name = 
REMARK  12 active torsions:
REMARK  status: ('A' for Active; 'I' for Inactive)
REMARK    1  A    between atoms: C_1  and  C_2
REMARK    2  A    between atoms: C_2  and  C_3
REMARK    3  A    between atoms: C_3  and  C_4
REMARK    4  A    between atoms: C_3  and  C_5
REMARK    5  A    between atoms: C_5  and  C_6
REMARK    6  A    between atoms: C_5  and  N_16
REMARK    7  A    between atoms: C_6  and  O_8
REMARK    8  A    between atoms: O_8  and  C_9
REMARK    9  A    between atoms: C_9  and  C_10
REMARK   10  A    between atoms: C_18  and  C_19
REMARK   11  A    between atoms: C_19  and  O_21
REMARK   12  A    between atoms: O_21  and  C_22
REMARK                            x       y       z     vdW  Elec       q    Type
REMARK                         _______ _______ _______ _____ _____    ______ ____
ROOT
ATOM      1  C   UNL     1       4.388   4.709  16.769  0.00  0.00    +0.000 C 
ENDROOT
BRANCH   1   2
ATOM      2  N   UNL     1       5.522   5.030  15.855  0.00  0.00    +0.000 NA
ATOM      3  C   UNL     1       6.779   4.393  16.247  0.00  0.00    +0.000 C 
ATOM      4  C   UNL     1       6.016   3.869  15.062  0.00  0.00    +0.000 C 
BRANCH   4   5
ATOM      5  C   UNL     1       6.545   4.142  13.697  0.00  0.00    +0.000 C 
ATOM      6  O   UNL     1       7.184   5.144  13.426  0.00  0.00    +0.000 OA
BRANCH   5   7
ATOM      7  O   UNL     1       6.290   3.103  12.851  0.00  0.00    +0.000 OA
ATOM      8  C   UNL     1       5.204   3.331  11.953  0.00  0.00    +0.000 C 
ENDBRANCH   5   7
ENDBRANCH   4   5
ENDBRANCH   1   2
BRANCH   1   9
ATOM      9  C   UNL     1       4.564   3.347  17.534  0.00  0.00    +0.000 C 
ATOM     10  C   UNL     1       3.359   2.431  17.272  0.00  0.00    +0.000 C 
BRANCH   9  12
ATOM     11  C   UNL     1       4.614   2.157  19.823  0.00  0.00    +0.000 C 
ATOM     12  C   UNL     1       4.864   3.448  19.049  0.00  0.00    +0.000 C 
ENDBRANCH   9  12
ENDBRANCH   1   9
BRANCH   1  13
ATOM     13  C   UNL     1       4.088   5.941  17.660  0.00  0.00    +0.000 C 
ATOM     14  O   UNL     1       4.974   6.688  18.067  0.00  0.00    +0.000 OA
BRANCH  13  15
ATOM     15  O   UNL     1       2.767   6.116  17.916  0.00  0.00    +0.000 OA
BRANCH  15  16
ATOM     16  C   UNL     1       2.397   6.361  19.285  0.00  0.00    +0.000 C 
BRANCH  16  17
ATOM     17  C   UNL     1       1.939   5.083  19.936  0.00  0.00    +0.000 A 
ATOM     18  C   UNL     1       2.368   4.763  21.230  0.00  0.00    +0.000 A 
ATOM     19  C   UNL     1       2.045   3.532  21.797  0.00  0.00    +0.000 A 
ATOM     20  C   UNL     1       1.278   2.616  21.081  0.00  0.00    +0.000 A 
ATOM     21  C   UNL     1       0.812   2.939  19.808  0.00  0.00    +0.000 A 
ATOM     22  C   UNL     1       1.135   4.170  19.238  0.00  0.00    +0.000 A 
ENDBRANCH  16  17
ENDBRANCH  15  16
ENDBRANCH  13  15
ENDBRANCH   1  13
TORSDOF 9
ENDMDL
MODEL 4
REMARK VINA RESULT:      -6.3      1.861      4.537
REMARK  Name = 
REMARK  12 active torsions:
REMARK  status: ('A' for Active; 'I' for Inactive)
REMARK    1  A    between atoms: C_1  and  C_2
REMARK    2  A    between atoms: C_2  and  C_3
REMARK    3  A    between atoms: C_3  and  C_4
REMARK    4  A    between atoms: C_3  and  C_5
REMARK    5  A    between atoms: C_5  and  C_6
REMARK    6  A    between atoms: C_5  and  N_16
REMARK    7  A    between atoms: C_6  and  O_8
REMARK    8  A    between atoms: O_8  and  C_9
REMARK    9  A    between atoms: C_9  and  C_10
REMARK   10  A    between atoms: C_18  and  C_19
REMARK   11  A    between atoms: C_19  and  O_21
REMARK   12  A    between atoms: O_21  and  C_22
REMARK                            x       y       z     vdW  Elec       q    Type
REMARK                         _______ _______ _______ _____ _____    ______ ____
ROOT
ATOM      1  C   UNL     1       4.067   4.074  18.405  0.00  0.00    +0.000 C 
ENDROOT
BRANCH   1   2
ATOM      2  N   UNL     1       5.206   3.904  17.457  0.00  0.00    +0.000 NA
ATOM      3  C   UNL     1       4.854   4.205  16.069  0.00  0.00    +0.000 C 
ATOM      4  C   UNL     1       5.694   5.177  16.852  0.00  0.00    +0.000 C 
BRANCH   4   5
ATOM      5  C   UNL     1       7.146   5.277  16.537  0.00  0.00    +0.000 C 
ATOM      6  O   UNL     1       7.860   4.298  16.403  0.00  0.00    +0.000 OA
BRANCH   5   7
ATOM      7  O   UNL     1       7.520   6.574  16.341  0.00  0.00    +0.000 OA
ATOM      8  C   UNL     1       7.509   7.371  17.526  0.00  0.00    +0.000 C 
ENDBRANCH   5   7
ENDBRANCH   4   5
ENDBRANCH   1   2
BRANCH   1   9
ATOM      9  C   UNL     1       3.580   2.727  19.051  0.00  0.00    +0.000 C 
ATOM     10  C   UNL     1       3.508   1.622  17.986  0.00  0.00    +0.000 C 
BRANCH   9  12
ATOM     11  C   UNL     1       1.002   2.655  19.028  0.00  0.00    +0.000 C 
ATOM     12  C   UNL     1       2.268   2.795  19.868  0.00  0.00    +0.000 C 
ENDBRANCH   9  12
ENDBRANCH   1   9
BRANCH   1  13
ATOM     13  C   UNL     1       4.402   5.211  19.404  0.00  0.00    +0.000 C 
ATOM     14  O   UNL     1       5.521   5.345  19.893  0.00  0.00    +0.000 OA
BRANCH  13  15
ATOM     15  O   UNL     1       3.356   6.037  19.656  0.00  0.00    +0.000 OA
BRANCH  15  16
ATOM     16  C   UNL     1       2.711   6.636  18.517  0.00  0.00    +0.000 C 
BRANCH  16  17
ATOM     17  C   UNL     1       2.031   7.918  18.920  0.00  0.00    +0.000 A 
ATOM     18  C   UNL     1       1.641   8.114  20.251  0.00  0.00    +0.000 A 
ATOM     19  C   UNL     1       0.910   9.244  20.613  0.00  0.00    +0.000 A 
ATOM     20  C   UNL     1       0.574  10.194  19.650  0.00  0.00    +0.000 A 
ATOM     21  C   UNL     1       0.990  10.028  18.331  0.00  0.00    +0.000 A 
ATOM     22  C   UNL     1       1.721   8.897  17.965  0.00  0.00    +0.000 A 
ENDBRANCH  16  17
ENDBRANCH  15  16
ENDBRANCH  13  15
ENDBRANCH   1  13
TORSDOF 9
ENDMDL
MODEL 5
REMARK VINA RESULT:      -6.3      1.086      1.697
REMARK  Name = 
REMARK  12 active torsions:
REMARK  status: ('A' for Active; 'I' for Inactive)
REMARK    1  A    between atoms: C_1  and  C_2
REMARK    2  A    between atoms: C_2  and  C_3
REMARK    3  A    between atoms: C_3  and  C_4
REMARK    4  A    between atoms: C_3  and  C_5
REMARK    5  A    between atoms: C_5  and  C_6
REMARK    6  A    between atoms: C_5  and  N_16
REMARK    7  A    between atoms: C_6  and  O_8
REMARK    8  A    between atoms: O_8  and  C_9
REMARK    9  A    between atoms: C_9  and  C_10
REMARK   10  A    between atoms: C_18  and  C_19
REMARK   11  A    between atoms: C_19  and  O_21
REMARK   12  A    between atoms: O_21  and  C_22
REMARK                            x       y       z     vdW  Elec       q    Type
REMARK                         _______ _______ _______ _____ _____    ______ ____
ROOT
ATOM      1  C   UNL     1       4.962   5.542  18.007  0.00  0.00    +0.000 C 
ENDROOT
BRANCH   1   2
ATOM      2  N   UNL     1       5.615   5.938  16.727  0.00  0.00    +0.000 NA
ATOM      3  C   UNL     1       6.905   6.601  16.916  0.00  0.00    +0.000 C 
ATOM      4  C   UNL     1       6.863   5.183  16.418  0.00  0.00    +0.000 C 
BRANCH   4   5
ATOM      5  C   UNL     1       7.174   4.922  14.985  0.00  0.00    +0.000 C 
ATOM      6  O   UNL     1       7.941   5.617  14.340  0.00  0.00    +0.000 OA
BRANCH   5   7
ATOM      7  O   UNL     1       6.564   3.784  14.546  0.00  0.00    +0.000 OA
ATOM      8  C   UNL     1       5.528   4.007  13.589  0.00  0.00    +0.000 C 
ENDBRANCH   5   7
ENDBRANCH   4   5
ENDBRANCH   1   2
BRANCH   1   9
ATOM      9  C   UNL     1       3.575   6.243  18.248  0.00  0.00    +0.000 C 
ATOM     10  C   UNL     1       2.437   5.373  17.694  0.00  0.00    +0.000 C 
BRANCH   9  12
ATOM     11  C   UNL     1       2.083   8.331  17.991  0.00  0.00    +0.000 C 
ATOM     12  C   UNL     1       3.451   7.702  17.748  0.00  0.00    +0.000 C 
ENDBRANCH   9  12
ENDBRANCH   1   9
BRANCH   1  13
ATOM     13  C   UNL     1       4.957   3.996  18.120  0.00  0.00    +0.000 C 
ATOM     14  O   UNL     1       4.699   3.270  17.163  0.00  0.00    +0.000 OA
BRANCH  13  15
ATOM     15  O   UNL     1       5.285   3.542  19.355  0.00  0.00    +0.000 OA
BRANCH  15  16
ATOM     16  C   UNL     1       4.547   2.409  19.849  0.00  0.00    +0.000 C 
BRANCH  16  17
ATOM     17  C   UNL     1       3.073   2.714  19.857  0.00  0.00    +0.000 A 
ATOM     18  C   UNL     1       2.552   3.629  20.780  0.00  0.00    +0.000 A 
ATOM     19  C   UNL     1       1.177   3.833  20.874  0.00  0.00    +0.000 A 
ATOM     20  C   UNL     1       0.311   3.134  20.036  0.00  0.00    +0.000 A 
ATOM     21  C   UNL     1       0.820   2.249  19.087  0.00  0.00    +0.000 A 
ATOM     22  C   UNL     1       2.197   2.043  18.992  0.00  0.00    +0.000 A 
ENDBRANCH  16  17
ENDBRANCH  15  16
ENDBRANCH  13  15
ENDBRANCH   1  13
TORSDOF 9
ENDMDL
MODEL 6
REMARK VINA RESULT:      -6.2      1.618      2.698
REMARK  Name = 
REMARK  12 active torsions:
REMARK  status: ('A' for Active; 'I' for Inactive)
REMARK    1  A    between atoms: C_1  and  C_2
REMARK    2  A    between atoms: C_2  and  C_3
REMARK    3  A    between atoms: C_3  and  C_4
REMARK    4  A    between atoms: C_3  and  C_5
REMARK    5  A    between atoms: C_5  and  C_6
REMARK    6  A    between atoms: C_5  and  N_16
REMARK    7  A    between atoms: C_6  and  O_8
REMARK    8  A    between atoms: O_8  and  C_9
REMARK    9  A    between atoms: C_9  and  C_10
REMARK   10  A    between atoms: C_18  and  C_19
REMARK   11  A    between atoms: C_19  and  O_21
REMARK   12  A    between atoms: O_21  and  C_22
REMARK                            x       y       z     vdW  Elec       q    Type
REMARK                         _______ _______ _______ _____ _____    ______ ____
ROOT
ATOM      1  C   UNL     1       4.593   5.292  17.024  0.00  0.00    +0.000 C 
ENDROOT
BRANCH   1   2
ATOM      2  N   UNL     1       5.427   5.675  15.848  0.00  0.00    +0.000 NA
ATOM      3  C   UNL     1       6.825   5.937  16.191  0.00  0.00    +0.000 C 
ATOM      4  C   UNL     1       6.459   4.666  15.474  0.00  0.00    +0.000 C 
BRANCH   4   5
ATOM      5  C   UNL     1       6.806   4.538  14.032  0.00  0.00    +0.000 C 
ATOM      6  O   UNL     1       7.544   5.321  13.459  0.00  0.00    +0.000 OA
BRANCH   5   7
ATOM      7  O   UNL     1       6.264   3.409  13.492  0.00  0.00    +0.000 OA
ATOM      8  C   UNL     1       6.264   3.383  12.065  0.00  0.00    +0.000 C 
ENDBRANCH   5   7
ENDBRANCH   4   5
ENDBRANCH   1   2
BRANCH   1   9
ATOM      9  C   UNL     1       5.370   4.444  18.096  0.00  0.00    +0.000 C 
ATOM     10  C   UNL     1       4.611   3.143  18.397  0.00  0.00    +0.000 C 
BRANCH   9  12
ATOM     11  C   UNL     1       7.224   5.561  19.500  0.00  0.00    +0.000 C 
ATOM     12  C   UNL     1       5.749   5.180  19.403  0.00  0.00    +0.000 C 
ENDBRANCH   9  12
ENDBRANCH   1   9
BRANCH   1  13
ATOM     13  C   UNL     1       3.867   6.549  17.565  0.00  0.00    +0.000 C 
ATOM     14  O   UNL     1       4.410   7.650  17.612  0.00  0.00    +0.000 OA
BRANCH  13  15
ATOM     15  O   UNL     1       2.588   6.313  17.949  0.00  0.00    +0.000 OA
BRANCH  15  16
ATOM     16  C   UNL     1       2.308   6.386  19.360  0.00  0.00    +0.000 C 
BRANCH  16  17
ATOM     17  C   UNL     1       2.027   5.011  19.904  0.00  0.00    +0.000 A 
ATOM     18  C   UNL     1       1.263   4.105  19.158  0.00  0.00    +0.000 A 
ATOM     19  C   UNL     1       0.900   2.873  19.700  0.00  0.00    +0.000 A 
ATOM     20  C   UNL     1       1.309   2.531  20.987  0.00  0.00    +0.000 A 
ATOM     21  C   UNL     1       2.102   3.408  21.723  0.00  0.00    +0.000 A 
ATOM     22  C   UNL     1       2.466   4.642  21.184  0.00  0.00    +0.000 A 
ENDBRANCH  16  17
ENDBRANCH  15  16
ENDBRANCH  13  15
ENDBRANCH   1  13
TORSDOF 9
ENDMDL
MODEL 7
REMARK VINA RESULT:      -6.2      1.999      3.110
REMARK  Name = 
REMARK  12 active torsions:
REMARK  status: ('A' for Active; 'I' for Inactive)
REMARK    1  A    between atoms: C_1  and  C_2
REMARK    2  A    between atoms: C_2  and  C_3
REMARK    3  A    between atoms: C_3  and  C_4
REMARK    4  A    between atoms: C_3  and  C_5
REMARK    5  A    between atoms: C_5  and  C_6
REMARK    6  A    between atoms: C_5  and  N_16
REMARK    7  A    between atoms: C_6  and  O_8
REMARK    8  A    between atoms: O_8  and  C_9
REMARK    9  A    between atoms: C_9  and  C_10
REMARK   10  A    between atoms: C_18  and  C_19
REMARK   11  A    between atoms: C_19  and  O_21
REMARK   12  A    between atoms: O_21  and  C_22
REMARK                            x       y       z     vdW  Elec       q    Type
REMARK                         _______ _______ _______ _____ _____    ______ ____
ROOT
ATOM      1  C   UNL     1       5.980   5.163  16.548  0.00  0.00    +0.000 C 
ENDROOT
BRANCH   1   2
ATOM      2  N   UNL     1       6.199   5.307  15.080  0.00  0.00    +0.000 NA
ATOM      3  C   UNL     1       7.597   5.135  14.684  0.00  0.00    +0.000 C 
ATOM      4  C   UNL     1       6.601   4.045  14.394  0.00  0.00    +0.000 C 
BRANCH   4   5
ATOM      5  C   UNL     1       6.148   3.850  12.989  0.00  0.00    +0.000 C 
ATOM      6  O   UNL     1       6.922   3.790  12.049  0.00  0.00    +0.000 OA
BRANCH   5   7
ATOM      7  O   UNL     1       4.798   3.668  12.926  0.00  0.00    +0.000 OA
ATOM      8  C   UNL     1       4.322   3.254  11.646  0.00  0.00    +0.000 C 
ENDBRANCH   5   7
ENDBRANCH   4   5
ENDBRANCH   1   2
BRANCH   1   9
ATOM      9  C   UNL     1       7.023   5.952  17.420  0.00  0.00    +0.000 C 
ATOM     10  C   UNL     1       6.903   5.539  18.894  0.00  0.00    +0.000 C 
BRANCH   9  12
ATOM     11  C   UNL     1       8.134   8.201  18.022  0.00  0.00    +0.000 C 
ATOM     12  C   UNL     1       7.010   7.493  17.272  0.00  0.00    +0.000 C 
ENDBRANCH   9  12
ENDBRANCH   1   9
BRANCH   1  13
ATOM     13  C   UNL     1       4.490   5.446  16.869  0.00  0.00    +0.000 C 
ATOM     14  O   UNL     1       4.059   6.585  17.028  0.00  0.00    +0.000 OA
BRANCH  13  15
ATOM     15  O   UNL     1       3.727   4.326  16.932  0.00  0.00    +0.000 OA
BRANCH  15  16
ATOM     16  C   UNL     1       4.115   3.327  17.892  0.00  0.00    +0.000 C 
BRANCH  16  17
ATOM     17  C   UNL     1       3.152   3.317  19.049  0.00  0.00    +0.000 A 
ATOM     18  C   UNL     1       3.535   2.757  20.274  0.00  0.00    +0.000 A 
ATOM     19  C   UNL     1       2.615   2.639  21.315  0.00  0.00    +0.000 A 
ATOM     20  C   UNL     1       1.308   3.092  21.144  0.00  0.00    +0.000 A 
ATOM     21  C   UNL     1       0.927   3.687  19.943  0.00  0.00    +0.000 A 
ATOM     22  C   UNL     1       1.845   3.805  18.899  0.00  0.00    +0.000 A 
ENDBRANCH  16  17
ENDBRANCH  15  16
ENDBRANCH  13  15
ENDBRANCH   1  13
TORSDOF 9
ENDMDL
MODEL 8
REMARK VINA RESULT:      -6.2      2.188      3.672
REMARK  Name = 
REMARK  12 active torsions:
REMARK  status: ('A' for Active; 'I' for Inactive)
REMARK    1  A    between atoms: C_1  and  C_2
REMARK    2  A    between atoms: C_2  and  C_3
REMARK    3  A    between atoms: C_3  and  C_4
REMARK    4  A    between atoms: C_3  and  C_5
REMARK    5  A    between atoms: C_5  and  C_6
REMARK    6  A    between atoms: C_5  and  N_16
REMARK    7  A    between atoms: C_6  and  O_8
REMARK    8  A    between atoms: O_8  and  C_9
REMARK    9  A    between atoms: C_9  and  C_10
REMARK   10  A    between atoms: C_18  and  C_19
REMARK   11  A    between atoms: C_19  and  O_21
REMARK   12  A    between atoms: O_21  and  C_22
REMARK                            x       y       z     vdW  Elec       q    Type
REMARK                         _______ _______ _______ _____ _____    ______ ____
ROOT
ATOM      1  C   UNL     1       5.922   5.482  15.965  0.00  0.00    +0.000 C 
ENDROOT
BRANCH   1   2
ATOM      2  N   UNL     1       6.030   5.346  14.484  0.00  0.00    +0.000 NA
ATOM      3  C   UNL     1       7.411   5.246  14.012  0.00  0.00    +0.000 C 
ATOM      4  C   UNL     1       6.539   4.021  14.027  0.00  0.00    +0.000 C 
BRANCH   4   5
ATOM      5  C   UNL     1       6.027   3.495  12.731  0.00  0.00    +0.000 C 
ATOM      6  O   UNL     1       6.737   2.912  11.930  0.00  0.00    +0.000 OA
BRANCH   5   7
ATOM      7  O   UNL     1       4.681   3.682  12.621  0.00  0.00    +0.000 OA
ATOM      8  C   UNL     1       4.133   3.268  11.369  0.00  0.00    +0.000 C 
ENDBRANCH   5   7
ENDBRANCH   4   5
ENDBRANCH   1   2
BRANCH   1   9
ATOM      9  C   UNL     1       7.308   5.666  16.683  0.00  0.00    +0.000 C 
ATOM     10  C   UNL     1       7.528   4.544  17.709  0.00  0.00    +0.000 C 
BRANCH   9  12
ATOM     11  C   UNL     1       8.121   6.998  18.737  0.00  0.00    +0.000 C 
ATOM     12  C   UNL     1       7.571   7.054  17.315  0.00  0.00    +0.000 C 
ENDBRANCH   9  12
ENDBRANCH   1   9
BRANCH   1  13
ATOM     13  C   UNL     1       4.849   6.550  16.300  0.00  0.00    +0.000 C 
ATOM     14  O   UNL     1       4.416   7.331  15.457  0.00  0.00    +0.000 OA
BRANCH  13  15
ATOM     15  O   UNL     1       4.434   6.514  17.591  0.00  0.00    +0.000 OA
BRANCH  15  16
ATOM     16  C   UNL     1       3.144   5.928  17.844  0.00  0.00    +0.000 C 
BRANCH  16  17
ATOM     17  C   UNL     1       3.288   4.453  18.111  0.00  0.00    +0.000 A 
ATOM     18  C   UNL     1       2.522   3.532  17.385  0.00  0.00    +0.000 A 
ATOM     19  C   UNL     1       2.562   2.176  17.702  0.00  0.00    +0.000 A 
ATOM     20  C   UNL     1       3.377   1.726  18.739  0.00  0.00    +0.000 A 
ATOM     21  C   UNL     1       4.173   2.629  19.442  0.00  0.00    +0.000 A 
ATOM     22  C   UNL     1       4.134   3.987  19.128  0.00  0.00    +0.000 A 
ENDBRANCH  16  17
ENDBRANCH  15  16
ENDBRANCH  13  15
ENDBRANCH   1  13
TORSDOF 9
ENDMDL
MODEL 9
REMARK VINA RESULT:      -6.2      2.238      4.783
REMARK  Name = 
REMARK  12 active torsions:
REMARK  status: ('A' for Active; 'I' for Inactive)
REMARK    1  A    between atoms: C_1  and  C_2
REMARK    2  A    between atoms: C_2  and  C_3
REMARK    3  A    between atoms: C_3  and  C_4
REMARK    4  A    between atoms: C_3  and  C_5
REMARK    5  A    between atoms: C_5  and  C_6
REMARK    6  A    between atoms: C_5  and  N_16
REMARK    7  A    between atoms: C_6  and  O_8
REMARK    8  A    between atoms: O_8  and  C_9
REMARK    9  A    between atoms: C_9  and  C_10
REMARK   10  A    between atoms: C_18  and  C_19
REMARK   11  A    between atoms: C_19  and  O_21
REMARK   12  A    between atoms: O_21  and  C_22
REMARK                            x       y       z     vdW  Elec       q    Type
REMARK                         _______ _______ _______ _____ _____    ______ ____
ROOT
ATOM      1  C   UNL     1       3.214   4.118  18.282  0.00  0.00    +0.000 C 
ENDROOT
BRANCH   1   2
ATOM      2  N   UNL     1       4.586   3.650  17.929  0.00  0.00    +0.000 NA
ATOM      3  C   UNL     1       4.752   3.366  16.504  0.00  0.00    +0.000 C 
ATOM      4  C   UNL     1       5.364   4.608  17.093  0.00  0.00    +0.000 C 
BRANCH   4   5
ATOM      5  C   UNL     1       6.840   4.651  17.287  0.00  0.00    +0.000 C 
ATOM      6  O   UNL     1       7.621   4.807  16.365  0.00  0.00    +0.000 OA
BRANCH   5   7
ATOM      7  O   UNL     1       7.166   4.580  18.609  0.00  0.00    +0.000 OA
ATOM      8  C   UNL     1       7.753   5.772  19.132  0.00  0.00    +0.000 C 
ENDBRANCH   5   7
ENDBRANCH   4   5
ENDBRANCH   1   2
BRANCH   1   9
ATOM      9  C   UNL     1       2.435   3.129  19.223  0.00  0.00    +0.000 C 
ATOM     10  C   UNL     1       1.438   2.293  18.407  0.00  0.00    +0.000 C 
BRANCH   9  12
ATOM     11  C   UNL     1       1.618   2.816  21.650  0.00  0.00    +0.000 C 
ATOM     12  C   UNL     1       1.749   3.760  20.459  0.00  0.00    +0.000 C 
ENDBRANCH   9  12
ENDBRANCH   1   9
BRANCH   1  13
ATOM     13  C   UNL     1       3.289   5.587  18.770  0.00  0.00    +0.000 C 
ATOM     14  O   UNL     1       4.099   5.956  19.617  0.00  0.00    +0.000 OA
BRANCH  13  15
ATOM     15  O   UNL     1       2.398   6.407  18.159  0.00  0.00    +0.000 OA
BRANCH  15  16
ATOM     16  C   UNL     1       2.743   7.802  18.082  0.00  0.00    +0.000 C 
BRANCH  16  17
ATOM     17  C   UNL     1       1.682   8.637  18.749  0.00  0.00    +0.000 A 
ATOM     18  C   UNL     1       0.961   9.578  18.004  0.00  0.00    +0.000 A 
ATOM     19  C   UNL     1       0.059  10.435  18.632  0.00  0.00    +0.000 A 
ATOM     20  C   UNL     1      -0.140  10.349  20.008  0.00  0.00    +0.000 A 
ATOM     21  C   UNL     1       0.543   9.390  20.753  0.00  0.00    +0.000 A 
ATOM     22  C   UNL     1       1.447   8.532  20.128  0.00  0.00    +0.000 A 
ENDBRANCH  16  17
ENDBRANCH  15  16
ENDBRANCH  13  15
ENDBRANCH   1  13
TORSDOF 9
ENDMDL
