MODEL 1
REMARK VINA RESULT:      -8.6      0.000      0.000
REMARK  Name = 
REMARK  8 active torsions:
REMARK  status: ('A' for Active; 'I' for Inactive)
REMARK    1  A    between atoms: C_1  and  C_2
REMARK    2  A    between atoms: C_2  and  C_3
REMARK    3  A    between atoms: C_4  and  C_5
REMARK    4  A    between atoms: C_11  and  C_12
REMARK    5  A    between atoms: C_14  and  C_15
REMARK    6  A    between atoms: C_16  and  C_17
REMARK    7  A    between atoms: C_20  and  C_21
REMARK    8  A    between atoms: C_26  and  C_27
REMARK                            x       y       z     vdW  Elec       q    Type
REMARK                         _______ _______ _______ _____ _____    ______ ____
ROOT
ATOM      1  C   UNL     1      -0.154  10.215  19.585  0.00  0.00    +0.000 C 
ATOM      2  C   UNL     1       1.165   9.985  19.442  0.00  0.00    +0.000 C 
ENDROOT
BRANCH   1  14
ATOM      3  C   UNL     1      -2.289  11.518  19.397  0.00  0.00    +0.000 C 
ATOM      4  C   UNL     1      -3.072  12.793  19.812  0.00  0.00    +0.000 C 
ATOM      5  C   UNL     1      -4.588  12.551  19.717  0.00  0.00    +0.000 C 
ATOM      6  C   UNL     1      -2.770  13.293  21.233  0.00  0.00    +0.000 C 
ATOM      7  C   UNL     1      -1.300  13.254  21.640  0.00  0.00    +0.000 C 
ATOM      8  C   UNL     1      -1.224  13.225  23.141  0.00  0.00    +0.000 C 
ATOM      9  O   UNL     1      -1.304  14.195  23.877  0.00  0.00    +0.000 OA
ATOM     10  O   UNL     1      -1.127  11.930  23.571  0.00  0.00    +0.000 OA
ATOM     11  C   UNL     1      -1.105  11.047  22.430  0.00  0.00    +0.000 C 
ATOM     12  C   UNL     1      -0.229   9.855  22.785  0.00  0.00    +0.000 C 
ATOM     13  C   UNL     1      -0.597  11.950  21.308  0.00  0.00    +0.000 C 
ATOM     14  C   UNL     1      -0.802  11.547  19.844  0.00  0.00    +0.000 C 
BRANCH   3  16
ATOM     15  C   UNL     1      -3.125   9.915  17.508  0.00  0.00    +0.000 C 
ATOM     16  C   UNL     1      -2.424  11.221  17.870  0.00  0.00    +0.000 C 
ENDBRANCH   3  16
ENDBRANCH   1  14
BRANCH   2  17
ATOM     17  C   UNL     1       1.679   8.632  19.198  0.00  0.00    +0.000 A 
ATOM     18  C   UNL     1       2.169   8.261  17.958  0.00  0.00    +0.000 A 
ATOM     19  C   UNL     1       2.570   6.932  17.769  0.00  0.00    +0.000 A 
ATOM     20  C   UNL     1       2.507   5.996  18.815  0.00  0.00    +0.000 A 
ATOM     21  C   UNL     1       2.071   6.513  20.030  0.00  0.00    +0.000 A 
ATOM     22  N   UNL     1       1.642   7.777  20.241  0.00  0.00    +0.000 NA
BRANCH  20  23
ATOM     23  C   UNL     1       2.911   4.576  18.644  0.00  0.00    +0.000 A 
ATOM     24  C   UNL     1       1.921   3.629  18.295  0.00  0.00    +0.000 A 
ATOM     25  C   UNL     1       2.210   2.275  18.119  0.00  0.00    +0.000 A 
ATOM     26  C   UNL     1       3.511   1.822  18.264  0.00  0.00    +0.000 A 
ATOM     27  C   UNL     1       4.516   2.722  18.599  0.00  0.00    +0.000 A 
ATOM     28  C   UNL     1       4.237   4.089  18.814  0.00  0.00    +0.000 A 
ATOM     29  C   UNL     1       5.407   4.952  19.220  0.00  0.00    +0.000 C 
ENDBRANCH  20  23
ENDBRANCH   2  17
TORSDOF 4
ENDMDL
MODEL 2
REMARK VINA RESULT:      -8.5      3.474      9.416
REMARK  Name = 
REMARK  8 active torsions:
REMARK  status: ('A' for Active; 'I' for Inactive)
REMARK    1  A    between atoms: C_1  and  C_2
REMARK    2  A    between atoms: C_2  and  C_3
REMARK    3  A    between atoms: C_4  and  C_5
REMARK    4  A    between atoms: C_11  and  C_12
REMARK    5  A    between atoms: C_14  and  C_15
REMARK    6  A    between atoms: C_16  and  C_17
REMARK    7  A    between atoms: C_20  and  C_21
REMARK    8  A    between atoms: C_26  and  C_27
REMARK                            x       y       z     vdW  Elec       q    Type
REMARK                         _______ _______ _______ _____ _____    ______ ____
ROOT
ATOM      1  C   UNL     1       1.731   6.829  20.352  0.00  0.00    +0.000 C 
ATOM      2  C   UNL     1       2.018   7.783  21.258  0.00  0.00    +0.000 C 
ENDROOT
BRANCH   1  14
ATOM      3  C   UNL     1       1.803   4.513  19.392  0.00  0.00    +0.000 C 
ATOM      4  C   UNL     1       2.675   3.402  18.747  0.00  0.00    +0.000 C 
ATOM      5  C   UNL     1       1.807   2.458  17.898  0.00  0.00    +0.000 C 
ATOM      6  C   UNL     1       3.810   3.921  17.852  0.00  0.00    +0.000 C 
ATOM      7  C   UNL     1       4.566   5.130  18.392  0.00  0.00    +0.000 C 
ATOM      8  C   UNL     1       5.218   5.838  17.236  0.00  0.00    +0.000 C 
ATOM      9  O   UNL     1       6.277   5.526  16.716  0.00  0.00    +0.000 OA
ATOM     10  O   UNL     1       4.405   6.847  16.798  0.00  0.00    +0.000 OA
ATOM     11  C   UNL     1       3.218   6.895  17.617  0.00  0.00    +0.000 C 
ATOM     12  C   UNL     1       2.781   8.348  17.713  0.00  0.00    +0.000 C 
ATOM     13  C   UNL     1       3.673   6.239  18.920  0.00  0.00    +0.000 C 
ATOM     14  C   UNL     1       2.638   5.712  19.918  0.00  0.00    +0.000 C 
BRANCH   3  16
ATOM     15  C   UNL     1       1.517   3.060  21.546  0.00  0.00    +0.000 C 
ATOM     16  C   UNL     1       0.855   3.945  20.495  0.00  0.00    +0.000 C 
ENDBRANCH   3  16
ENDBRANCH   1  14
BRANCH   2  17
ATOM     17  C   UNL     1       1.046   8.831  21.593  0.00  0.00    +0.000 A 
ATOM     18  C   UNL     1       0.451   9.602  20.609  0.00  0.00    +0.000 A 
ATOM     19  C   UNL     1      -0.405  10.638  21.001  0.00  0.00    +0.000 A 
ATOM     20  C   UNL     1      -0.685  10.880  22.357  0.00  0.00    +0.000 A 
ATOM     21  C   UNL     1      -0.087   9.988  23.240  0.00  0.00    +0.000 A 
ATOM     22  N   UNL     1       0.773   9.001  22.903  0.00  0.00    +0.000 NA
BRANCH  20  23
ATOM     23  C   UNL     1      -1.578  11.980  22.806  0.00  0.00    +0.000 A 
ATOM     24  C   UNL     1      -2.834  11.647  23.362  0.00  0.00    +0.000 A 
ATOM     25  C   UNL     1      -3.737  12.616  23.804  0.00  0.00    +0.000 A 
ATOM     26  C   UNL     1      -3.402  13.958  23.727  0.00  0.00    +0.000 A 
ATOM     27  C   UNL     1      -2.173  14.328  23.193  0.00  0.00    +0.000 A 
ATOM     28  C   UNL     1      -1.261  13.364  22.710  0.00  0.00    +0.000 A 
ATOM     29  C   UNL     1       0.018  13.898  22.112  0.00  0.00    +0.000 C 
ENDBRANCH  20  23
ENDBRANCH   2  17
TORSDOF 4
ENDMDL
MODEL 3
REMARK VINA RESULT:      -8.4      3.406      9.562
REMARK  Name = 
REMARK  8 active torsions:
REMARK  status: ('A' for Active; 'I' for Inactive)
REMARK    1  A    between atoms: C_1  and  C_2
REMARK    2  A    between atoms: C_2  and  C_3
REMARK    3  A    between atoms: C_4  and  C_5
REMARK    4  A    between atoms: C_11  and  C_12
REMARK    5  A    between atoms: C_14  and  C_15
REMARK    6  A    between atoms: C_16  and  C_17
REMARK    7  A    between atoms: C_20  and  C_21
REMARK    8  A    between atoms: C_26  and  C_27
REMARK                            x       y       z     vdW  Elec       q    Type
REMARK                         _______ _______ _______ _____ _____    ______ ____
ROOT
ATOM      1  C   UNL     1       2.170   6.603  19.889  0.00  0.00    +0.000 C 
ATOM      2  C   UNL     1       1.862   7.215  21.049  0.00  0.00    +0.000 C 
ENDROOT
BRANCH   1  14
ATOM      3  C   UNL     1       2.139   4.199  19.176  0.00  0.00    +0.000 C 
ATOM      4  C   UNL     1       2.975   2.944  18.807  0.00  0.00    +0.000 C 
ATOM      5  C   UNL     1       2.163   2.000  17.904  0.00  0.00    +0.000 C 
ATOM      6  C   UNL     1       4.298   3.248  18.089  0.00  0.00    +0.000 C 
ATOM      7  C   UNL     1       5.085   4.431  18.644  0.00  0.00    +0.000 C 
ATOM      8  C   UNL     1       6.002   4.940  17.565  0.00  0.00    +0.000 C 
ATOM      9  O   UNL     1       7.091   4.471  17.278  0.00  0.00    +0.000 OA
ATOM     10  O   UNL     1       5.397   5.968  16.896  0.00  0.00    +0.000 OA
ATOM     11  C   UNL     1       4.100   6.221  17.477  0.00  0.00    +0.000 C 
ATOM     12  C   UNL     1       3.823   7.711  17.357  0.00  0.00    +0.000 C 
ATOM     13  C   UNL     1       4.248   5.673  18.896  0.00  0.00    +0.000 C 
ATOM     14  C   UNL     1       3.004   5.362  19.733  0.00  0.00    +0.000 C 
BRANCH   3  16
ATOM     15  C   UNL     1       1.326   3.038  21.373  0.00  0.00    +0.000 C 
ATOM     16  C   UNL     1       0.957   3.851  20.136  0.00  0.00    +0.000 C 
ENDBRANCH   3  16
ENDBRANCH   1  14
BRANCH   2  17
ATOM     17  C   UNL     1       1.041   8.432  21.071  0.00  0.00    +0.000 A 
ATOM     18  C   UNL     1       1.013   9.302  19.994  0.00  0.00    +0.000 A 
ATOM     19  C   UNL     1       0.274  10.485  20.112  0.00  0.00    +0.000 A 
ATOM     20  C   UNL     1      -0.452  10.779  21.279  0.00  0.00    +0.000 A 
ATOM     21  C   UNL     1      -0.405   9.790  22.255  0.00  0.00    +0.000 A 
ATOM     22  N   UNL     1       0.326   8.655  22.193  0.00  0.00    +0.000 NA
BRANCH  20  23
ATOM     23  C   UNL     1      -1.235  12.033  21.440  0.00  0.00    +0.000 A 
ATOM     24  C   UNL     1      -1.061  12.791  22.620  0.00  0.00    +0.000 A 
ATOM     25  C   UNL     1      -1.759  13.977  22.857  0.00  0.00    +0.000 A 
ATOM     26  C   UNL     1      -2.643  14.459  21.905  0.00  0.00    +0.000 A 
ATOM     27  C   UNL     1      -2.837  13.746  20.728  0.00  0.00    +0.000 A 
ATOM     28  C   UNL     1      -2.166  12.528  20.486  0.00  0.00    +0.000 A 
ATOM     29  C   UNL     1      -2.501  11.829  19.191  0.00  0.00    +0.000 C 
ENDBRANCH  20  23
ENDBRANCH   2  17
TORSDOF 4
ENDMDL
MODEL 4
REMARK VINA RESULT:      -8.4      0.571      1.204
REMARK  Name = 
REMARK  8 active torsions:
REMARK  status: ('A' for Active; 'I' for Inactive)
REMARK    1  A    between atoms: C_1  and  C_2
REMARK    2  A    between atoms: C_2  and  C_3
REMARK    3  A    between atoms: C_4  and  C_5
REMARK    4  A    between atoms: C_11  and  C_12
REMARK    5  A    between atoms: C_14  and  C_15
REMARK    6  A    between atoms: C_16  and  C_17
REMARK    7  A    between atoms: C_20  and  C_21
REMARK    8  A    between atoms: C_26  and  C_27
REMARK                            x       y       z     vdW  Elec       q    Type
REMARK                         _______ _______ _______ _____ _____    ______ ____
ROOT
ATOM      1  C   UNL     1      -0.173  10.259  19.632  0.00  0.00    +0.000 C 
ATOM      2  C   UNL     1       1.138  10.006  19.454  0.00  0.00    +0.000 C 
ENDROOT
BRANCH   1  14
ATOM      3  C   UNL     1      -2.276  11.611  19.445  0.00  0.00    +0.000 C 
ATOM      4  C   UNL     1      -3.032  12.900  19.866  0.00  0.00    +0.000 C 
ATOM      5  C   UNL     1      -4.552  12.693  19.763  0.00  0.00    +0.000 C 
ATOM      6  C   UNL     1      -2.724  13.383  21.291  0.00  0.00    +0.000 C 
ATOM      7  C   UNL     1      -1.258  13.308  21.704  0.00  0.00    +0.000 C 
ATOM      8  C   UNL     1      -1.189  13.267  23.205  0.00  0.00    +0.000 C 
ATOM      9  O   UNL     1      -1.250  14.234  23.948  0.00  0.00    +0.000 OA
ATOM     10  O   UNL     1      -1.123  11.967  23.627  0.00  0.00    +0.000 OA
ATOM     11  C   UNL     1      -1.116  11.092  22.480  0.00  0.00    +0.000 C 
ATOM     12  C   UNL     1      -0.269   9.878  22.829  0.00  0.00    +0.000 C 
ATOM     13  C   UNL     1      -0.582  11.991  21.365  0.00  0.00    +0.000 C 
ATOM     14  C   UNL     1      -0.791  11.602  19.898  0.00  0.00    +0.000 C 
BRANCH   3  16
ATOM     15  C   UNL     1      -3.138  10.039  17.542  0.00  0.00    +0.000 C 
ATOM     16  C   UNL     1      -2.412  11.328  17.916  0.00  0.00    +0.000 C 
ENDBRANCH   3  16
ENDBRANCH   1  14
BRANCH   2  17
ATOM     17  C   UNL     1       1.623   8.642  19.207  0.00  0.00    +0.000 A 
ATOM     18  C   UNL     1       1.984   8.225  17.937  0.00  0.00    +0.000 A 
ATOM     19  C   UNL     1       2.361   6.889  17.755  0.00  0.00    +0.000 A 
ATOM     20  C   UNL     1       2.405   5.991  18.835  0.00  0.00    +0.000 A 
ATOM     21  C   UNL     1       2.096   6.552  20.069  0.00  0.00    +0.000 A 
ATOM     22  N   UNL     1       1.692   7.825  20.278  0.00  0.00    +0.000 NA
BRANCH  20  23
ATOM     23  C   UNL     1       2.787   4.563  18.674  0.00  0.00    +0.000 A 
ATOM     24  C   UNL     1       3.878   4.246  17.833  0.00  0.00    +0.000 A 
ATOM     25  C   UNL     1       4.301   2.933  17.620  0.00  0.00    +0.000 A 
ATOM     26  C   UNL     1       3.660   1.888  18.264  0.00  0.00    +0.000 A 
ATOM     27  C   UNL     1       2.587   2.158  19.105  0.00  0.00    +0.000 A 
ATOM     28  C   UNL     1       2.123   3.476  19.307  0.00  0.00    +0.000 A 
ATOM     29  C   UNL     1       0.921   3.629  20.207  0.00  0.00    +0.000 C 
ENDBRANCH  20  23
ENDBRANCH   2  17
TORSDOF 4
ENDMDL
MODEL 5
REMARK VINA RESULT:      -8.3      0.941      1.014
REMARK  Name = 
REMARK  8 active torsions:
REMARK  status: ('A' for Active; 'I' for Inactive)
REMARK    1  A    between atoms: C_1  and  C_2
REMARK    2  A    between atoms: C_2  and  C_3
REMARK    3  A    between atoms: C_4  and  C_5
REMARK    4  A    between atoms: C_11  and  C_12
REMARK    5  A    between atoms: C_14  and  C_15
REMARK    6  A    between atoms: C_16  and  C_17
REMARK    7  A    between atoms: C_20  and  C_21
REMARK    8  A    between atoms: C_26  and  C_27
REMARK                            x       y       z     vdW  Elec       q    Type
REMARK                         _______ _______ _______ _____ _____    ______ ____
ROOT
ATOM      1  C   UNL     1      -0.570  10.840  19.554  0.00  0.00    +0.000 C 
ATOM      2  C   UNL     1       0.770  10.725  19.474  0.00  0.00    +0.000 C 
ENDROOT
BRANCH   1  14
ATOM      3  C   UNL     1      -2.843  11.896  19.629  0.00  0.00    +0.000 C 
ATOM      4  C   UNL     1      -3.723  13.044  20.194  0.00  0.00    +0.000 C 
ATOM      5  C   UNL     1      -5.205  12.635  20.204  0.00  0.00    +0.000 C 
ATOM      6  C   UNL     1      -3.355  13.489  21.618  0.00  0.00    +0.000 C 
ATOM      7  C   UNL     1      -1.860  13.595  21.902  0.00  0.00    +0.000 C 
ATOM      8  C   UNL     1      -1.650  13.484  23.387  0.00  0.00    +0.000 C 
ATOM      9  O   UNL     1      -1.772  14.392  24.194  0.00  0.00    +0.000 OA
ATOM     10  O   UNL     1      -1.374  12.185  23.716  0.00  0.00    +0.000 OA
ATOM     11  C   UNL     1      -1.354  11.381  22.518  0.00  0.00    +0.000 C 
ATOM     12  C   UNL     1      -0.325  10.280  22.717  0.00  0.00    +0.000 C 
ATOM     13  C   UNL     1      -1.048  12.404  21.424  0.00  0.00    +0.000 C 
ATOM     14  C   UNL     1      -1.335  12.069  19.957  0.00  0.00    +0.000 C 
BRANCH   3  16
ATOM     15  C   UNL     1      -3.682  10.335  17.708  0.00  0.00    +0.000 C 
ATOM     16  C   UNL     1      -3.078  11.679  18.101  0.00  0.00    +0.000 C 
ENDBRANCH   3  16
ENDBRANCH   1  14
BRANCH   2  17
ATOM     17  C   UNL     1       1.403   9.463  19.073  0.00  0.00    +0.000 A 
ATOM     18  C   UNL     1       1.830   9.253  17.773  0.00  0.00    +0.000 A 
ATOM     19  C   UNL     1       2.352   7.998  17.437  0.00  0.00    +0.000 A 
ATOM     20  C   UNL     1       2.471   6.977  18.396  0.00  0.00    +0.000 A 
ATOM     21  C   UNL     1       2.080   7.340  19.680  0.00  0.00    +0.000 A 
ATOM     22  N   UNL     1       1.538   8.526  20.034  0.00  0.00    +0.000 NA
BRANCH  20  23
ATOM     23  C   UNL     1       3.007   5.630  18.069  0.00  0.00    +0.000 A 
ATOM     24  C   UNL     1       2.136   4.519  18.143  0.00  0.00    +0.000 A 
ATOM     25  C   UNL     1       2.556   3.219  17.858  0.00  0.00    +0.000 A 
ATOM     26  C   UNL     1       3.864   2.986  17.464  0.00  0.00    +0.000 A 
ATOM     27  C   UNL     1       4.751   4.053  17.372  0.00  0.00    +0.000 A 
ATOM     28  C   UNL     1       4.354   5.370  17.688  0.00  0.00    +0.000 A 
ATOM     29  C   UNL     1       5.424   6.430  17.594  0.00  0.00    +0.000 C 
ENDBRANCH  20  23
ENDBRANCH   2  17
TORSDOF 4
ENDMDL
MODEL 6
REMARK VINA RESULT:      -8.2      1.203      1.945
REMARK  Name = 
REMARK  8 active torsions:
REMARK  status: ('A' for Active; 'I' for Inactive)
REMARK    1  A    between atoms: C_1  and  C_2
REMARK    2  A    between atoms: C_2  and  C_3
REMARK    3  A    between atoms: C_4  and  C_5
REMARK    4  A    between atoms: C_11  and  C_12
REMARK    5  A    between atoms: C_14  and  C_15
REMARK    6  A    between atoms: C_16  and  C_17
REMARK    7  A    between atoms: C_20  and  C_21
REMARK    8  A    between atoms: C_26  and  C_27
REMARK                            x       y       z     vdW  Elec       q    Type
REMARK                         _______ _______ _______ _____ _____    ______ ____
ROOT
ATOM      1  C   UNL     1      -0.574  10.808  19.655  0.00  0.00    +0.000 C 
ATOM      2  C   UNL     1       0.711  10.779  19.251  0.00  0.00    +0.000 C 
ENDROOT
BRANCH   1  14
ATOM      3  C   UNL     1      -2.863  11.833  19.644  0.00  0.00    +0.000 C 
ATOM      4  C   UNL     1      -3.774  12.980  20.160  0.00  0.00    +0.000 C 
ATOM      5  C   UNL     1      -5.250  12.550  20.136  0.00  0.00    +0.000 C 
ATOM      6  C   UNL     1      -3.452  13.458  21.583  0.00  0.00    +0.000 C 
ATOM      7  C   UNL     1      -1.968  13.591  21.908  0.00  0.00    +0.000 C 
ATOM      8  C   UNL     1      -1.799  13.514  23.400  0.00  0.00    +0.000 C 
ATOM      9  O   UNL     1      -1.956  14.436  24.184  0.00  0.00    +0.000 OA
ATOM     10  O   UNL     1      -1.515  12.226  23.764  0.00  0.00    +0.000 OA
ATOM     11  C   UNL     1      -1.450  11.398  22.583  0.00  0.00    +0.000 C 
ATOM     12  C   UNL     1      -0.412  10.316  22.834  0.00  0.00    +0.000 C 
ATOM     13  C   UNL     1      -1.127  12.402  21.478  0.00  0.00    +0.000 C 
ATOM     14  C   UNL     1      -1.367  12.034  20.011  0.00  0.00    +0.000 C 
BRANCH   3  16
ATOM     15  C   UNL     1      -3.407  10.153  17.716  0.00  0.00    +0.000 C 
ATOM     16  C   UNL     1      -3.050  11.582  18.114  0.00  0.00    +0.000 C 
ENDBRANCH   3  16
ENDBRANCH   1  14
BRANCH   2  17
ATOM     17  C   UNL     1       1.382   9.511  18.938  0.00  0.00    +0.000 A 
ATOM     18  C   UNL     1       1.531   8.521  19.894  0.00  0.00    +0.000 A 
ATOM     19  C   UNL     1       2.251   7.369  19.554  0.00  0.00    +0.000 A 
ATOM     20  C   UNL     1       2.788   7.198  18.266  0.00  0.00    +0.000 A 
ATOM     21  C   UNL     1       2.502   8.229  17.378  0.00  0.00    +0.000 A 
ATOM     22  N   UNL     1       1.844   9.370  17.679  0.00  0.00    +0.000 NA
BRANCH  20  23
ATOM     23  C   UNL     1       3.569   5.995  17.878  0.00  0.00    +0.000 A 
ATOM     24  C   UNL     1       4.971   6.115  17.735  0.00  0.00    +0.000 A 
ATOM     25  C   UNL     1       5.780   5.038  17.369  0.00  0.00    +0.000 A 
ATOM     26  C   UNL     1       5.216   3.792  17.154  0.00  0.00    +0.000 A 
ATOM     27  C   UNL     1       3.842   3.629  17.291  0.00  0.00    +0.000 A 
ATOM     28  C   UNL     1       3.003   4.714  17.628  0.00  0.00    +0.000 A 
ATOM     29  C   UNL     1       1.525   4.416  17.699  0.00  0.00    +0.000 C 
ENDBRANCH  20  23
ENDBRANCH   2  17
TORSDOF 4
ENDMDL
MODEL 7
REMARK VINA RESULT:      -8.2      3.513      9.515
REMARK  Name = 
REMARK  8 active torsions:
REMARK  status: ('A' for Active; 'I' for Inactive)
REMARK    1  A    between atoms: C_1  and  C_2
REMARK    2  A    between atoms: C_2  and  C_3
REMARK    3  A    between atoms: C_4  and  C_5
REMARK    4  A    between atoms: C_11  and  C_12
REMARK    5  A    between atoms: C_14  and  C_15
REMARK    6  A    between atoms: C_16  and  C_17
REMARK    7  A    between atoms: C_20  and  C_21
REMARK    8  A    between atoms: C_26  and  C_27
REMARK                            x       y       z     vdW  Elec       q    Type
REMARK                         _______ _______ _______ _____ _____    ______ ____
ROOT
ATOM      1  C   UNL     1       2.262   6.705  19.743  0.00  0.00    +0.000 C 
ATOM      2  C   UNL     1       1.896   7.361  20.861  0.00  0.00    +0.000 C 
ENDROOT
BRANCH   1  14
ATOM      3  C   UNL     1       2.206   4.268  19.150  0.00  0.00    +0.000 C 
ATOM      4  C   UNL     1       3.028   2.981  18.874  0.00  0.00    +0.000 C 
ATOM      5  C   UNL     1       2.228   2.008  17.992  0.00  0.00    +0.000 C 
ATOM      6  C   UNL     1       4.381   3.223  18.190  0.00  0.00    +0.000 C 
ATOM      7  C   UNL     1       5.173   4.417  18.713  0.00  0.00    +0.000 C 
ATOM      8  C   UNL     1       6.137   4.853  17.644  0.00  0.00    +0.000 C 
ATOM      9  O   UNL     1       7.226   4.350  17.419  0.00  0.00    +0.000 OA
ATOM     10  O   UNL     1       5.577   5.857  16.902  0.00  0.00    +0.000 OA
ATOM     11  C   UNL     1       4.267   6.164  17.423  0.00  0.00    +0.000 C 
ATOM     12  C   UNL     1       4.025   7.651  17.219  0.00  0.00    +0.000 C 
ATOM     13  C   UNL     1       4.353   5.686  18.872  0.00  0.00    +0.000 C 
ATOM     14  C   UNL     1       3.075   5.442  19.679  0.00  0.00    +0.000 C 
BRANCH   3  16
ATOM     15  C   UNL     1       1.259   3.094  21.286  0.00  0.00    +0.000 C 
ATOM     16  C   UNL     1       0.984   3.992  20.083  0.00  0.00    +0.000 C 
ENDBRANCH   3  16
ENDBRANCH   1  14
BRANCH   2  17
ATOM     17  C   UNL     1       1.104   8.596  20.793  0.00  0.00    +0.000 A 
ATOM     18  C   UNL     1       0.924   9.271  19.598  0.00  0.00    +0.000 A 
ATOM     19  C   UNL     1       0.227  10.485  19.616  0.00  0.00    +0.000 A 
ATOM     20  C   UNL     1      -0.309  11.000  20.809  0.00  0.00    +0.000 A 
ATOM     21  C   UNL     1      -0.128  10.189  21.924  0.00  0.00    +0.000 A 
ATOM     22  N   UNL     1       0.571   9.032  21.952  0.00  0.00    +0.000 NA
BRANCH  20  23
ATOM     23  C   UNL     1      -1.042  12.292  20.864  0.00  0.00    +0.000 A 
ATOM     24  C   UNL     1      -2.444  12.282  20.683  0.00  0.00    +0.000 A 
ATOM     25  C   UNL     1      -3.210  13.449  20.715  0.00  0.00    +0.000 A 
ATOM     26  C   UNL     1      -2.601  14.670  20.953  0.00  0.00    +0.000 A 
ATOM     27  C   UNL     1      -1.224  14.722  21.143  0.00  0.00    +0.000 A 
ATOM     28  C   UNL     1      -0.429  13.557  21.082  0.00  0.00    +0.000 A 
ATOM     29  C   UNL     1       1.057  13.756  21.258  0.00  0.00    +0.000 C 
ENDBRANCH  20  23
ENDBRANCH   2  17
TORSDOF 4
ENDMDL
MODEL 8
REMARK VINA RESULT:      -8.2      3.649      9.459
REMARK  Name = 
REMARK  8 active torsions:
REMARK  status: ('A' for Active; 'I' for Inactive)
REMARK    1  A    between atoms: C_1  and  C_2
REMARK    2  A    between atoms: C_2  and  C_3
REMARK    3  A    between atoms: C_4  and  C_5
REMARK    4  A    between atoms: C_11  and  C_12
REMARK    5  A    between atoms: C_14  and  C_15
REMARK    6  A    between atoms: C_16  and  C_17
REMARK    7  A    between atoms: C_20  and  C_21
REMARK    8  A    between atoms: C_26  and  C_27
REMARK                            x       y       z     vdW  Elec       q    Type
REMARK                         _______ _______ _______ _____ _____    ______ ____
ROOT
ATOM      1  C   UNL     1       2.750   7.667  18.162  0.00  0.00    +0.000 C 
ATOM      2  C   UNL     1       1.703   8.409  17.755  0.00  0.00    +0.000 C 
ENDROOT
BRANCH   1  14
ATOM      3  C   UNL     1       4.583   5.992  17.807  0.00  0.00    +0.000 C 
ATOM      4  C   UNL     1       4.953   4.501  17.580  0.00  0.00    +0.000 C 
ATOM      5  C   UNL     1       6.393   4.225  18.043  0.00  0.00    +0.000 C 
ATOM      6  C   UNL     1       4.035   3.500  18.297  0.00  0.00    +0.000 C 
ATOM      7  C   UNL     1       2.547   3.830  18.250  0.00  0.00    +0.000 C 
ATOM      8  C   UNL     1       1.870   3.134  19.399  0.00  0.00    +0.000 C 
ATOM      9  O   UNL     1       1.514   1.966  19.414  0.00  0.00    +0.000 OA
ATOM     10  O   UNL     1       1.778   3.988  20.464  0.00  0.00    +0.000 OA
ATOM     11  C   UNL     1       2.340   5.266  20.102  0.00  0.00    +0.000 C 
ATOM     12  C   UNL     1       1.561   6.340  20.846  0.00  0.00    +0.000 C 
ATOM     13  C   UNL     1       2.219   5.276  18.579  0.00  0.00    +0.000 C 
ATOM     14  C   UNL     1       3.054   6.254  17.747  0.00  0.00    +0.000 C 
BRANCH   3  16
ATOM     15  C   UNL     1       5.281   6.599  15.362  0.00  0.00    +0.000 C 
ATOM     16  C   UNL     1       5.367   6.941  16.846  0.00  0.00    +0.000 C 
ENDBRANCH   3  16
ENDBRANCH   1  14
BRANCH   2  17
ATOM     17  C   UNL     1       1.509   9.781  18.240  0.00  0.00    +0.000 A 
ATOM     18  C   UNL     1       0.520  10.087  19.159  0.00  0.00    +0.000 A 
ATOM     19  C   UNL     1       0.336  11.428  19.519  0.00  0.00    +0.000 A 
ATOM     20  C   UNL     1       1.149  12.444  18.988  0.00  0.00    +0.000 A 
ATOM     21  C   UNL     1       2.154  11.997  18.137  0.00  0.00    +0.000 A 
ATOM     22  N   UNL     1       2.339  10.719  17.738  0.00  0.00    +0.000 NA
BRANCH  20  23
ATOM     23  C   UNL     1       0.971  13.877  19.339  0.00  0.00    +0.000 A 
ATOM     24  C   UNL     1      -0.070  14.601  18.713  0.00  0.00    +0.000 A 
ATOM     25  C   UNL     1      -0.306  15.952  18.979  0.00  0.00    +0.000 A 
ATOM     26  C   UNL     1       0.480  16.622  19.902  0.00  0.00    +0.000 A 
ATOM     27  C   UNL     1       1.510  15.944  20.544  0.00  0.00    +0.000 A 
ATOM     28  C   UNL     1       1.785  14.588  20.264  0.00  0.00    +0.000 A 
ATOM     29  C   UNL     1       2.959  13.982  20.993  0.00  0.00    +0.000 C 
ENDBRANCH  20  23
ENDBRANCH   2  17
TORSDOF 4
ENDMDL
MODEL 9
REMARK VINA RESULT:      -8.1      3.306      9.464
REMARK  Name = 
REMARK  8 active torsions:
REMARK  status: ('A' for Active; 'I' for Inactive)
REMARK    1  A    between atoms: C_1  and  C_2
REMARK    2  A    between atoms: C_2  and  C_3
REMARK    3  A    between atoms: C_4  and  C_5
REMARK    4  A    between atoms: C_11  and  C_12
REMARK    5  A    between atoms: C_14  and  C_15
REMARK    6  A    between atoms: C_16  and  C_17
REMARK    7  A    between atoms: C_20  and  C_21
REMARK    8  A    between atoms: C_26  and  C_27
REMARK                            x       y       z     vdW  Elec       q    Type
REMARK                         _______ _______ _______ _____ _____    ______ ____
ROOT
ATOM      1  C   UNL     1       1.890   6.681  20.223  0.00  0.00    +0.000 C 
ATOM      2  C   UNL     1       2.088   7.615  21.173  0.00  0.00    +0.000 C 
ENDROOT
BRANCH   1  14
ATOM      3  C   UNL     1       1.935   4.311  19.404  0.00  0.00    +0.000 C 
ATOM      4  C   UNL     1       2.806   3.128  18.903  0.00  0.00    +0.000 C 
ATOM      5  C   UNL     1       1.971   2.172  18.035  0.00  0.00    +0.000 C 
ATOM      6  C   UNL     1       4.037   3.544  18.084  0.00  0.00    +0.000 C 
ATOM      7  C   UNL     1       4.800   4.751  18.620  0.00  0.00    +0.000 C 
ATOM      8  C   UNL     1       5.581   5.360  17.488  0.00  0.00    +0.000 C 
ATOM      9  O   UNL     1       6.665   4.974  17.081  0.00  0.00    +0.000 OA
ATOM     10  O   UNL     1       4.857   6.374  16.924  0.00  0.00    +0.000 OA
ATOM     11  C   UNL     1       3.607   6.521  17.631  0.00  0.00    +0.000 C 
ATOM     12  C   UNL     1       3.233   7.994  17.606  0.00  0.00    +0.000 C 
ATOM     13  C   UNL     1       3.918   5.926  19.004  0.00  0.00    +0.000 C 
ATOM     14  C   UNL     1       2.778   5.503  19.934  0.00  0.00    +0.000 C 
BRANCH   3  16
ATOM     15  C   UNL     1       1.391   2.972  21.583  0.00  0.00    +0.000 C 
ATOM     16  C   UNL     1       0.871   3.850  20.449  0.00  0.00    +0.000 C 
ENDBRANCH   3  16
ENDBRANCH   1  14
BRANCH   2  17
ATOM     17  C   UNL     1       1.148   8.729  21.353  0.00  0.00    +0.000 A 
ATOM     18  C   UNL     1       0.417   8.872  22.520  0.00  0.00    +0.000 A 
ATOM     19  C   UNL     1      -0.521   9.909  22.596  0.00  0.00    +0.000 A 
ATOM     20  C   UNL     1      -0.703  10.807  21.530  0.00  0.00    +0.000 A 
ATOM     21  C   UNL     1       0.146  10.603  20.448  0.00  0.00    +0.000 A 
ATOM     22  N   UNL     1       1.036   9.593  20.323  0.00  0.00    +0.000 NA
BRANCH  20  23
ATOM     23  C   UNL     1      -1.700  11.909  21.574  0.00  0.00    +0.000 A 
ATOM     24  C   UNL     1      -1.936  12.558  22.807  0.00  0.00    +0.000 A 
ATOM     25  C   UNL     1      -2.858  13.599  22.940  0.00  0.00    +0.000 A 
ATOM     26  C   UNL     1      -3.561  14.043  21.833  0.00  0.00    +0.000 A 
ATOM     27  C   UNL     1      -3.353  13.436  20.600  0.00  0.00    +0.000 A 
ATOM     28  C   UNL     1      -2.450  12.361  20.453  0.00  0.00    +0.000 A 
ATOM     29  C   UNL     1      -2.351  11.759  19.073  0.00  0.00    +0.000 C 
ENDBRANCH  20  23
ENDBRANCH   2  17
TORSDOF 4
ENDMDL
