MODEL 1
REMARK VINA RESULT:      -7.2      0.000      0.000
REMARK  Name = 
REMARK  6 active torsions:
REMARK  status: ('A' for Active; 'I' for Inactive)
REMARK    1  A    between atoms: C_1  and  O_2
REMARK    2  A    between atoms: O_2  and  C_3
REMARK    3  A    between atoms: C_7  and  C_8
REMARK    4  A    between atoms: C_9  and  C_10
REMARK    5  A    between atoms: C_10  and  C_12
REMARK    6  A    between atoms: C_18  and  O_19
REMARK                            x       y       z     vdW  Elec       q    Type
REMARK                         _______ _______ _______ _____ _____    ______ ____
ROOT
ATOM      1  C   UNL     1       2.395   4.147  20.107  0.00  0.00    +0.000 A 
ATOM      2  C   UNL     1       1.312   3.538  19.465  0.00  0.00    +0.000 A 
ATOM      3  C   UNL     1       1.253   3.458  18.074  0.00  0.00    +0.000 A 
ATOM      4  C   UNL     1       2.292   3.978  17.301  0.00  0.00    +0.000 A 
ATOM      5  C   UNL     1       3.401   4.586  17.908  0.00  0.00    +0.000 A 
ATOM      6  C   UNL     1       3.425   4.681  19.320  0.00  0.00    +0.000 A 
ENDROOT
BRANCH   1   8
ATOM      7  C   UNL     1       1.995   2.956  22.152  0.00  0.00    +0.000 C 
ATOM      8  O   UNL     1       2.265   4.172  21.470  0.00  0.00    +0.000 OA
ENDBRANCH   1   8
BRANCH   5   9
ATOM      9  C   UNL     1       4.435   5.165  17.023  0.00  0.00    +0.000 C 
ATOM     10  C   UNL     1       5.593   4.551  16.744  0.00  0.00    +0.000 C 
BRANCH  10  11
ATOM     11  C   UNL     1       6.651   5.226  15.941  0.00  0.00    +0.000 C 
ATOM     12  O   UNL     1       7.400   6.064  16.424  0.00  0.00    +0.000 OA
BRANCH  11  13
ATOM     13  C   UNL     1       6.745   4.825  14.510  0.00  0.00    +0.000 A 
ATOM     14  C   UNL     1       7.673   5.470  13.684  0.00  0.00    +0.000 A 
ATOM     15  C   UNL     1       7.773   5.114  12.337  0.00  0.00    +0.000 A 
ATOM     16  C   UNL     1       6.962   4.104  11.815  0.00  0.00    +0.000 A 
ATOM     17  C   UNL     1       6.055   3.442  12.639  0.00  0.00    +0.000 A 
ATOM     18  C   UNL     1       5.947   3.798  13.984  0.00  0.00    +0.000 A 
ENDBRANCH  11  13
ENDBRANCH  10  11
ENDBRANCH   5   9
BRANCH   6  19
ATOM     19  O   UNL     1       4.446   5.375  19.919  0.00  0.00    +0.000 OA
ATOM     20  H   UNL     1       5.252   4.881  19.682  0.00  0.00    +0.000 HD
ENDBRANCH   6  19
TORSDOF 5
ENDMDL
MODEL 2
REMARK VINA RESULT:      -7.2      1.262      1.422
REMARK  Name = 
REMARK  6 active torsions:
REMARK  status: ('A' for Active; 'I' for Inactive)
REMARK    1  A    between atoms: C_1  and  O_2
REMARK    2  A    between atoms: O_2  and  C_3
REMARK    3  A    between atoms: C_7  and  C_8
REMARK    4  A    between atoms: C_9  and  C_10
REMARK    5  A    between atoms: C_10  and  C_12
REMARK    6  A    between atoms: C_18  and  O_19
REMARK                            x       y       z     vdW  Elec       q    Type
REMARK                         _______ _______ _______ _____ _____    ______ ____
ROOT
ATOM      1  C   UNL     1       2.735   3.650  20.011  0.00  0.00    +0.000 A 
ATOM      2  C   UNL     1       1.893   4.715  20.344  0.00  0.00    +0.000 A 
ATOM      3  C   UNL     1       2.141   6.004  19.871  0.00  0.00    +0.000 A 
ATOM      4  C   UNL     1       3.237   6.242  19.041  0.00  0.00    +0.000 A 
ATOM      5  C   UNL     1       4.098   5.197  18.674  0.00  0.00    +0.000 A 
ATOM      6  C   UNL     1       3.843   3.904  19.189  0.00  0.00    +0.000 A 
ENDROOT
BRANCH   1   8
ATOM      7  C   UNL     1       1.692   2.511  21.847  0.00  0.00    +0.000 C 
ATOM      8  O   UNL     1       2.363   2.470  20.596  0.00  0.00    +0.000 OA
ENDBRANCH   1   8
BRANCH   5   9
ATOM      9  C   UNL     1       5.270   5.537  17.837  0.00  0.00    +0.000 C 
ATOM     10  C   UNL     1       5.367   5.214  16.540  0.00  0.00    +0.000 C 
BRANCH  10  11
ATOM     11  C   UNL     1       6.616   5.475  15.771  0.00  0.00    +0.000 C 
ATOM     12  O   UNL     1       7.541   6.129  16.233  0.00  0.00    +0.000 OA
BRANCH  11  13
ATOM     13  C   UNL     1       6.675   4.897  14.400  0.00  0.00    +0.000 A 
ATOM     14  C   UNL     1       7.663   5.346  13.516  0.00  0.00    +0.000 A 
ATOM     15  C   UNL     1       7.732   4.821  12.223  0.00  0.00    +0.000 A 
ATOM     16  C   UNL     1       6.830   3.838  11.815  0.00  0.00    +0.000 A 
ATOM     17  C   UNL     1       5.862   3.370  12.699  0.00  0.00    +0.000 A 
ATOM     18  C   UNL     1       5.784   3.894  13.990  0.00  0.00    +0.000 A 
ENDBRANCH  11  13
ENDBRANCH  10  11
ENDBRANCH   5   9
BRANCH   6  19
ATOM     19  O   UNL     1       4.741   2.900  18.932  0.00  0.00    +0.000 OA
ATOM     20  H   UNL     1       4.384   2.443  18.149  0.00  0.00    +0.000 HD
ENDBRANCH   6  19
TORSDOF 5
ENDMDL
MODEL 3
REMARK VINA RESULT:      -7.1      0.442      1.194
REMARK  Name = 
REMARK  6 active torsions:
REMARK  status: ('A' for Active; 'I' for Inactive)
REMARK    1  A    between atoms: C_1  and  O_2
REMARK    2  A    between atoms: O_2  and  C_3
REMARK    3  A    between atoms: C_7  and  C_8
REMARK    4  A    between atoms: C_9  and  C_10
REMARK    5  A    between atoms: C_10  and  C_12
REMARK    6  A    between atoms: C_18  and  O_19
REMARK                            x       y       z     vdW  Elec       q    Type
REMARK                         _______ _______ _______ _____ _____    ______ ____
ROOT
ATOM      1  C   UNL     1       2.287   3.769  20.041  0.00  0.00    +0.000 A 
ATOM      2  C   UNL     1       1.521   2.799  19.388  0.00  0.00    +0.000 A 
ATOM      3  C   UNL     1       1.705   2.530  18.031  0.00  0.00    +0.000 A 
ATOM      4  C   UNL     1       2.676   3.225  17.309  0.00  0.00    +0.000 A 
ATOM      5  C   UNL     1       3.473   4.197  17.932  0.00  0.00    +0.000 A 
ATOM      6  C   UNL     1       3.248   4.473  19.302  0.00  0.00    +0.000 A 
ENDROOT
BRANCH   1   8
ATOM      7  C   UNL     1       1.668   2.771  22.135  0.00  0.00    +0.000 C 
ATOM      8  O   UNL     1       1.941   3.928  21.356  0.00  0.00    +0.000 OA
ENDBRANCH   1   8
BRANCH   5   9
ATOM      9  C   UNL     1       4.441   4.931  17.089  0.00  0.00    +0.000 C 
ATOM     10  C   UNL     1       5.536   4.366  16.561  0.00  0.00    +0.000 C 
BRANCH  10  11
ATOM     11  C   UNL     1       6.541   5.174  15.817  0.00  0.00    +0.000 C 
ATOM     12  O   UNL     1       7.164   6.085  16.345  0.00  0.00    +0.000 OA
BRANCH  11  13
ATOM     13  C   UNL     1       6.744   4.815  14.386  0.00  0.00    +0.000 A 
ATOM     14  C   UNL     1       5.964   3.799  13.824  0.00  0.00    +0.000 A 
ATOM     15  C   UNL     1       6.143   3.443  12.485  0.00  0.00    +0.000 A 
ATOM     16  C   UNL     1       7.085   4.109  11.701  0.00  0.00    +0.000 A 
ATOM     17  C   UNL     1       7.846   5.139  12.249  0.00  0.00    +0.000 A 
ATOM     18  C   UNL     1       7.676   5.495  13.587  0.00  0.00    +0.000 A 
ENDBRANCH  11  13
ENDBRANCH  10  11
ENDBRANCH   5   9
BRANCH   6  19
ATOM     19  O   UNL     1       3.940   5.500  19.893  0.00  0.00    +0.000 OA
ATOM     20  H   UNL     1       4.789   5.531  19.416  0.00  0.00    +0.000 HD
ENDBRANCH   6  19
TORSDOF 5
ENDMDL
MODEL 4
REMARK VINA RESULT:      -7.0      0.985      1.460
REMARK  Name = 
REMARK  6 active torsions:
REMARK  status: ('A' for Active; 'I' for Inactive)
REMARK    1  A    between atoms: C_1  and  O_2
REMARK    2  A    between atoms: O_2  and  C_3
REMARK    3  A    between atoms: C_7  and  C_8
REMARK    4  A    between atoms: C_9  and  C_10
REMARK    5  A    between atoms: C_10  and  C_12
REMARK    6  A    between atoms: C_18  and  O_19
REMARK                            x       y       z     vdW  Elec       q    Type
REMARK                         _______ _______ _______ _____ _____    ______ ____
ROOT
ATOM      1  C   UNL     1       2.886   3.134  19.899  0.00  0.00    +0.000 A 
ATOM      2  C   UNL     1       1.616   3.369  19.363  0.00  0.00    +0.000 A 
ATOM      3  C   UNL     1       1.460   3.804  18.047  0.00  0.00    +0.000 A 
ATOM      4  C   UNL     1       2.581   3.998  17.239  0.00  0.00    +0.000 A 
ATOM      5  C   UNL     1       3.871   3.762  17.737  0.00  0.00    +0.000 A 
ATOM      6  C   UNL     1       4.007   3.348  19.083  0.00  0.00    +0.000 A 
ENDROOT
BRANCH   1   8
ATOM      7  C   UNL     1       1.594   2.460  21.805  0.00  0.00    +0.000 C 
ATOM      8  O   UNL     1       2.851   2.754  21.214  0.00  0.00    +0.000 OA
ENDBRANCH   1   8
BRANCH   5   9
ATOM      9  C   UNL     1       5.013   4.044  16.840  0.00  0.00    +0.000 C 
ATOM     10  C   UNL     1       5.567   5.257  16.711  0.00  0.00    +0.000 C 
BRANCH  10  11
ATOM     11  C   UNL     1       6.638   5.516  15.709  0.00  0.00    +0.000 C 
ATOM     12  O   UNL     1       7.580   6.262  15.939  0.00  0.00    +0.000 OA
BRANCH  11  13
ATOM     13  C   UNL     1       6.497   4.816  14.402  0.00  0.00    +0.000 A 
ATOM     14  C   UNL     1       5.304   4.143  14.117  0.00  0.00    +0.000 A 
ATOM     15  C   UNL     1       5.154   3.475  12.899  0.00  0.00    +0.000 A 
ATOM     16  C   UNL     1       6.184   3.491  11.958  0.00  0.00    +0.000 A 
ATOM     17  C   UNL     1       7.364   4.181  12.226  0.00  0.00    +0.000 A 
ATOM     18  C   UNL     1       7.522   4.845  13.443  0.00  0.00    +0.000 A 
ENDBRANCH  11  13
ENDBRANCH  10  11
ENDBRANCH   5   9
BRANCH   6  19
ATOM     19  O   UNL     1       5.266   3.226  19.615  0.00  0.00    +0.000 OA
ATOM     20  H   UNL     1       5.829   2.977  18.860  0.00  0.00    +0.000 HD
ENDBRANCH   6  19
TORSDOF 5
ENDMDL
MODEL 5
REMARK VINA RESULT:      -7.0      1.273      1.925
REMARK  Name = 
REMARK  6 active torsions:
REMARK  status: ('A' for Active; 'I' for Inactive)
REMARK    1  A    between atoms: C_1  and  O_2
REMARK    2  A    between atoms: O_2  and  C_3
REMARK    3  A    between atoms: C_7  and  C_8
REMARK    4  A    between atoms: C_9  and  C_10
REMARK    5  A    between atoms: C_10  and  C_12
REMARK    6  A    between atoms: C_18  and  O_19
REMARK                            x       y       z     vdW  Elec       q    Type
REMARK                         _______ _______ _______ _____ _____    ______ ____
ROOT
ATOM      1  C   UNL     1       2.103   3.996  19.929  0.00  0.00    +0.000 A 
ATOM      2  C   UNL     1       1.664   5.308  20.133  0.00  0.00    +0.000 A 
ATOM      3  C   UNL     1       2.416   6.395  19.688  0.00  0.00    +0.000 A 
ATOM      4  C   UNL     1       3.618   6.182  19.015  0.00  0.00    +0.000 A 
ATOM      5  C   UNL     1       4.086   4.881  18.779  0.00  0.00    +0.000 A 
ATOM      6  C   UNL     1       3.322   3.794  19.265  0.00  0.00    +0.000 A 
ENDROOT
BRANCH   1   8
ATOM      7  C   UNL     1       1.530   2.575  21.776  0.00  0.00    +0.000 C 
ATOM      8  O   UNL     1       1.262   3.059  20.468  0.00  0.00    +0.000 OA
ENDBRANCH   1   8
BRANCH   5   9
ATOM      9  C   UNL     1       5.397   4.735  18.109  0.00  0.00    +0.000 C 
ATOM     10  C   UNL     1       5.569   4.882  16.788  0.00  0.00    +0.000 C 
BRANCH  10  11
ATOM     11  C   UNL     1       6.885   4.610  16.145  0.00  0.00    +0.000 C 
ATOM     12  O   UNL     1       7.916   4.494  16.794  0.00  0.00    +0.000 OA
BRANCH  11  13
ATOM     13  C   UNL     1       6.880   4.492  14.661  0.00  0.00    +0.000 A 
ATOM     14  C   UNL     1       5.978   3.610  14.054  0.00  0.00    +0.000 A 
ATOM     15  C   UNL     1       5.961   3.480  12.663  0.00  0.00    +0.000 A 
ATOM     16  C   UNL     1       6.828   4.238  11.875  0.00  0.00    +0.000 A 
ATOM     17  C   UNL     1       7.709   5.135  12.473  0.00  0.00    +0.000 A 
ATOM     18  C   UNL     1       7.735   5.266  13.862  0.00  0.00    +0.000 A 
ENDBRANCH  11  13
ENDBRANCH  10  11
ENDBRANCH   5   9
BRANCH   6  19
ATOM     19  O   UNL     1       3.825   2.523  19.143  0.00  0.00    +0.000 OA
ATOM     20  H   UNL     1       4.520   2.467  19.823  0.00  0.00    +0.000 HD
ENDBRANCH   6  19
TORSDOF 5
ENDMDL
MODEL 6
REMARK VINA RESULT:      -6.9      1.664      2.433
REMARK  Name = 
REMARK  6 active torsions:
REMARK  status: ('A' for Active; 'I' for Inactive)
REMARK    1  A    between atoms: C_1  and  O_2
REMARK    2  A    between atoms: O_2  and  C_3
REMARK    3  A    between atoms: C_7  and  C_8
REMARK    4  A    between atoms: C_9  and  C_10
REMARK    5  A    between atoms: C_10  and  C_12
REMARK    6  A    between atoms: C_18  and  O_19
REMARK                            x       y       z     vdW  Elec       q    Type
REMARK                         _______ _______ _______ _____ _____    ______ ____
ROOT
ATOM      1  C   UNL     1       2.854   3.710  18.865  0.00  0.00    +0.000 A 
ATOM      2  C   UNL     1       2.449   5.032  19.074  0.00  0.00    +0.000 A 
ATOM      3  C   UNL     1       3.003   6.079  18.337  0.00  0.00    +0.000 A 
ATOM      4  C   UNL     1       3.967   5.813  17.364  0.00  0.00    +0.000 A 
ATOM      5  C   UNL     1       4.390   4.499  17.117  0.00  0.00    +0.000 A 
ATOM      6  C   UNL     1       3.836   3.456  17.896  0.00  0.00    +0.000 A 
ENDROOT
BRANCH   1   8
ATOM      7  C   UNL     1       1.076   3.240  20.407  0.00  0.00    +0.000 C 
ATOM      8  O   UNL     1       2.237   2.822  19.704  0.00  0.00    +0.000 OA
ENDBRANCH   1   8
BRANCH   5   9
ATOM      9  C   UNL     1       5.456   4.301  16.110  0.00  0.00    +0.000 C 
ATOM     10  C   UNL     1       5.697   5.164  15.114  0.00  0.00    +0.000 C 
BRANCH  10  11
ATOM     11  C   UNL     1       6.703   4.863  14.057  0.00  0.00    +0.000 C 
ATOM     12  O   UNL     1       7.814   5.376  14.050  0.00  0.00    +0.000 OA
BRANCH  11  13
ATOM     13  C   UNL     1       6.280   3.902  13.001  0.00  0.00    +0.000 A 
ATOM     14  C   UNL     1       4.929   3.840  12.642  0.00  0.00    +0.000 A 
ATOM     15  C   UNL     1       4.510   2.941  11.658  0.00  0.00    +0.000 A 
ATOM     16  C   UNL     1       5.437   2.117  11.019  0.00  0.00    +0.000 A 
ATOM     17  C   UNL     1       6.786   2.193  11.355  0.00  0.00    +0.000 A 
ATOM     18  C   UNL     1       7.210   3.084  12.340  0.00  0.00    +0.000 A 
ENDBRANCH  11  13
ENDBRANCH  10  11
ENDBRANCH   5   9
BRANCH   6  19
ATOM     19  O   UNL     1       4.325   2.183  17.744  0.00  0.00    +0.000 OA
ATOM     20  H   UNL     1       3.891   1.667  18.447  0.00  0.00    +0.000 HD
ENDBRANCH   6  19
TORSDOF 5
ENDMDL
MODEL 7
REMARK VINA RESULT:      -6.9      3.479      4.445
REMARK  Name = 
REMARK  6 active torsions:
REMARK  status: ('A' for Active; 'I' for Inactive)
REMARK    1  A    between atoms: C_1  and  O_2
REMARK    2  A    between atoms: O_2  and  C_3
REMARK    3  A    between atoms: C_7  and  C_8
REMARK    4  A    between atoms: C_9  and  C_10
REMARK    5  A    between atoms: C_10  and  C_12
REMARK    6  A    between atoms: C_18  and  O_19
REMARK                            x       y       z     vdW  Elec       q    Type
REMARK                         _______ _______ _______ _____ _____    ______ ____
ROOT
ATOM      1  C   UNL     1       1.075   8.829  20.343  0.00  0.00    +0.000 A 
ATOM      2  C   UNL     1       0.919   9.812  19.361  0.00  0.00    +0.000 A 
ATOM      3  C   UNL     1       1.494   9.664  18.098  0.00  0.00    +0.000 A 
ATOM      4  C   UNL     1       2.227   8.516  17.797  0.00  0.00    +0.000 A 
ATOM      5  C   UNL     1       2.396   7.503  18.751  0.00  0.00    +0.000 A 
ATOM      6  C   UNL     1       1.827   7.687  20.034  0.00  0.00    +0.000 A 
ENDROOT
BRANCH   1   8
ATOM      7  C   UNL     1       0.056  10.501  21.731  0.00  0.00    +0.000 C 
ATOM      8  O   UNL     1       0.480   9.160  21.531  0.00  0.00    +0.000 OA
ENDBRANCH   1   8
BRANCH   5   9
ATOM      9  C   UNL     1       3.233   6.342  18.377  0.00  0.00    +0.000 C 
ATOM     10  C   UNL     1       2.733   5.206  17.870  0.00  0.00    +0.000 C 
BRANCH  10  11
ATOM     11  C   UNL     1       3.602   4.024  17.619  0.00  0.00    +0.000 C 
ATOM     12  O   UNL     1       3.296   2.899  17.989  0.00  0.00    +0.000 OA
BRANCH  11  13
ATOM     13  C   UNL     1       4.876   4.287  16.892  0.00  0.00    +0.000 A 
ATOM     14  C   UNL     1       6.068   4.367  17.619  0.00  0.00    +0.000 A 
ATOM     15  C   UNL     1       7.272   4.620  16.957  0.00  0.00    +0.000 A 
ATOM     16  C   UNL     1       7.293   4.775  15.571  0.00  0.00    +0.000 A 
ATOM     17  C   UNL     1       6.112   4.670  14.840  0.00  0.00    +0.000 A 
ATOM     18  C   UNL     1       4.906   4.424  15.495  0.00  0.00    +0.000 A 
ENDBRANCH  11  13
ENDBRANCH  10  11
ENDBRANCH   5   9
BRANCH   6  19
ATOM     19  O   UNL     1       2.082   6.758  21.011  0.00  0.00    +0.000 OA
ATOM     20  H   UNL     1       2.900   6.315  20.722  0.00  0.00    +0.000 HD
ENDBRANCH   6  19
TORSDOF 5
ENDMDL
MODEL 8
REMARK VINA RESULT:      -6.9      3.596      4.656
REMARK  Name = 
REMARK  6 active torsions:
REMARK  status: ('A' for Active; 'I' for Inactive)
REMARK    1  A    between atoms: C_1  and  O_2
REMARK    2  A    between atoms: O_2  and  C_3
REMARK    3  A    between atoms: C_7  and  C_8
REMARK    4  A    between atoms: C_9  and  C_10
REMARK    5  A    between atoms: C_10  and  C_12
REMARK    6  A    between atoms: C_18  and  O_19
REMARK                            x       y       z     vdW  Elec       q    Type
REMARK                         _______ _______ _______ _____ _____    ______ ____
ROOT
ATOM      1  C   UNL     1       1.050   9.060  20.265  0.00  0.00    +0.000 A 
ATOM      2  C   UNL     1       0.953  10.001  19.235  0.00  0.00    +0.000 A 
ATOM      3  C   UNL     1       1.563   9.782  18.000  0.00  0.00    +0.000 A 
ATOM      4  C   UNL     1       2.271   8.602  17.773  0.00  0.00    +0.000 A 
ATOM      5  C   UNL     1       2.381   7.628  18.777  0.00  0.00    +0.000 A 
ATOM      6  C   UNL     1       1.778   7.885  20.031  0.00  0.00    +0.000 A 
ENDROOT
BRANCH   1   8
ATOM      7  C   UNL     1       0.036  10.820  21.544  0.00  0.00    +0.000 C 
ATOM      8  O   UNL     1       0.428   9.461  21.417  0.00  0.00    +0.000 OA
ENDBRANCH   1   8
BRANCH   5   9
ATOM      9  C   UNL     1       3.195   6.428  18.481  0.00  0.00    +0.000 C 
ATOM     10  C   UNL     1       2.679   5.289  18.000  0.00  0.00    +0.000 C 
BRANCH  10  11
ATOM     11  C   UNL     1       3.521   4.072  17.829  0.00  0.00    +0.000 C 
ATOM     12  O   UNL     1       3.176   2.976  18.250  0.00  0.00    +0.000 OA
BRANCH  11  13
ATOM     13  C   UNL     1       4.816   4.263  17.119  0.00  0.00    +0.000 A 
ATOM     14  C   UNL     1       4.823   4.308  15.721  0.00  0.00    +0.000 A 
ATOM     15  C   UNL     1       6.028   4.480  15.035  0.00  0.00    +0.000 A 
ATOM     16  C   UNL     1       7.224   4.625  15.741  0.00  0.00    +0.000 A 
ATOM     17  C   UNL     1       7.218   4.607  17.133  0.00  0.00    +0.000 A 
ATOM     18  C   UNL     1       6.019   4.429  17.823  0.00  0.00    +0.000 A 
ENDBRANCH  11  13
ENDBRANCH  10  11
ENDBRANCH   5   9
BRANCH   6  19
ATOM     19  O   UNL     1       1.975   6.994  21.056  0.00  0.00    +0.000 OA
ATOM     20  H   UNL     1       2.873   6.645  20.909  0.00  0.00    +0.000 HD
ENDBRANCH   6  19
TORSDOF 5
ENDMDL
MODEL 9
REMARK VINA RESULT:      -6.9      0.899      1.079
REMARK  Name = 
REMARK  6 active torsions:
REMARK  status: ('A' for Active; 'I' for Inactive)
REMARK    1  A    between atoms: C_1  and  O_2
REMARK    2  A    between atoms: O_2  and  C_3
REMARK    3  A    between atoms: C_7  and  C_8
REMARK    4  A    between atoms: C_9  and  C_10
REMARK    5  A    between atoms: C_10  and  C_12
REMARK    6  A    between atoms: C_18  and  O_19
REMARK                            x       y       z     vdW  Elec       q    Type
REMARK                         _______ _______ _______ _____ _____    ______ ____
ROOT
ATOM      1  C   UNL     1       2.268   4.532  19.841  0.00  0.00    +0.000 A 
ATOM      2  C   UNL     1       1.390   3.623  19.243  0.00  0.00    +0.000 A 
ATOM      3  C   UNL     1       1.733   2.960  18.065  0.00  0.00    +0.000 A 
ATOM      4  C   UNL     1       2.974   3.190  17.472  0.00  0.00    +0.000 A 
ATOM      5  C   UNL     1       3.888   4.086  18.048  0.00  0.00    +0.000 A 
ATOM      6  C   UNL     1       3.506   4.768  19.227  0.00  0.00    +0.000 A 
ENDROOT
BRANCH   1   8
ATOM      7  C   UNL     1       1.368   6.485  20.906  0.00  0.00    +0.000 C 
ATOM      8  O   UNL     1       1.749   5.118  20.964  0.00  0.00    +0.000 OA
ENDBRANCH   1   8
BRANCH   5   9
ATOM      9  C   UNL     1       5.161   4.321  17.332  0.00  0.00    +0.000 C 
ATOM     10  C   UNL     1       5.312   5.260  16.388  0.00  0.00    +0.000 C 
BRANCH  10  11
ATOM     11  C   UNL     1       6.579   5.380  15.614  0.00  0.00    +0.000 C 
ATOM     12  O   UNL     1       7.567   5.944  16.064  0.00  0.00    +0.000 OA
BRANCH  11  13
ATOM     13  C   UNL     1       6.577   4.777  14.252  0.00  0.00    +0.000 A 
ATOM     14  C   UNL     1       7.582   5.138  13.348  0.00  0.00    +0.000 A 
ATOM     15  C   UNL     1       7.594   4.588  12.064  0.00  0.00    +0.000 A 
ATOM     16  C   UNL     1       6.616   3.667  11.685  0.00  0.00    +0.000 A 
ATOM     17  C   UNL     1       5.629   3.286  12.589  0.00  0.00    +0.000 A 
ATOM     18  C   UNL     1       5.608   3.835  13.871  0.00  0.00    +0.000 A 
ENDBRANCH  11  13
ENDBRANCH  10  11
ENDBRANCH   5   9
BRANCH   6  19
ATOM     19  O   UNL     1       4.342   5.731  19.735  0.00  0.00    +0.000 OA
ATOM     20  H   UNL     1       4.549   6.303  18.974  0.00  0.00    +0.000 HD
ENDBRANCH   6  19
TORSDOF 5
ENDMDL
