MODEL 1
REMARK VINA RESULT:      -7.5      0.000      0.000
REMARK  Name = 
REMARK  2 active torsions:
REMARK  status: ('A' for Active; 'I' for Inactive)
REMARK    1  A    between atoms: C_1  and  C_2
REMARK    2  A    between atoms: C_9  and  C_11
REMARK                            x       y       z     vdW  Elec       q    Type
REMARK                         _______ _______ _______ _____ _____    ______ ____
ROOT
ATOM      1  C   UNL     1       5.783   4.058  15.050  0.00  0.00    +0.000 C 
ATOM      2  C   UNL     1       6.218   4.058  16.506  0.00  0.00    +0.000 C 
ATOM      3  O   UNL     1       7.549   4.610  16.567  0.00  0.00    +0.000 OA
ATOM      4  C   UNL     1       7.678   5.241  17.839  0.00  0.00    +0.000 C 
ATOM      5  C   UNL     1       6.331   5.864  18.108  0.00  0.00    +0.000 C 
ATOM      6  C   UNL     1       5.346   4.849  17.521  0.00  0.00    +0.000 C 
ATOM      7  C   UNL     1       4.117   5.544  16.885  0.00  0.00    +0.000 C 
ATOM      8  N   UNL     1       3.217   6.068  17.916  0.00  0.00    +0.000 N 
ATOM      9  C   UNL     1       2.969   7.436  17.962  0.00  0.00    +0.000 C 
ATOM     10  O   UNL     1       3.420   8.211  17.119  0.00  0.00    +0.000 OA
ATOM     11  C   UNL     1       2.765   5.010  18.821  0.00  0.00    +0.000 C 
ATOM     12  C   UNL     1       3.991   4.403  19.504  0.00  0.00    +0.000 C 
ATOM     13  O   UNL     1       4.930   3.893  18.540  0.00  0.00    +0.000 OA
ENDROOT
BRANCH   9  14
ATOM     14  C   UNL     1       2.108   8.034  19.017  0.00  0.00    +0.000 A 
ATOM     15  C   UNL     1       2.001   7.494  20.302  0.00  0.00    +0.000 A 
ATOM     16  C   UNL     1       1.119   8.055  21.229  0.00  0.00    +0.000 A 
ATOM     17  C   UNL     1       0.410   9.217  20.912  0.00  0.00    +0.000 A 
ATOM     18 CL   UNL     1      -0.673   9.842  22.102  0.00  0.00    +0.000 Cl
ATOM     19  C   UNL     1       0.602   9.829  19.670  0.00  0.00    +0.000 A 
ATOM     20 CL   UNL     1      -0.166  11.316  19.246  0.00  0.00    +0.000 Cl
ATOM     21  C   UNL     1       1.444   9.234  18.723  0.00  0.00    +0.000 A 
ENDBRANCH   9  14
TORSDOF 1
ENDMDL
MODEL 2
REMARK VINA RESULT:      -7.2      3.874      7.289
REMARK  Name = 
REMARK  2 active torsions:
REMARK  status: ('A' for Active; 'I' for Inactive)
REMARK    1  A    between atoms: C_1  and  C_2
REMARK    2  A    between atoms: C_9  and  C_11
REMARK                            x       y       z     vdW  Elec       q    Type
REMARK                         _______ _______ _______ _____ _____    ______ ____
ROOT
ATOM      1  C   UNL     1       0.475  13.261  18.535  0.00  0.00    +0.000 C 
ATOM      2  C   UNL     1      -0.633  12.291  18.910  0.00  0.00    +0.000 C 
ATOM      3  O   UNL     1      -1.614  12.314  17.853  0.00  0.00    +0.000 OA
ATOM      4  C   UNL     1      -2.217  11.022  17.818  0.00  0.00    +0.000 C 
ATOM      5  C   UNL     1      -1.097  10.057  18.112  0.00  0.00    +0.000 C 
ATOM      6  C   UNL     1      -0.244  10.804  19.143  0.00  0.00    +0.000 C 
ATOM      7  C   UNL     1       1.265  10.513  18.956  0.00  0.00    +0.000 C 
ATOM      8  N   UNL     1       1.602   9.163  19.414  0.00  0.00    +0.000 N 
ATOM      9  C   UNL     1       2.128   8.253  18.501  0.00  0.00    +0.000 C 
ATOM     10  O   UNL     1       2.390   8.569  17.341  0.00  0.00    +0.000 OA
ATOM     11  C   UNL     1       1.238   8.966  20.818  0.00  0.00    +0.000 C 
ATOM     12  C   UNL     1      -0.272   9.168  20.956  0.00  0.00    +0.000 C 
ATOM     13  O   UNL     1      -0.671  10.472  20.496  0.00  0.00    +0.000 OA
ENDROOT
BRANCH   9  14
ATOM     14  C   UNL     1       2.439   6.852  18.893  0.00  0.00    +0.000 A 
ATOM     15  C   UNL     1       2.019   6.294  20.104  0.00  0.00    +0.000 A 
ATOM     16  C   UNL     1       2.404   4.997  20.451  0.00  0.00    +0.000 A 
ATOM     17  C   UNL     1       3.129   4.213  19.550  0.00  0.00    +0.000 A 
ATOM     18 CL   UNL     1       3.583   2.626  20.056  0.00  0.00    +0.000 Cl
ATOM     19  C   UNL     1       3.451   4.726  18.289  0.00  0.00    +0.000 A 
ATOM     20 CL   UNL     1       4.260   3.782  17.090  0.00  0.00    +0.000 Cl
ATOM     21  C   UNL     1       3.112   6.044  17.965  0.00  0.00    +0.000 A 
ENDBRANCH   9  14
TORSDOF 1
ENDMDL
MODEL 3
REMARK VINA RESULT:      -7.1      1.991      3.490
REMARK  Name = 
REMARK  2 active torsions:
REMARK  status: ('A' for Active; 'I' for Inactive)
REMARK    1  A    between atoms: C_1  and  C_2
REMARK    2  A    between atoms: C_9  and  C_11
REMARK                            x       y       z     vdW  Elec       q    Type
REMARK                         _______ _______ _______ _____ _____    ______ ____
ROOT
ATOM      1  C   UNL     1       4.585   2.065  20.262  0.00  0.00    +0.000 C 
ATOM      2  C   UNL     1       4.124   2.384  18.849  0.00  0.00    +0.000 C 
ATOM      3  O   UNL     1       3.074   1.456  18.509  0.00  0.00    +0.000 OA
ATOM      4  C   UNL     1       2.213   2.123  17.589  0.00  0.00    +0.000 C 
ATOM      5  C   UNL     1       2.160   3.554  18.066  0.00  0.00    +0.000 C 
ATOM      6  C   UNL     1       3.583   3.814  18.570  0.00  0.00    +0.000 C 
ATOM      7  C   UNL     1       3.591   4.741  19.809  0.00  0.00    +0.000 C 
ATOM      8  N   UNL     1       3.295   6.126  19.433  0.00  0.00    +0.000 N 
ATOM      9  C   UNL     1       2.169   6.744  19.968  0.00  0.00    +0.000 C 
ATOM     10  O   UNL     1       1.456   6.192  20.806  0.00  0.00    +0.000 OA
ATOM     11  C   UNL     1       4.249   6.628  18.442  0.00  0.00    +0.000 C 
ATOM     12  C   UNL     1       4.153   5.750  17.194  0.00  0.00    +0.000 C 
ATOM     13  O   UNL     1       4.409   4.368  17.503  0.00  0.00    +0.000 OA
ENDROOT
BRANCH   9  14
ATOM     14  C   UNL     1       1.786   8.129  19.582  0.00  0.00    +0.000 A 
ATOM     15  C   UNL     1       1.947   8.624  18.285  0.00  0.00    +0.000 A 
ATOM     16  C   UNL     1       1.639   9.956  17.998  0.00  0.00    +0.000 A 
ATOM     17  C   UNL     1       1.078  10.776  18.981  0.00  0.00    +0.000 A 
ATOM     18 CL   UNL     1       0.740  12.416  18.558  0.00  0.00    +0.000 Cl
ATOM     19  C   UNL     1       0.806  10.252  20.248  0.00  0.00    +0.000 A 
ATOM     20 CL   UNL     1       0.026  11.177  21.481  0.00  0.00    +0.000 Cl
ATOM     21  C   UNL     1       1.166   8.933  20.549  0.00  0.00    +0.000 A 
ENDBRANCH   9  14
TORSDOF 1
ENDMDL
MODEL 4
REMARK VINA RESULT:      -7.0      3.828      7.334
REMARK  Name = 
REMARK  2 active torsions:
REMARK  status: ('A' for Active; 'I' for Inactive)
REMARK    1  A    between atoms: C_1  and  C_2
REMARK    2  A    between atoms: C_9  and  C_11
REMARK                            x       y       z     vdW  Elec       q    Type
REMARK                         _______ _______ _______ _____ _____    ______ ____
ROOT
ATOM      1  C   UNL     1       0.262  13.139  19.019  0.00  0.00    +0.000 C 
ATOM      2  C   UNL     1      -0.773  12.062  19.301  0.00  0.00    +0.000 C 
ATOM      3  O   UNL     1      -1.809  12.177  18.305  0.00  0.00    +0.000 OA
ATOM      4  C   UNL     1      -2.346  10.869  18.113  0.00  0.00    +0.000 C 
ATOM      5  C   UNL     1      -1.163   9.939  18.215  0.00  0.00    +0.000 C 
ATOM      6  C   UNL     1      -0.296  10.583  19.301  0.00  0.00    +0.000 C 
ATOM      7  C   UNL     1       1.214  10.410  19.007  0.00  0.00    +0.000 C 
ATOM      8  N   UNL     1       1.644   9.031  19.251  0.00  0.00    +0.000 N 
ATOM      9  C   UNL     1       2.165   8.290  18.194  0.00  0.00    +0.000 C 
ATOM     10  O   UNL     1       2.349   8.780  17.080  0.00  0.00    +0.000 OA
ATOM     11  C   UNL     1       1.365   8.618  20.628  0.00  0.00    +0.000 C 
ATOM     12  C   UNL     1      -0.143   8.710  20.862  0.00  0.00    +0.000 C 
ATOM     13  O   UNL     1      -0.633  10.040  20.612  0.00  0.00    +0.000 OA
ENDROOT
BRANCH   9  14
ATOM     14  C   UNL     1       2.568   6.868  18.367  0.00  0.00    +0.000 A 
ATOM     15  C   UNL     1       1.696   5.801  18.132  0.00  0.00    +0.000 A 
ATOM     16  C   UNL     1       2.107   4.490  18.382  0.00  0.00    +0.000 A 
ATOM     17  C   UNL     1       3.421   4.227  18.776  0.00  0.00    +0.000 A 
ATOM     18 CL   UNL     1       3.851   2.583  19.084  0.00  0.00    +0.000 Cl
ATOM     19  C   UNL     1       4.332   5.282  18.899  0.00  0.00    +0.000 A 
ATOM     20 CL   UNL     1       5.994   5.023  19.288  0.00  0.00    +0.000 Cl
ATOM     21  C   UNL     1       3.903   6.599  18.702  0.00  0.00    +0.000 A 
ENDBRANCH   9  14
TORSDOF 1
ENDMDL
MODEL 5
REMARK VINA RESULT:      -6.9      3.524      7.216
REMARK  Name = 
REMARK  2 active torsions:
REMARK  status: ('A' for Active; 'I' for Inactive)
REMARK    1  A    between atoms: C_1  and  C_2
REMARK    2  A    between atoms: C_9  and  C_11
REMARK                            x       y       z     vdW  Elec       q    Type
REMARK                         _______ _______ _______ _____ _____    ______ ____
ROOT
ATOM      1  C   UNL     1       0.302  13.178  18.595  0.00  0.00    +0.000 C 
ATOM      2  C   UNL     1      -0.735  12.124  18.946  0.00  0.00    +0.000 C 
ATOM      3  O   UNL     1      -1.741  12.137  17.914  0.00  0.00    +0.000 OA
ATOM      4  C   UNL     1      -2.266  10.813  17.830  0.00  0.00    +0.000 C 
ATOM      5  C   UNL     1      -1.082   9.906  18.052  0.00  0.00    +0.000 C 
ATOM      6  C   UNL     1      -0.250  10.655  19.098  0.00  0.00    +0.000 C 
ATOM      7  C   UNL     1       1.268  10.467  18.865  0.00  0.00    +0.000 C 
ATOM      8  N   UNL     1       1.698   9.121  19.249  0.00  0.00    +0.000 N 
ATOM      9  C   UNL     1       2.255   8.289  18.282  0.00  0.00    +0.000 C 
ATOM     10  O   UNL     1       2.468   8.674  17.133  0.00  0.00    +0.000 OA
ATOM     11  C   UNL     1       1.381   8.836  20.650  0.00  0.00    +0.000 C 
ATOM     12  C   UNL     1      -0.134   8.937  20.831  0.00  0.00    +0.000 C 
ATOM     13  O   UNL     1      -0.623  10.234  20.444  0.00  0.00    +0.000 OA
ENDROOT
BRANCH   9  14
ATOM     14  C   UNL     1       2.660   6.893  18.598  0.00  0.00    +0.000 A 
ATOM     15  C   UNL     1       3.920   6.380  18.279  0.00  0.00    +0.000 A 
ATOM     16  C   UNL     1       4.219   5.040  18.533  0.00  0.00    +0.000 A 
ATOM     17  C   UNL     1       3.296   4.226  19.195  0.00  0.00    +0.000 A 
ATOM     18 CL   UNL     1       3.728   2.576  19.459  0.00  0.00    +0.000 Cl
ATOM     19  C   UNL     1       2.078   4.765  19.622  0.00  0.00    +0.000 A 
ATOM     20 CL   UNL     1       0.931   3.847  20.529  0.00  0.00    +0.000 Cl
ATOM     21  C   UNL     1       1.760   6.093  19.318  0.00  0.00    +0.000 A 
ENDBRANCH   9  14
TORSDOF 1
ENDMDL
MODEL 6
REMARK VINA RESULT:      -6.7      0.981      1.652
REMARK  Name = 
REMARK  2 active torsions:
REMARK  status: ('A' for Active; 'I' for Inactive)
REMARK    1  A    between atoms: C_1  and  C_2
REMARK    2  A    between atoms: C_9  and  C_11
REMARK                            x       y       z     vdW  Elec       q    Type
REMARK                         _______ _______ _______ _____ _____    ______ ____
ROOT
ATOM      1  C   UNL     1       5.983   3.888  16.014  0.00  0.00    +0.000 C 
ATOM      2  C   UNL     1       6.071   4.044  17.523  0.00  0.00    +0.000 C 
ATOM      3  O   UNL     1       7.397   4.513  17.840  0.00  0.00    +0.000 OA
ATOM      4  C   UNL     1       7.288   5.290  19.031  0.00  0.00    +0.000 C 
ATOM      5  C   UNL     1       5.978   6.026  18.903  0.00  0.00    +0.000 C 
ATOM      6  C   UNL     1       5.065   5.009  18.210  0.00  0.00    +0.000 C 
ATOM      7  C   UNL     1       4.083   5.695  17.229  0.00  0.00    +0.000 C 
ATOM      8  N   UNL     1       3.022   6.400  17.953  0.00  0.00    +0.000 N 
ATOM      9  C   UNL     1       2.896   7.777  17.791  0.00  0.00    +0.000 C 
ATOM     10  O   UNL     1       3.597   8.409  17.002  0.00  0.00    +0.000 OA
ATOM     11  C   UNL     1       2.280   5.496  18.832  0.00  0.00    +0.000 C 
ATOM     12  C   UNL     1       3.257   4.903  19.849  0.00  0.00    +0.000 C 
ATOM     13  O   UNL     1       4.341   4.217  19.197  0.00  0.00    +0.000 OA
ENDROOT
BRANCH   9  14
ATOM     14  C   UNL     1       1.874   8.556  18.540  0.00  0.00    +0.000 A 
ATOM     15  C   UNL     1       0.882   9.309  17.905  0.00  0.00    +0.000 A 
ATOM     16  C   UNL     1      -0.005  10.081  18.659  0.00  0.00    +0.000 A 
ATOM     17  C   UNL     1       0.030  10.032  20.055  0.00  0.00    +0.000 A 
ATOM     18 CL   UNL     1      -1.086  11.026  20.919  0.00  0.00    +0.000 Cl
ATOM     19  C   UNL     1       0.944   9.189  20.696  0.00  0.00    +0.000 A 
ATOM     20 CL   UNL     1       0.981   9.005  22.412  0.00  0.00    +0.000 Cl
ATOM     21  C   UNL     1       1.868   8.460  19.939  0.00  0.00    +0.000 A 
ENDBRANCH   9  14
TORSDOF 1
ENDMDL
MODEL 7
REMARK VINA RESULT:      -6.6      4.522      7.221
REMARK  Name = 
REMARK  2 active torsions:
REMARK  status: ('A' for Active; 'I' for Inactive)
REMARK    1  A    between atoms: C_1  and  C_2
REMARK    2  A    between atoms: C_9  and  C_11
REMARK                            x       y       z     vdW  Elec       q    Type
REMARK                         _______ _______ _______ _____ _____    ______ ____
ROOT
ATOM      1  C   UNL     1       2.454   2.641  21.655  0.00  0.00    +0.000 C 
ATOM      2  C   UNL     1       1.828   3.702  20.764  0.00  0.00    +0.000 C 
ATOM      3  O   UNL     1       1.712   4.913  21.538  0.00  0.00    +0.000 OA
ATOM      4  C   UNL     1       1.809   6.001  20.621  0.00  0.00    +0.000 C 
ATOM      5  C   UNL     1       2.834   5.567  19.603  0.00  0.00    +0.000 C 
ATOM      6  C   UNL     1       2.568   4.067  19.446  0.00  0.00    +0.000 C 
ATOM      7  C   UNL     1       3.877   3.273  19.219  0.00  0.00    +0.000 C 
ATOM      8  N   UNL     1       4.396   3.488  17.867  0.00  0.00    +0.000 N 
ATOM      9  C   UNL     1       5.654   4.062  17.711  0.00  0.00    +0.000 C 
ATOM     10  O   UNL     1       6.377   4.324  18.672  0.00  0.00    +0.000 OA
ATOM     11  C   UNL     1       3.414   3.110  16.849  0.00  0.00    +0.000 C 
ATOM     12  C   UNL     1       2.167   3.975  17.038  0.00  0.00    +0.000 C 
ATOM     13  O   UNL     1       1.622   3.827  18.362  0.00  0.00    +0.000 OA
ENDROOT
BRANCH   9  14
ATOM     14  C   UNL     1       6.213   4.356  16.364  0.00  0.00    +0.000 A 
ATOM     15  C   UNL     1       7.342   5.157  16.171  0.00  0.00    +0.000 A 
ATOM     16  C   UNL     1       7.777   5.460  14.879  0.00  0.00    +0.000 A 
ATOM     17  C   UNL     1       7.147   4.886  13.772  0.00  0.00    +0.000 A 
ATOM     18 CL   UNL     1       7.730   5.320  12.206  0.00  0.00    +0.000 Cl
ATOM     19  C   UNL     1       6.090   3.990  13.963  0.00  0.00    +0.000 A 
ATOM     20 CL   UNL     1       5.328   3.171  12.649  0.00  0.00    +0.000 Cl
ATOM     21  C   UNL     1       5.621   3.733  15.256  0.00  0.00    +0.000 A 
ENDBRANCH   9  14
TORSDOF 1
ENDMDL
MODEL 8
REMARK VINA RESULT:      -6.6      4.497      8.133
REMARK  Name = 
REMARK  2 active torsions:
REMARK  status: ('A' for Active; 'I' for Inactive)
REMARK    1  A    between atoms: C_1  and  C_2
REMARK    2  A    between atoms: C_9  and  C_11
REMARK                            x       y       z     vdW  Elec       q    Type
REMARK                         _______ _______ _______ _____ _____    ______ ____
ROOT
ATOM      1  C   UNL     1      -1.308  13.196  23.144  0.00  0.00    +0.000 C 
ATOM      2  C   UNL     1      -0.547  13.513  21.868  0.00  0.00    +0.000 C 
ATOM      3  O   UNL     1       0.544  14.390  22.213  0.00  0.00    +0.000 OA
ATOM      4  C   UNL     1       1.592  14.135  21.278  0.00  0.00    +0.000 C 
ATOM      5  C   UNL     1       1.551  12.647  21.036  0.00  0.00    +0.000 C 
ATOM      6  C   UNL     1       0.054  12.322  21.070  0.00  0.00    +0.000 C 
ATOM      7  C   UNL     1      -0.218  10.938  21.707  0.00  0.00    +0.000 C 
ATOM      8  N   UNL     1       0.164   9.855  20.798  0.00  0.00    +0.000 N 
ATOM      9  C   UNL     1       1.151   8.957  21.195  0.00  0.00    +0.000 C 
ATOM     10  O   UNL     1       1.658   8.998  22.315  0.00  0.00    +0.000 OA
ATOM     11  C   UNL     1      -0.546   9.951  19.521  0.00  0.00    +0.000 C 
ATOM     12  C   UNL     1      -0.186  11.288  18.870  0.00  0.00    +0.000 C 
ATOM     13  O   UNL     1      -0.514  12.395  19.729  0.00  0.00    +0.000 OA
ENDROOT
BRANCH   9  14
ATOM     14  C   UNL     1       1.620   7.870  20.295  0.00  0.00    +0.000 A 
ATOM     15  C   UNL     1       2.154   8.116  19.027  0.00  0.00    +0.000 A 
ATOM     16  C   UNL     1       2.509   7.052  18.195  0.00  0.00    +0.000 A 
ATOM     17  C   UNL     1       2.424   5.737  18.660  0.00  0.00    +0.000 A 
ATOM     18 CL   UNL     1       2.864   4.473  17.569  0.00  0.00    +0.000 Cl
ATOM     19  C   UNL     1       2.000   5.491  19.970  0.00  0.00    +0.000 A 
ATOM     20 CL   UNL     1       1.961   3.901  20.643  0.00  0.00    +0.000 Cl
ATOM     21  C   UNL     1       1.593   6.556  20.781  0.00  0.00    +0.000 A 
ENDBRANCH   9  14
TORSDOF 1
ENDMDL
MODEL 9
REMARK VINA RESULT:      -6.5      3.947      7.283
REMARK  Name = 
REMARK  2 active torsions:
REMARK  status: ('A' for Active; 'I' for Inactive)
REMARK    1  A    between atoms: C_1  and  C_2
REMARK    2  A    between atoms: C_9  and  C_11
REMARK                            x       y       z     vdW  Elec       q    Type
REMARK                         _______ _______ _______ _____ _____    ______ ____
ROOT
ATOM      1  C   UNL     1       1.387  12.856  20.486  0.00  0.00    +0.000 C 
ATOM      2  C   UNL     1       0.079  12.085  20.430  0.00  0.00    +0.000 C 
ATOM      3  O   UNL     1      -0.700  12.620  19.340  0.00  0.00    +0.000 OA
ATOM      4  C   UNL     1      -1.511  11.555  18.848  0.00  0.00    +0.000 C 
ATOM      5  C   UNL     1      -0.642  10.325  18.939  0.00  0.00    +0.000 C 
ATOM      6  C   UNL     1       0.154  10.546  20.229  0.00  0.00    +0.000 C 
ATOM      7  C   UNL     1       1.597   9.997  20.113  0.00  0.00    +0.000 C 
ATOM      8  N   UNL     1       1.610   8.533  20.161  0.00  0.00    +0.000 N 
ATOM      9  C   UNL     1       2.104   7.826  19.069  0.00  0.00    +0.000 C 
ATOM     10  O   UNL     1       2.600   8.392  18.095  0.00  0.00    +0.000 OA
ATOM     11  C   UNL     1       0.995   8.032  21.392  0.00  0.00    +0.000 C 
ATOM     12  C   UNL     1      -0.456   8.512  21.436  0.00  0.00    +0.000 C 
ATOM     13  O   UNL     1      -0.537   9.946  21.364  0.00  0.00    +0.000 OA
ENDROOT
BRANCH   9  14
ATOM     14  C   UNL     1       2.093   6.339  19.037  0.00  0.00    +0.000 A 
ATOM     15  C   UNL     1       2.103   5.609  17.845  0.00  0.00    +0.000 A 
ATOM     16  C   UNL     1       2.016   4.215  17.874  0.00  0.00    +0.000 A 
ATOM     17  C   UNL     1       2.016   3.535  19.095  0.00  0.00    +0.000 A 
ATOM     18 CL   UNL     1       1.890   1.814  19.053  0.00  0.00    +0.000 Cl
ATOM     19  C   UNL     1       2.125   4.256  20.289  0.00  0.00    +0.000 A 
ATOM     20 CL   UNL     1       2.228   3.479  21.828  0.00  0.00    +0.000 Cl
ATOM     21  C   UNL     1       2.156   5.654  20.258  0.00  0.00    +0.000 A 
ENDBRANCH   9  14
TORSDOF 1
ENDMDL
