MODEL 1
REMARK VINA RESULT:      -8.2      0.000      0.000
REMARK  Name = 
REMARK  7 active torsions:
REMARK  status: ('A' for Active; 'I' for Inactive)
REMARK    1  A    between atoms: C_1  and  C_2
REMARK    2  A    between atoms: C_2  and  C_3
REMARK    3  A    between atoms: N_5  and  C_6
REMARK    4  A    between atoms: C_9  and  O_10
REMARK    5  A    between atoms: C_12  and  C_13
REMARK    6  A    between atoms: C_19  and  O_20
REMARK    7  A    between atoms: O_20  and  C_21
REMARK                            x       y       z     vdW  Elec       q    Type
REMARK                         _______ _______ _______ _____ _____    ______ ____
ROOT
ATOM      1  C   UNL     1       3.174   3.583  20.336  0.00  0.00    +0.000 A 
ATOM      2  C   UNL     1       4.090   3.497  19.316  0.00  0.00    +0.000 A 
ATOM      3  N   UNL     1       4.105   4.663  18.574  0.00  0.00    +0.000 N 
ATOM      4  C   UNL     1       3.161   5.550  19.136  0.00  0.00    +0.000 A 
ATOM      5  C   UNL     1       2.620   4.891  20.258  0.00  0.00    +0.000 A 
ATOM      6  C   UNL     1       1.697   5.562  21.063  0.00  0.00    +0.000 A 
ATOM      7  N   UNL     1       1.351   6.842  20.816  0.00  0.00    +0.000 NA
ATOM      8  C   UNL     1       1.828   7.499  19.748  0.00  0.00    +0.000 A 
ATOM      9  C   UNL     1       1.462   8.846  19.530  0.00  0.00    +0.000 A 
ATOM     10  C   UNL     1       1.948   9.557  18.423  0.00  0.00    +0.000 A 
ATOM     11  C   UNL     1       2.715   8.915  17.464  0.00  0.00    +0.000 A 
ATOM     12  C   UNL     1       3.038   7.573  17.630  0.00  0.00    +0.000 A 
ATOM     13  C   UNL     1       2.689   6.874  18.807  0.00  0.00    +0.000 A 
ENDROOT
BRANCH   3  14
ATOM     14  C   UNL     1       5.059   4.885  17.527  0.00  0.00    +0.000 A 
ATOM     15  C   UNL     1       4.659   4.629  16.203  0.00  0.00    +0.000 A 
ATOM     16  C   UNL     1       5.563   4.731  15.143  0.00  0.00    +0.000 A 
ATOM     17  C   UNL     1       6.849   5.179  15.391  0.00  0.00    +0.000 A 
ATOM     18  C   UNL     1       7.238   5.537  16.676  0.00  0.00    +0.000 A 
ATOM     19  C   UNL     1       6.364   5.381  17.772  0.00  0.00    +0.000 A 
ATOM     20  C   UNL     1       6.938   5.687  19.132  0.00  0.00    +0.000 C 
BRANCH  17  21
ATOM     21  O   UNL     1       7.778   5.277  14.399  0.00  0.00    +0.000 OA
ATOM     22  H   UNL     1       7.338   5.588  13.591  0.00  0.00    +0.000 HD
ENDBRANCH  17  21
ENDBRANCH   3  14
BRANCH   1  24
ATOM     23  C   UNL     1       1.429   2.444  21.736  0.00  0.00    +0.000 C 
ATOM     24  C   UNL     1       2.899   2.522  21.354  0.00  0.00    +0.000 C 
ENDBRANCH   1  24
BRANCH   9  25
ATOM     25  O   UNL     1       0.621   9.406  20.468  0.00  0.00    +0.000 OA
ATOM     26  C   UNL     1      -0.403  10.275  20.008  0.00  0.00    +0.000 C 
ENDBRANCH   9  25
TORSDOF 4
ENDMDL
MODEL 2
REMARK VINA RESULT:      -7.3      0.425      1.408
REMARK  Name = 
REMARK  7 active torsions:
REMARK  status: ('A' for Active; 'I' for Inactive)
REMARK    1  A    between atoms: C_1  and  C_2
REMARK    2  A    between atoms: C_2  and  C_3
REMARK    3  A    between atoms: N_5  and  C_6
REMARK    4  A    between atoms: C_9  and  O_10
REMARK    5  A    between atoms: C_12  and  C_13
REMARK    6  A    between atoms: C_19  and  O_20
REMARK    7  A    between atoms: O_20  and  C_21
REMARK                            x       y       z     vdW  Elec       q    Type
REMARK                         _______ _______ _______ _____ _____    ______ ____
ROOT
ATOM      1  C   UNL     1       3.067   3.757  20.525  0.00  0.00    +0.000 A 
ATOM      2  C   UNL     1       4.005   3.617  19.533  0.00  0.00    +0.000 A 
ATOM      3  N   UNL     1       4.048   4.747  18.738  0.00  0.00    +0.000 N 
ATOM      4  C   UNL     1       3.100   5.666  19.236  0.00  0.00    +0.000 A 
ATOM      5  C   UNL     1       2.526   5.064  20.373  0.00  0.00    +0.000 A 
ATOM      6  C   UNL     1       1.591   5.779  21.125  0.00  0.00    +0.000 A 
ATOM      7  N   UNL     1       1.262   7.049  20.811  0.00  0.00    +0.000 NA
ATOM      8  C   UNL     1       1.770   7.651  19.726  0.00  0.00    +0.000 A 
ATOM      9  C   UNL     1       1.421   8.991  19.437  0.00  0.00    +0.000 A 
ATOM     10  C   UNL     1       1.939   9.646  18.311  0.00  0.00    +0.000 A 
ATOM     11  C   UNL     1       2.723   8.954  17.401  0.00  0.00    +0.000 A 
ATOM     12  C   UNL     1       3.030   7.618  17.636  0.00  0.00    +0.000 A 
ATOM     13  C   UNL     1       2.647   6.977  18.835  0.00  0.00    +0.000 A 
ENDROOT
BRANCH   3  14
ATOM     14  C   UNL     1       5.029   4.913  17.705  0.00  0.00    +0.000 A 
ATOM     15  C   UNL     1       6.164   5.693  17.990  0.00  0.00    +0.000 A 
ATOM     16  C   UNL     1       7.111   5.976  17.004  0.00  0.00    +0.000 A 
ATOM     17  C   UNL     1       6.975   5.405  15.750  0.00  0.00    +0.000 A 
ATOM     18  C   UNL     1       5.916   4.549  15.474  0.00  0.00    +0.000 A 
ATOM     19  C   UNL     1       4.912   4.299  16.433  0.00  0.00    +0.000 A 
ATOM     20  C   UNL     1       3.752   3.451  15.978  0.00  0.00    +0.000 C 
BRANCH  17  21
ATOM     21  O   UNL     1       7.857   5.666  14.745  0.00  0.00    +0.000 OA
ATOM     22  H   UNL     1       7.818   4.940  14.100  0.00  0.00    +0.000 HD
ENDBRANCH  17  21
ENDBRANCH   3  14
BRANCH   1  24
ATOM     23  C   UNL     1       1.271   2.445  21.691  0.00  0.00    +0.000 C 
ATOM     24  C   UNL     1       2.759   2.745  21.584  0.00  0.00    +0.000 C 
ENDBRANCH   1  24
BRANCH   9  25
ATOM     25  O   UNL     1       0.563   9.599  20.329  0.00  0.00    +0.000 OA
ATOM     26  C   UNL     1      -0.499  10.379  19.800  0.00  0.00    +0.000 C 
ENDBRANCH   9  25
TORSDOF 4
ENDMDL
MODEL 3
REMARK VINA RESULT:      -6.9      1.597      5.754
REMARK  Name = 
REMARK  7 active torsions:
REMARK  status: ('A' for Active; 'I' for Inactive)
REMARK    1  A    between atoms: C_1  and  C_2
REMARK    2  A    between atoms: C_2  and  C_3
REMARK    3  A    between atoms: N_5  and  C_6
REMARK    4  A    between atoms: C_9  and  O_10
REMARK    5  A    between atoms: C_12  and  C_13
REMARK    6  A    between atoms: C_19  and  O_20
REMARK    7  A    between atoms: O_20  and  C_21
REMARK                            x       y       z     vdW  Elec       q    Type
REMARK                         _______ _______ _______ _____ _____    ______ ____
ROOT
ATOM      1  C   UNL     1       1.763   4.319  20.246  0.00  0.00    +0.000 A 
ATOM      2  C   UNL     1       1.382   5.634  20.344  0.00  0.00    +0.000 A 
ATOM      3  N   UNL     1       2.066   6.410  19.428  0.00  0.00    +0.000 N 
ATOM      4  C   UNL     1       2.928   5.564  18.697  0.00  0.00    +0.000 A 
ATOM      5  C   UNL     1       2.702   4.260  19.179  0.00  0.00    +0.000 A 
ATOM      6  C   UNL     1       3.373   3.188  18.586  0.00  0.00    +0.000 A 
ATOM      7  N   UNL     1       4.196   3.372  17.533  0.00  0.00    +0.000 NA
ATOM      8  C   UNL     1       4.454   4.600  17.057  0.00  0.00    +0.000 A 
ATOM      9  C   UNL     1       5.305   4.755  15.939  0.00  0.00    +0.000 A 
ATOM     10  C   UNL     1       5.589   6.027  15.419  0.00  0.00    +0.000 A 
ATOM     11  C   UNL     1       5.123   7.163  16.061  0.00  0.00    +0.000 A 
ATOM     12  C   UNL     1       4.332   7.033  17.198  0.00  0.00    +0.000 A 
ATOM     13  C   UNL     1       3.907   5.766  17.655  0.00  0.00    +0.000 A 
ENDROOT
BRANCH   3  14
ATOM     14  C   UNL     1       1.766   7.800  19.234  0.00  0.00    +0.000 A 
ATOM     15  C   UNL     1       1.833   8.314  17.927  0.00  0.00    +0.000 A 
ATOM     16  C   UNL     1       1.648   9.676  17.677  0.00  0.00    +0.000 A 
ATOM     17  C   UNL     1       1.305  10.516  18.722  0.00  0.00    +0.000 A 
ATOM     18  C   UNL     1       1.133  10.013  20.006  0.00  0.00    +0.000 A 
ATOM     19  C   UNL     1       1.377   8.654  20.295  0.00  0.00    +0.000 A 
ATOM     20  C   UNL     1       1.275   8.252  21.744  0.00  0.00    +0.000 C 
BRANCH  17  21
ATOM     21  O   UNL     1       1.135  11.855  18.538  0.00  0.00    +0.000 OA
ATOM     22  H   UNL     1       0.219  12.017  18.259  0.00  0.00    +0.000 HD
ENDBRANCH  17  21
ENDBRANCH   3  14
BRANCH   1  24
ATOM     23  C   UNL     1       2.285   2.520  21.918  0.00  0.00    +0.000 C 
ATOM     24  C   UNL     1       1.220   3.189  21.063  0.00  0.00    +0.000 C 
ENDBRANCH   1  24
BRANCH   9  25
ATOM     25  O   UNL     1       5.815   3.594  15.398  0.00  0.00    +0.000 OA
ATOM     26  C   UNL     1       6.252   3.627  14.048  0.00  0.00    +0.000 C 
ENDBRANCH   9  25
TORSDOF 4
ENDMDL
MODEL 4
REMARK VINA RESULT:      -6.9      2.681      5.286
REMARK  Name = 
REMARK  7 active torsions:
REMARK  status: ('A' for Active; 'I' for Inactive)
REMARK    1  A    between atoms: C_1  and  C_2
REMARK    2  A    between atoms: C_2  and  C_3
REMARK    3  A    between atoms: N_5  and  C_6
REMARK    4  A    between atoms: C_9  and  O_10
REMARK    5  A    between atoms: C_12  and  C_13
REMARK    6  A    between atoms: C_19  and  O_20
REMARK    7  A    between atoms: O_20  and  C_21
REMARK                            x       y       z     vdW  Elec       q    Type
REMARK                         _______ _______ _______ _____ _____    ______ ____
ROOT
ATOM      1  C   UNL     1       3.936   6.869  17.221  0.00  0.00    +0.000 A 
ATOM      2  C   UNL     1       3.736   5.727  17.955  0.00  0.00    +0.000 A 
ATOM      3  N   UNL     1       2.841   5.957  18.982  0.00  0.00    +0.000 N 
ATOM      4  C   UNL     1       2.436   7.308  18.914  0.00  0.00    +0.000 A 
ATOM      5  C   UNL     1       3.085   7.857  17.790  0.00  0.00    +0.000 A 
ATOM      6  C   UNL     1       2.817   9.179  17.427  0.00  0.00    +0.000 A 
ATOM      7  N   UNL     1       1.917   9.923  18.102  0.00  0.00    +0.000 NA
ATOM      8  C   UNL     1       1.293   9.444  19.189  0.00  0.00    +0.000 A 
ATOM      9  C   UNL     1       0.339  10.243  19.860  0.00  0.00    +0.000 A 
ATOM     10  C   UNL     1      -0.329   9.767  20.997  0.00  0.00    +0.000 A 
ATOM     11  C   UNL     1       0.012   8.540  21.545  0.00  0.00    +0.000 A 
ATOM     12  C   UNL     1       0.990   7.764  20.933  0.00  0.00    +0.000 A 
ATOM     13  C   UNL     1       1.572   8.151  19.705  0.00  0.00    +0.000 A 
ENDROOT
BRANCH   3  14
ATOM     14  C   UNL     1       2.361   4.899  19.824  0.00  0.00    +0.000 A 
ATOM     15  C   UNL     1       2.718   4.923  21.184  0.00  0.00    +0.000 A 
ATOM     16  C   UNL     1       2.367   3.877  22.041  0.00  0.00    +0.000 A 
ATOM     17  C   UNL     1       1.578   2.845  21.561  0.00  0.00    +0.000 A 
ATOM     18  C   UNL     1       1.128   2.851  20.247  0.00  0.00    +0.000 A 
ATOM     19  C   UNL     1       1.522   3.862  19.346  0.00  0.00    +0.000 A 
ATOM     20  C   UNL     1       1.069   3.696  17.918  0.00  0.00    +0.000 C 
BRANCH  17  21
ATOM     21  O   UNL     1       1.225   1.789  22.347  0.00  0.00    +0.000 OA
ATOM     22  H   UNL     1       0.341   1.486  22.082  0.00  0.00    +0.000 HD
ENDBRANCH  17  21
ENDBRANCH   3  14
BRANCH   1  24
ATOM     23  C   UNL     1       5.471   5.672  15.634  0.00  0.00    +0.000 C 
ATOM     24  C   UNL     1       4.821   6.992  16.020  0.00  0.00    +0.000 C 
ENDBRANCH   1  24
BRANCH   9  25
ATOM     25  O   UNL     1       0.108  11.492  19.324  0.00  0.00    +0.000 OA
ATOM     26  C   UNL     1      -1.187  11.764  18.810  0.00  0.00    +0.000 C 
ENDBRANCH   9  25
TORSDOF 4
ENDMDL
MODEL 5
REMARK VINA RESULT:      -6.7      7.229      9.753
REMARK  Name = 
REMARK  7 active torsions:
REMARK  status: ('A' for Active; 'I' for Inactive)
REMARK    1  A    between atoms: C_1  and  C_2
REMARK    2  A    between atoms: C_2  and  C_3
REMARK    3  A    between atoms: N_5  and  C_6
REMARK    4  A    between atoms: C_9  and  O_10
REMARK    5  A    between atoms: C_12  and  C_13
REMARK    6  A    between atoms: C_19  and  O_20
REMARK    7  A    between atoms: O_20  and  C_21
REMARK                            x       y       z     vdW  Elec       q    Type
REMARK                         _______ _______ _______ _____ _____    ______ ____
ROOT
ATOM      1  C   UNL     1      -3.519  11.039  16.842  0.00  0.00    +0.000 A 
ATOM      2  C   UNL     1      -2.222  11.390  17.121  0.00  0.00    +0.000 A 
ATOM      3  N   UNL     1      -2.135  11.997  18.360  0.00  0.00    +0.000 N 
ATOM      4  C   UNL     1      -3.433  12.039  18.916  0.00  0.00    +0.000 A 
ATOM      5  C   UNL     1      -4.280  11.401  17.988  0.00  0.00    +0.000 A 
ATOM      6  C   UNL     1      -5.630  11.230  18.304  0.00  0.00    +0.000 A 
ATOM      7  N   UNL     1      -6.126  11.620  19.496  0.00  0.00    +0.000 NA
ATOM      8  C   UNL     1      -5.358  12.248  20.398  0.00  0.00    +0.000 A 
ATOM      9  C   UNL     1      -5.905  12.624  21.646  0.00  0.00    +0.000 A 
ATOM     10  C   UNL     1      -5.124  13.280  22.609  0.00  0.00    +0.000 A 
ATOM     11  C   UNL     1      -3.827  13.665  22.311  0.00  0.00    +0.000 A 
ATOM     12  C   UNL     1      -3.289  13.356  21.066  0.00  0.00    +0.000 A 
ATOM     13  C   UNL     1      -3.999  12.566  20.134  0.00  0.00    +0.000 A 
ENDROOT
BRANCH   3  14
ATOM     14  C   UNL     1      -0.876  12.348  18.949  0.00  0.00    +0.000 A 
ATOM     15  C   UNL     1      -0.365  13.635  18.698  0.00  0.00    +0.000 A 
ATOM     16  C   UNL     1       0.898  14.012  19.158  0.00  0.00    +0.000 A 
ATOM     17  C   UNL     1       1.620  13.136  19.951  0.00  0.00    +0.000 A 
ATOM     18  C   UNL     1       1.092  11.898  20.298  0.00  0.00    +0.000 A 
ATOM     19  C   UNL     1      -0.152  11.469  19.793  0.00  0.00    +0.000 A 
ATOM     20  C   UNL     1      -0.564  10.061  20.140  0.00  0.00    +0.000 C 
BRANCH  17  21
ATOM     21  O   UNL     1       2.865  13.445  20.409  0.00  0.00    +0.000 OA
ATOM     22  H   UNL     1       2.799  14.212  21.000  0.00  0.00    +0.000 HD
ENDBRANCH  17  21
ENDBRANCH   3  14
BRANCH   1  24
ATOM     23  C   UNL     1      -2.866  10.112  14.602  0.00  0.00    +0.000 C 
ATOM     24  C   UNL     1      -3.988  10.343  15.603  0.00  0.00    +0.000 C 
ENDBRANCH   1  24
BRANCH   9  25
ATOM     25  O   UNL     1      -7.228  12.297  21.852  0.00  0.00    +0.000 OA
ATOM     26  C   UNL     1      -7.717  12.313  23.185  0.00  0.00    +0.000 C 
ENDBRANCH   9  25
TORSDOF 4
ENDMDL
MODEL 6
REMARK VINA RESULT:      -6.6      4.492      7.882
REMARK  Name = 
REMARK  7 active torsions:
REMARK  status: ('A' for Active; 'I' for Inactive)
REMARK    1  A    between atoms: C_1  and  C_2
REMARK    2  A    between atoms: C_2  and  C_3
REMARK    3  A    between atoms: N_5  and  C_6
REMARK    4  A    between atoms: C_9  and  O_10
REMARK    5  A    between atoms: C_12  and  C_13
REMARK    6  A    between atoms: C_19  and  O_20
REMARK    7  A    between atoms: O_20  and  C_21
REMARK                            x       y       z     vdW  Elec       q    Type
REMARK                         _______ _______ _______ _____ _____    ______ ____
ROOT
ATOM      1  C   UNL     1      -1.099  12.451  21.948  0.00  0.00    +0.000 A 
ATOM      2  C   UNL     1      -0.068  11.622  21.584  0.00  0.00    +0.000 A 
ATOM      3  N   UNL     1      -0.360  10.969  20.402  0.00  0.00    +0.000 N 
ATOM      4  C   UNL     1      -1.636  11.394  19.972  0.00  0.00    +0.000 A 
ATOM      5  C   UNL     1      -2.070  12.349  20.913  0.00  0.00    +0.000 A 
ATOM      6  C   UNL     1      -3.287  13.004  20.709  0.00  0.00    +0.000 A 
ATOM      7  N   UNL     1      -4.029  12.774  19.606  0.00  0.00    +0.000 NA
ATOM      8  C   UNL     1      -3.662  11.859  18.697  0.00  0.00    +0.000 A 
ATOM      9  C   UNL     1      -4.452  11.658  17.542  0.00  0.00    +0.000 A 
ATOM     10  C   UNL     1      -4.090  10.710  16.575  0.00  0.00    +0.000 A 
ATOM     11  C   UNL     1      -3.003   9.877  16.786  0.00  0.00    +0.000 A 
ATOM     12  C   UNL     1      -2.246  10.019  17.945  0.00  0.00    +0.000 A 
ATOM     13  C   UNL     1      -2.497  11.062  18.863  0.00  0.00    +0.000 A 
ENDROOT
BRANCH   3  14
ATOM     14  C   UNL     1       0.600  10.138  19.734  0.00  0.00    +0.000 A 
ATOM     15  C   UNL     1       1.192  10.628  18.556  0.00  0.00    +0.000 A 
ATOM     16  C   UNL     1       2.062   9.837  17.802  0.00  0.00    +0.000 A 
ATOM     17  C   UNL     1       2.416   8.583  18.272  0.00  0.00    +0.000 A 
ATOM     18  C   UNL     1       1.924   8.118  19.485  0.00  0.00    +0.000 A 
ATOM     19  C   UNL     1       0.994   8.871  20.232  0.00  0.00    +0.000 A 
ATOM     20  C   UNL     1       0.440   8.211  21.468  0.00  0.00    +0.000 C 
BRANCH  17  21
ATOM     21  O   UNL     1       3.242   7.761  17.567  0.00  0.00    +0.000 OA
ATOM     22  H   UNL     1       2.715   7.279  16.909  0.00  0.00    +0.000 HD
ENDBRANCH  17  21
ENDBRANCH   3  14
BRANCH   1  24
ATOM     23  C   UNL     1      -0.589  14.727  22.879  0.00  0.00    +0.000 C 
ATOM     24  C   UNL     1      -1.126  13.331  23.158  0.00  0.00    +0.000 C 
ENDBRANCH   1  24
BRANCH   9  25
ATOM     25  O   UNL     1      -5.574  12.452  17.430  0.00  0.00    +0.000 OA
ATOM     26  C   UNL     1      -6.822  11.896  17.818  0.00  0.00    +0.000 C 
ENDBRANCH   9  25
TORSDOF 4
ENDMDL
MODEL 7
REMARK VINA RESULT:      -6.5      1.811      4.453
REMARK  Name = 
REMARK  7 active torsions:
REMARK  status: ('A' for Active; 'I' for Inactive)
REMARK    1  A    between atoms: C_1  and  C_2
REMARK    2  A    between atoms: C_2  and  C_3
REMARK    3  A    between atoms: N_5  and  C_6
REMARK    4  A    between atoms: C_9  and  O_10
REMARK    5  A    between atoms: C_12  and  C_13
REMARK    6  A    between atoms: C_19  and  O_20
REMARK    7  A    between atoms: O_20  and  C_21
REMARK                            x       y       z     vdW  Elec       q    Type
REMARK                         _______ _______ _______ _____ _____    ______ ____
ROOT
ATOM      1  C   UNL     1       2.875   8.128  18.041  0.00  0.00    +0.000 A 
ATOM      2  C   UNL     1       3.741   7.752  17.044  0.00  0.00    +0.000 A 
ATOM      3  N   UNL     1       4.233   6.482  17.278  0.00  0.00    +0.000 N 
ATOM      4  C   UNL     1       3.660   6.006  18.477  0.00  0.00    +0.000 A 
ATOM      5  C   UNL     1       2.783   7.015  18.922  0.00  0.00    +0.000 A 
ATOM      6  C   UNL     1       2.012   6.793  20.066  0.00  0.00    +0.000 A 
ATOM      7  N   UNL     1       2.057   5.617  20.724  0.00  0.00    +0.000 NA
ATOM      8  C   UNL     1       2.893   4.638  20.345  0.00  0.00    +0.000 A 
ATOM      9  C   UNL     1       2.899   3.410  21.043  0.00  0.00    +0.000 A 
ATOM     10  C   UNL     1       3.760   2.369  20.667  0.00  0.00    +0.000 A 
ATOM     11  C   UNL     1       4.698   2.567  19.666  0.00  0.00    +0.000 A 
ATOM     12  C   UNL     1       4.747   3.789  19.005  0.00  0.00    +0.000 A 
ATOM     13  C   UNL     1       3.795   4.801  19.260  0.00  0.00    +0.000 A 
ENDROOT
BRANCH   3  14
ATOM     14  C   UNL     1       5.060   5.799  16.325  0.00  0.00    +0.000 A 
ATOM     15  C   UNL     1       4.427   5.058  15.311  0.00  0.00    +0.000 A 
ATOM     16  C   UNL     1       5.167   4.291  14.409  0.00  0.00    +0.000 A 
ATOM     17  C   UNL     1       6.550   4.334  14.458  0.00  0.00    +0.000 A 
ATOM     18  C   UNL     1       7.199   5.140  15.386  0.00  0.00    +0.000 A 
ATOM     19  C   UNL     1       6.475   5.872  16.349  0.00  0.00    +0.000 A 
ATOM     20  C   UNL     1       7.292   6.612  17.378  0.00  0.00    +0.000 C 
BRANCH  17  21
ATOM     21  O   UNL     1       7.320   3.590  13.616  0.00  0.00    +0.000 OA
ATOM     22  H   UNL     1       8.136   3.339  14.080  0.00  0.00    +0.000 HD
ENDBRANCH  17  21
ENDBRANCH   3  14
BRANCH   1  24
ATOM     23  C   UNL     1       0.652   9.272  17.811  0.00  0.00    +0.000 C 
ATOM     24  C   UNL     1       2.136   9.427  18.110  0.00  0.00    +0.000 C 
ENDBRANCH   1  24
BRANCH   9  25
ATOM     25  O   UNL     1       2.009   3.303  22.091  0.00  0.00    +0.000 OA
ATOM     26  C   UNL     1       1.079   2.230  22.066  0.00  0.00    +0.000 C 
ENDBRANCH   9  25
TORSDOF 4
ENDMDL
MODEL 8
REMARK VINA RESULT:      -6.3      8.585      9.983
REMARK  Name = 
REMARK  7 active torsions:
REMARK  status: ('A' for Active; 'I' for Inactive)
REMARK    1  A    between atoms: C_1  and  C_2
REMARK    2  A    between atoms: C_2  and  C_3
REMARK    3  A    between atoms: N_5  and  C_6
REMARK    4  A    between atoms: C_9  and  O_10
REMARK    5  A    between atoms: C_12  and  C_13
REMARK    6  A    between atoms: C_19  and  O_20
REMARK    7  A    between atoms: O_20  and  C_21
REMARK                            x       y       z     vdW  Elec       q    Type
REMARK                         _______ _______ _______ _____ _____    ______ ____
ROOT
ATOM      1  C   UNL     1       6.065  15.872  19.869  0.00  0.00    +0.000 A 
ATOM      2  C   UNL     1       7.192  15.479  19.192  0.00  0.00    +0.000 A 
ATOM      3  N   UNL     1       7.869  14.500  19.896  0.00  0.00    +0.000 N 
ATOM      4  C   UNL     1       7.148  14.240  21.082  0.00  0.00    +0.000 A 
ATOM      5  C   UNL     1       6.005  15.062  21.037  0.00  0.00    +0.000 A 
ATOM      6  C   UNL     1       5.058  14.968  22.059  0.00  0.00    +0.000 A 
ATOM      7  N   UNL     1       5.193  14.074  23.060  0.00  0.00    +0.000 NA
ATOM      8  C   UNL     1       6.275  13.287  23.150  0.00  0.00    +0.000 A 
ATOM      9  C   UNL     1       6.375  12.346  24.200  0.00  0.00    +0.000 A 
ATOM     10  C   UNL     1       7.495  11.510  24.317  0.00  0.00    +0.000 A 
ATOM     11  C   UNL     1       8.574  11.665  23.461  0.00  0.00    +0.000 A 
ATOM     12  C   UNL     1       8.520  12.626  22.456  0.00  0.00    +0.000 A 
ATOM     13  C   UNL     1       7.347  13.378  22.222  0.00  0.00    +0.000 A 
ENDROOT
BRANCH   3  14
ATOM     14  C   UNL     1       9.013  13.827  19.353  0.00  0.00    +0.000 A 
ATOM     15  C   UNL     1       8.797  12.849  18.365  0.00  0.00    +0.000 A 
ATOM     16  C   UNL     1       9.853  12.086  17.862  0.00  0.00    +0.000 A 
ATOM     17  C   UNL     1      11.145  12.361  18.277  0.00  0.00    +0.000 A 
ATOM     18  C   UNL     1      11.395  13.391  19.176  0.00  0.00    +0.000 A 
ATOM     19  C   UNL     1      10.339  14.131  19.747  0.00  0.00    +0.000 A 
ATOM     20  C   UNL     1      10.725  15.140  20.800  0.00  0.00    +0.000 C 
BRANCH  17  21
ATOM     21  O   UNL     1      12.209  11.634  17.835  0.00  0.00    +0.000 OA
ATOM     22  H   UNL     1      12.992  11.882  18.353  0.00  0.00    +0.000 HD
ENDBRANCH  17  21
ENDBRANCH   3  14
BRANCH   1  24
ATOM     23  C   UNL     1       4.124  16.350  18.349  0.00  0.00    +0.000 C 
ATOM     24  C   UNL     1       5.078  16.895  19.402  0.00  0.00    +0.000 C 
ENDBRANCH   1  24
BRANCH   9  25
ATOM     25  O   UNL     1       5.312  12.301  25.077  0.00  0.00    +0.000 OA
ATOM     26  C   UNL     1       5.387  11.391  26.164  0.00  0.00    +0.000 C 
ENDBRANCH   9  25
TORSDOF 4
ENDMDL
MODEL 9
REMARK VINA RESULT:      -6.3      6.792      9.737
REMARK  Name = 
REMARK  7 active torsions:
REMARK  status: ('A' for Active; 'I' for Inactive)
REMARK    1  A    between atoms: C_1  and  C_2
REMARK    2  A    between atoms: C_2  and  C_3
REMARK    3  A    between atoms: N_5  and  C_6
REMARK    4  A    between atoms: C_9  and  O_10
REMARK    5  A    between atoms: C_12  and  C_13
REMARK    6  A    between atoms: C_19  and  O_20
REMARK    7  A    between atoms: O_20  and  C_21
REMARK                            x       y       z     vdW  Elec       q    Type
REMARK                         _______ _______ _______ _____ _____    ______ ____
ROOT
ATOM      1  C   UNL     1      -2.821  13.235  22.851  0.00  0.00    +0.000 A 
ATOM      2  C   UNL     1      -1.574  13.091  22.296  0.00  0.00    +0.000 A 
ATOM      3  N   UNL     1      -1.670  12.692  20.976  0.00  0.00    +0.000 N 
ATOM      4  C   UNL     1      -3.039  12.574  20.655  0.00  0.00    +0.000 A 
ATOM      5  C   UNL     1      -3.750  12.957  21.810  0.00  0.00    +0.000 A 
ATOM      6  C   UNL     1      -5.145  13.007  21.767  0.00  0.00    +0.000 A 
ATOM      7  N   UNL     1      -5.821  12.741  20.631  0.00  0.00    +0.000 NA
ATOM      8  C   UNL     1      -5.184  12.354  19.515  0.00  0.00    +0.000 A 
ATOM      9  C   UNL     1      -5.922  12.105  18.335  0.00  0.00    +0.000 A 
ATOM     10  C   UNL     1      -5.281  11.701  17.155  0.00  0.00    +0.000 A 
ATOM     11  C   UNL     1      -3.921  11.438  17.154  0.00  0.00    +0.000 A 
ATOM     12  C   UNL     1      -3.186  11.621  18.321  0.00  0.00    +0.000 A 
ATOM     13  C   UNL     1      -3.776  12.169  19.481  0.00  0.00    +0.000 A 
ENDROOT
BRANCH   3  14
ATOM     14  C   UNL     1      -0.518  12.589  20.127  0.00  0.00    +0.000 A 
ATOM     15  C   UNL     1      -0.005  13.772  19.563  0.00  0.00    +0.000 A 
ATOM     16  C   UNL     1       1.053  13.737  18.653  0.00  0.00    +0.000 A 
ATOM     17  C   UNL     1       1.664  12.527  18.370  0.00  0.00    +0.000 A 
ATOM     18  C   UNL     1       1.241  11.359  18.992  0.00  0.00    +0.000 A 
ATOM     19  C   UNL     1       0.133  11.358  19.865  0.00  0.00    +0.000 A 
ATOM     20  C   UNL     1      -0.307  10.013  20.384  0.00  0.00    +0.000 C 
BRANCH  17  21
ATOM     21  O   UNL     1       2.685  12.433  17.473  0.00  0.00    +0.000 OA
ATOM     22  H   UNL     1       3.177  13.270  17.472  0.00  0.00    +0.000 HD
ENDBRANCH  17  21
ENDBRANCH   3  14
BRANCH   1  24
ATOM     23  C   UNL     1      -3.427  15.159  24.347  0.00  0.00    +0.000 C 
ATOM     24  C   UNL     1      -3.107  13.674  24.253  0.00  0.00    +0.000 C 
ENDBRANCH   1  24
BRANCH   9  25
ATOM     25  O   UNL     1      -7.285  12.294  18.421  0.00  0.00    +0.000 OA
ATOM     26  C   UNL     1      -7.822  13.501  17.903  0.00  0.00    +0.000 C 
ENDBRANCH   9  25
TORSDOF 4
ENDMDL
