MODEL 1
REMARK VINA RESULT:      -7.2      0.000      0.000
REMARK  Name = 
REMARK  7 active torsions:
REMARK  status: ('A' for Active; 'I' for Inactive)
REMARK    1  A    between atoms: C_1  and  C_2
REMARK    2  A    between atoms: C_2  and  N_3
REMARK    3  A    between atoms: N_3  and  C_4
REMARK    4  A    between atoms: C_15  and  C_16
REMARK    5  A    between atoms: C_20  and  C_21
REMARK    6  A    between atoms: C_24  and  N_25
REMARK    7  A    between atoms: C_28  and  C_29
REMARK                            x       y       z     vdW  Elec       q    Type
REMARK                         _______ _______ _______ _____ _____    ______ ____
ROOT
ATOM      1  C   UNL     1       2.343   6.927  19.768  0.00  0.00    +0.000 A 
ATOM      2  C   UNL     1       2.640   7.286  18.439  0.00  0.00    +0.000 A 
ATOM      3  C   UNL     1       2.346   8.536  17.939  0.00  0.00    +0.000 A 
ATOM      4  F   UNL     1       2.697   8.840  16.681  0.00  0.00    +0.000 F 
ATOM      5  C   UNL     1       1.682   9.483  18.702  0.00  0.00    +0.000 A 
ATOM      6  C   UNL     1       1.233   9.145  19.996  0.00  0.00    +0.000 A 
ATOM      7  C   UNL     1       1.602   7.887  20.498  0.00  0.00    +0.000 A 
ATOM      8  N   UNL     1       1.091   7.829  21.774  0.00  0.00    +0.000 N 
ATOM      9  C   UNL     1       0.397   8.968  22.086  0.00  0.00    +0.000 A 
ATOM     10  N   UNL     1      -0.199   9.185  23.268  0.00  0.00    +0.000 NA
ATOM     11  C   UNL     1      -0.836  10.381  23.342  0.00  0.00    +0.000 A 
ATOM     12  C   UNL     1      -0.929  11.370  22.350  0.00  0.00    +0.000 A 
ATOM     13  C   UNL     1      -0.257  11.064  21.132  0.00  0.00    +0.000 A 
ATOM     14  C   UNL     1       0.431   9.819  20.990  0.00  0.00    +0.000 A 
ATOM     15  H   UNL     1       1.176   7.044  22.408  0.00  0.00    +0.000 HD
ENDROOT
BRANCH  12  16
ATOM     16  C   UNL     1      -1.769  12.579  22.608  0.00  0.00    +0.000 A 
ATOM     17  C   UNL     1      -1.261  13.722  23.239  0.00  0.00    +0.000 A 
ATOM     18  N   UNL     1      -1.958  14.861  23.490  0.00  0.00    +0.000 NA
ATOM     19  C   UNL     1      -3.239  14.901  23.059  0.00  0.00    +0.000 A 
ATOM     20  C   UNL     1      -3.858  13.840  22.423  0.00  0.00    +0.000 A 
ATOM     21  C   UNL     1      -3.126  12.660  22.252  0.00  0.00    +0.000 A 
BRANCH  20  22
ATOM     22  C   UNL     1      -5.191  13.965  21.933  0.00  0.00    +0.000 C 
ATOM     23  N   UNL     1      -6.268  14.044  21.501  0.00  0.00    +0.000 NA
ENDBRANCH  20  22
ENDBRANCH  12  16
BRANCH  13  24
ATOM     24  N   UNL     1      -0.239  11.986  20.061  0.00  0.00    +0.000 N 
ATOM     25  C   UNL     1      -1.098  12.012  18.986  0.00  0.00    +0.000 A 
ATOM     26  C   UNL     1      -0.702  13.048  18.177  0.00  0.00    +0.000 A 
ATOM     27  C   UNL     1       0.333  13.691  18.891  0.00  0.00    +0.000 A 
ATOM     28  N   UNL     1       0.610  13.042  20.039  0.00  0.00    +0.000 NA
BRANCH  27  29
ATOM     29  C   UNL     1       1.027  14.958  18.509  0.00  0.00    +0.000 C 
ATOM     30  F   UNL     1       1.058  15.836  19.549  0.00  0.00    +0.000 F 
ATOM     31  F   UNL     1       2.329  14.715  18.185  0.00  0.00    +0.000 F 
ENDBRANCH  27  29
ENDBRANCH  13  24
BRANCH   1  32
ATOM     32  N   UNL     1       2.697   5.682  20.287  0.00  0.00    +0.000 N 
ATOM     33  H   UNL     1       3.595   5.622  20.753  0.00  0.00    +0.000 HD
BRANCH  32  35
ATOM     34  C   UNL     1       1.009   3.894  20.460  0.00  0.00    +0.000 C 
ATOM     35  C   UNL     1       2.172   4.463  19.678  0.00  0.00    +0.000 C 
ENDBRANCH  32  35
ENDBRANCH   1  32
TORSDOF 6
ENDMDL
MODEL 2
REMARK VINA RESULT:      -7.1      0.841      1.691
REMARK  Name = 
REMARK  7 active torsions:
REMARK  status: ('A' for Active; 'I' for Inactive)
REMARK    1  A    between atoms: C_1  and  C_2
REMARK    2  A    between atoms: C_2  and  N_3
REMARK    3  A    between atoms: N_3  and  C_4
REMARK    4  A    between atoms: C_15  and  C_16
REMARK    5  A    between atoms: C_20  and  C_21
REMARK    6  A    between atoms: C_24  and  N_25
REMARK    7  A    between atoms: C_28  and  C_29
REMARK                            x       y       z     vdW  Elec       q    Type
REMARK                         _______ _______ _______ _____ _____    ______ ____
ROOT
ATOM      1  C   UNL     1       2.290   7.009  19.828  0.00  0.00    +0.000 A 
ATOM      2  C   UNL     1       2.564   7.351  18.490  0.00  0.00    +0.000 A 
ATOM      3  C   UNL     1       2.239   8.587  17.973  0.00  0.00    +0.000 A 
ATOM      4  F   UNL     1       2.568   8.877  16.707  0.00  0.00    +0.000 F 
ATOM      5  C   UNL     1       1.564   9.532  18.729  0.00  0.00    +0.000 A 
ATOM      6  C   UNL     1       1.138   9.207  20.034  0.00  0.00    +0.000 A 
ATOM      7  C   UNL     1       1.539   7.965  20.551  0.00  0.00    +0.000 A 
ATOM      8  N   UNL     1       1.044   7.918  21.834  0.00  0.00    +0.000 N 
ATOM      9  C   UNL     1       0.331   9.047  22.136  0.00  0.00    +0.000 A 
ATOM     10  N   UNL     1      -0.256   9.272  23.322  0.00  0.00    +0.000 NA
ATOM     11  C   UNL     1      -0.916  10.456  23.384  0.00  0.00    +0.000 A 
ATOM     12  C   UNL     1      -1.042  11.426  22.377  0.00  0.00    +0.000 A 
ATOM     13  C   UNL     1      -0.378  11.114  21.156  0.00  0.00    +0.000 A 
ATOM     14  C   UNL     1       0.334   9.881  21.026  0.00  0.00    +0.000 A 
ATOM     15  H   UNL     1       1.153   7.145  22.480  0.00  0.00    +0.000 HD
ENDROOT
BRANCH  12  16
ATOM     16  C   UNL     1      -1.903  12.622  22.626  0.00  0.00    +0.000 A 
ATOM     17  C   UNL     1      -3.184  12.749  22.074  0.00  0.00    +0.000 A 
ATOM     18  N   UNL     1      -4.028  13.797  22.270  0.00  0.00    +0.000 NA
ATOM     19  C   UNL     1      -3.603  14.777  23.099  0.00  0.00    +0.000 A 
ATOM     20  C   UNL     1      -2.360  14.769  23.707  0.00  0.00    +0.000 A 
ATOM     21  C   UNL     1      -1.495  13.709  23.418  0.00  0.00    +0.000 A 
BRANCH  20  22
ATOM     22  C   UNL     1      -1.994  15.799  24.623  0.00  0.00    +0.000 C 
ATOM     23  N   UNL     1      -1.735  16.640  25.382  0.00  0.00    +0.000 NA
ENDBRANCH  20  22
ENDBRANCH  12  16
BRANCH  13  24
ATOM     24  N   UNL     1      -0.391  12.018  20.070  0.00  0.00    +0.000 N 
ATOM     25  C   UNL     1      -1.175  11.934  18.942  0.00  0.00    +0.000 A 
ATOM     26  C   UNL     1      -0.844  12.997  18.139  0.00  0.00    +0.000 A 
ATOM     27  C   UNL     1       0.063  13.761  18.905  0.00  0.00    +0.000 A 
ATOM     28  N   UNL     1       0.335  13.163  20.081  0.00  0.00    +0.000 NA
BRANCH  27  29
ATOM     29  C   UNL     1       0.636  15.093  18.542  0.00  0.00    +0.000 C 
ATOM     30  F   UNL     1      -0.346  15.985  18.238  0.00  0.00    +0.000 F 
ATOM     31  F   UNL     1       1.314  15.629  19.597  0.00  0.00    +0.000 F 
ENDBRANCH  27  29
ENDBRANCH  13  24
BRANCH   1  32
ATOM     32  N   UNL     1       2.676   5.780  20.363  0.00  0.00    +0.000 N 
ATOM     33  H   UNL     1       3.534   5.767  20.902  0.00  0.00    +0.000 HD
BRANCH  32  35
ATOM     34  C   UNL     1       1.169   3.831  20.445  0.00  0.00    +0.000 C 
ATOM     35  C   UNL     1       2.278   4.540  19.701  0.00  0.00    +0.000 C 
ENDBRANCH  32  35
ENDBRANCH   1  32
TORSDOF 6
ENDMDL
MODEL 3
REMARK VINA RESULT:      -7.0      2.615      7.892
REMARK  Name = 
REMARK  7 active torsions:
REMARK  status: ('A' for Active; 'I' for Inactive)
REMARK    1  A    between atoms: C_1  and  C_2
REMARK    2  A    between atoms: C_2  and  N_3
REMARK    3  A    between atoms: N_3  and  C_4
REMARK    4  A    between atoms: C_15  and  C_16
REMARK    5  A    between atoms: C_20  and  C_21
REMARK    6  A    between atoms: C_24  and  N_25
REMARK    7  A    between atoms: C_28  and  C_29
REMARK                            x       y       z     vdW  Elec       q    Type
REMARK                         _______ _______ _______ _____ _____    ______ ____
ROOT
ATOM      1  C   UNL     1      -3.838  13.911  23.336  0.00  0.00    +0.000 A 
ATOM      2  C   UNL     1      -4.605  14.539  22.335  0.00  0.00    +0.000 A 
ATOM      3  C   UNL     1      -4.521  14.165  21.011  0.00  0.00    +0.000 A 
ATOM      4  F   UNL     1      -5.310  14.763  20.108  0.00  0.00    +0.000 F 
ATOM      5  C   UNL     1      -3.626  13.195  20.589  0.00  0.00    +0.000 A 
ATOM      6  C   UNL     1      -2.731  12.620  21.516  0.00  0.00    +0.000 A 
ATOM      7  C   UNL     1      -2.885  12.977  22.865  0.00  0.00    +0.000 A 
ATOM      8  N   UNL     1      -1.940  12.251  23.553  0.00  0.00    +0.000 N 
ATOM      9  C   UNL     1      -1.185  11.485  22.706  0.00  0.00    +0.000 A 
ATOM     10  N   UNL     1      -0.197  10.670  23.108  0.00  0.00    +0.000 NA
ATOM     11  C   UNL     1       0.417  10.020  22.087  0.00  0.00    +0.000 A 
ATOM     12  C   UNL     1       0.136  10.109  20.715  0.00  0.00    +0.000 A 
ATOM     13  C   UNL     1      -0.936  10.984  20.377  0.00  0.00    +0.000 A 
ATOM     14  C   UNL     1      -1.624  11.701  21.406  0.00  0.00    +0.000 A 
ATOM     15  H   UNL     1      -1.783  12.286  24.553  0.00  0.00    +0.000 HD
ENDROOT
BRANCH  12  16
ATOM     16  C   UNL     1       1.006   9.375  19.747  0.00  0.00    +0.000 A 
ATOM     17  C   UNL     1       1.372   9.919  18.509  0.00  0.00    +0.000 A 
ATOM     18  N   UNL     1       2.173   9.319  17.589  0.00  0.00    +0.000 NA
ATOM     19  C   UNL     1       2.685   8.112  17.918  0.00  0.00    +0.000 A 
ATOM     20  C   UNL     1       2.400   7.468  19.109  0.00  0.00    +0.000 A 
ATOM     21  C   UNL     1       1.513   8.087  19.995  0.00  0.00    +0.000 A 
BRANCH  20  22
ATOM     22  C   UNL     1       3.022   6.225  19.428  0.00  0.00    +0.000 C 
ATOM     23  N   UNL     1       3.566   5.231  19.690  0.00  0.00    +0.000 NA
ENDBRANCH  20  22
ENDBRANCH  12  16
BRANCH  13  24
ATOM     24  N   UNL     1      -1.351  11.142  19.036  0.00  0.00    +0.000 N 
ATOM     25  C   UNL     1      -1.033  12.185  18.196  0.00  0.00    +0.000 A 
ATOM     26  C   UNL     1      -1.670  11.951  17.002  0.00  0.00    +0.000 A 
ATOM     27  C   UNL     1      -2.256  10.675  17.148  0.00  0.00    +0.000 A 
ATOM     28  N   UNL     1      -2.058  10.184  18.387  0.00  0.00    +0.000 NA
BRANCH  27  29
ATOM     29  C   UNL     1      -2.963   9.892  16.089  0.00  0.00    +0.000 C 
ATOM     30  F   UNL     1      -4.258  10.293  15.962  0.00  0.00    +0.000 F 
ATOM     31  F   UNL     1      -2.387  10.098  14.871  0.00  0.00    +0.000 F 
ENDBRANCH  27  29
ENDBRANCH  13  24
BRANCH   1  32
ATOM     32  N   UNL     1      -3.971  14.251  24.681  0.00  0.00    +0.000 N 
ATOM     33  H   UNL     1      -4.889  14.129  25.093  0.00  0.00    +0.000 HD
BRANCH  32  35
ATOM     34  C   UNL     1      -3.721  16.647  25.201  0.00  0.00    +0.000 C 
ATOM     35  C   UNL     1      -3.102  15.269  25.265  0.00  0.00    +0.000 C 
ENDBRANCH  32  35
ENDBRANCH   1  32
TORSDOF 6
ENDMDL
MODEL 4
REMARK VINA RESULT:      -6.6      1.832      2.137
REMARK  Name = 
REMARK  7 active torsions:
REMARK  status: ('A' for Active; 'I' for Inactive)
REMARK    1  A    between atoms: C_1  and  C_2
REMARK    2  A    between atoms: C_2  and  N_3
REMARK    3  A    between atoms: N_3  and  C_4
REMARK    4  A    between atoms: C_15  and  C_16
REMARK    5  A    between atoms: C_20  and  C_21
REMARK    6  A    between atoms: C_24  and  N_25
REMARK    7  A    between atoms: C_28  and  C_29
REMARK                            x       y       z     vdW  Elec       q    Type
REMARK                         _______ _______ _______ _____ _____    ______ ____
ROOT
ATOM      1  C   UNL     1       2.501   6.848  19.949  0.00  0.00    +0.000 A 
ATOM      2  C   UNL     1       2.562   6.988  18.549  0.00  0.00    +0.000 A 
ATOM      3  C   UNL     1       2.017   8.077  17.902  0.00  0.00    +0.000 A 
ATOM      4  F   UNL     1       2.148   8.184  16.573  0.00  0.00    +0.000 F 
ATOM      5  C   UNL     1       1.322   9.056  18.593  0.00  0.00    +0.000 A 
ATOM      6  C   UNL     1       1.104   8.910  19.980  0.00  0.00    +0.000 A 
ATOM      7  C   UNL     1       1.725   7.824  20.618  0.00  0.00    +0.000 A 
ATOM      8  N   UNL     1       1.401   7.940  21.950  0.00  0.00    +0.000 N 
ATOM      9  C   UNL     1       0.588   9.019  22.175  0.00  0.00    +0.000 A 
ATOM     10  N   UNL     1       0.127   9.374  23.384  0.00  0.00    +0.000 NA
ATOM     11  C   UNL     1      -0.670  10.472  23.358  0.00  0.00    +0.000 A 
ATOM     12  C   UNL     1      -1.044  11.239  22.244  0.00  0.00    +0.000 A 
ATOM     13  C   UNL     1      -0.499  10.801  21.003  0.00  0.00    +0.000 A 
ATOM     14  C   UNL     1       0.347   9.649  20.962  0.00  0.00    +0.000 A 
ATOM     15  H   UNL     1       1.688   7.303  22.684  0.00  0.00    +0.000 HD
ENDROOT
BRANCH  12  16
ATOM     16  C   UNL     1      -2.017  12.358  22.427  0.00  0.00    +0.000 A 
ATOM     17  C   UNL     1      -1.694  13.521  23.138  0.00  0.00    +0.000 A 
ATOM     18  N   UNL     1      -2.520  14.585  23.330  0.00  0.00    +0.000 NA
ATOM     19  C   UNL     1      -3.741  14.522  22.752  0.00  0.00    +0.000 A 
ATOM     20  C   UNL     1      -4.180  13.430  22.025  0.00  0.00    +0.000 A 
ATOM     21  C   UNL     1      -3.326  12.328  21.916  0.00  0.00    +0.000 A 
BRANCH  20  22
ATOM     22  C   UNL     1      -5.454  13.450  21.385  0.00  0.00    +0.000 C 
ATOM     23  N   UNL     1      -6.489  13.425  20.855  0.00  0.00    +0.000 NA
ENDBRANCH  20  22
ENDBRANCH  12  16
BRANCH  13  24
ATOM     24  N   UNL     1      -0.763  11.503  19.805  0.00  0.00    +0.000 N 
ATOM     25  C   UNL     1      -0.158  12.664  19.383  0.00  0.00    +0.000 A 
ATOM     26  C   UNL     1      -0.737  13.011  18.187  0.00  0.00    +0.000 A 
ATOM     27  C   UNL     1      -1.602  11.938  17.879  0.00  0.00    +0.000 A 
ATOM     28  N   UNL     1      -1.613  11.021  18.865  0.00  0.00    +0.000 NA
BRANCH  27  29
ATOM     29  C   UNL     1      -2.382  11.756  16.617  0.00  0.00    +0.000 C 
ATOM     30  F   UNL     1      -2.113  10.551  16.041  0.00  0.00    +0.000 F 
ATOM     31  F   UNL     1      -3.721  11.756  16.875  0.00  0.00    +0.000 F 
ENDBRANCH  27  29
ENDBRANCH  13  24
BRANCH   1  32
ATOM     32  N   UNL     1       3.106   5.777  20.605  0.00  0.00    +0.000 N 
ATOM     33  H   UNL     1       4.023   5.946  21.003  0.00  0.00    +0.000 HD
BRANCH  32  35
ATOM     34  C   UNL     1       1.719   3.799  21.094  0.00  0.00    +0.000 C 
ATOM     35  C   UNL     1       2.786   4.407  20.211  0.00  0.00    +0.000 C 
ENDBRANCH  32  35
ENDBRANCH   1  32
TORSDOF 6
ENDMDL
MODEL 5
REMARK VINA RESULT:      -6.5      1.896      2.576
REMARK  Name = 
REMARK  7 active torsions:
REMARK  status: ('A' for Active; 'I' for Inactive)
REMARK    1  A    between atoms: C_1  and  C_2
REMARK    2  A    between atoms: C_2  and  N_3
REMARK    3  A    between atoms: N_3  and  C_4
REMARK    4  A    between atoms: C_15  and  C_16
REMARK    5  A    between atoms: C_20  and  C_21
REMARK    6  A    between atoms: C_24  and  N_25
REMARK    7  A    between atoms: C_28  and  C_29
REMARK                            x       y       z     vdW  Elec       q    Type
REMARK                         _______ _______ _______ _____ _____    ______ ____
ROOT
ATOM      1  C   UNL     1       2.526   6.870  19.891  0.00  0.00    +0.000 A 
ATOM      2  C   UNL     1       2.600   7.040  18.495  0.00  0.00    +0.000 A 
ATOM      3  C   UNL     1       2.055   8.138  17.865  0.00  0.00    +0.000 A 
ATOM      4  F   UNL     1       2.199   8.274  16.539  0.00  0.00    +0.000 F 
ATOM      5  C   UNL     1       1.347   9.098  18.569  0.00  0.00    +0.000 A 
ATOM      6  C   UNL     1       1.116   8.922  19.950  0.00  0.00    +0.000 A 
ATOM      7  C   UNL     1       1.736   7.828  20.571  0.00  0.00    +0.000 A 
ATOM      8  N   UNL     1       1.398   7.913  21.902  0.00  0.00    +0.000 N 
ATOM      9  C   UNL     1       0.576   8.982  22.141  0.00  0.00    +0.000 A 
ATOM     10  N   UNL     1       0.100   9.310  23.352  0.00  0.00    +0.000 NA
ATOM     11  C   UNL     1      -0.704  10.403  23.341  0.00  0.00    +0.000 A 
ATOM     12  C   UNL     1      -1.071  11.191  22.238  0.00  0.00    +0.000 A 
ATOM     13  C   UNL     1      -0.510  10.782  20.994  0.00  0.00    +0.000 A 
ATOM     14  C   UNL     1       0.343   9.637  20.938  0.00  0.00    +0.000 A 
ATOM     15  H   UNL     1       1.682   7.264  22.626  0.00  0.00    +0.000 HD
ENDROOT
BRANCH  12  16
ATOM     16  C   UNL     1      -2.053  12.300  22.435  0.00  0.00    +0.000 A 
ATOM     17  C   UNL     1      -3.327  12.282  21.853  0.00  0.00    +0.000 A 
ATOM     18  N   UNL     1      -4.276  13.244  22.002  0.00  0.00    +0.000 NA
ATOM     19  C   UNL     1      -3.971  14.284  22.811  0.00  0.00    +0.000 A 
ATOM     20  C   UNL     1      -2.748  14.419  23.443  0.00  0.00    +0.000 A 
ATOM     21  C   UNL     1      -1.774  13.444  23.203  0.00  0.00    +0.000 A 
BRANCH  20  22
ATOM     22  C   UNL     1      -2.509  15.504  24.336  0.00  0.00    +0.000 C 
ATOM     23  N   UNL     1      -2.274  16.391  25.050  0.00  0.00    +0.000 NA
ENDBRANCH  20  22
ENDBRANCH  12  16
BRANCH  13  24
ATOM     24  N   UNL     1      -0.767  11.506  19.808  0.00  0.00    +0.000 N 
ATOM     25  C   UNL     1      -0.147  12.666  19.404  0.00  0.00    +0.000 A 
ATOM     26  C   UNL     1      -0.722  13.040  18.216  0.00  0.00    +0.000 A 
ATOM     27  C   UNL     1      -1.602  11.984  17.891  0.00  0.00    +0.000 A 
ATOM     28  N   UNL     1      -1.625  11.051  18.862  0.00  0.00    +0.000 NA
BRANCH  27  29
ATOM     29  C   UNL     1      -2.386  11.833  16.628  0.00  0.00    +0.000 C 
ATOM     30  F   UNL     1      -2.114  10.646  16.018  0.00  0.00    +0.000 F 
ATOM     31  F   UNL     1      -3.724  11.820  16.890  0.00  0.00    +0.000 F 
ENDBRANCH  27  29
ENDBRANCH  13  24
BRANCH   1  32
ATOM     32  N   UNL     1       3.131   5.789  20.531  0.00  0.00    +0.000 N 
ATOM     33  H   UNL     1       4.089   5.919  20.837  0.00  0.00    +0.000 HD
BRANCH  32  35
ATOM     34  C   UNL     1       1.230   4.221  20.497  0.00  0.00    +0.000 C 
ATOM     35  C   UNL     1       2.703   4.427  20.223  0.00  0.00    +0.000 C 
ENDBRANCH  32  35
ENDBRANCH   1  32
TORSDOF 6
ENDMDL
MODEL 6
REMARK VINA RESULT:      -6.3      5.066      7.567
REMARK  Name = 
REMARK  7 active torsions:
REMARK  status: ('A' for Active; 'I' for Inactive)
REMARK    1  A    between atoms: C_1  and  C_2
REMARK    2  A    between atoms: C_2  and  N_3
REMARK    3  A    between atoms: N_3  and  C_4
REMARK    4  A    between atoms: C_15  and  C_16
REMARK    5  A    between atoms: C_20  and  C_21
REMARK    6  A    between atoms: C_24  and  N_25
REMARK    7  A    between atoms: C_28  and  C_29
REMARK                            x       y       z     vdW  Elec       q    Type
REMARK                         _______ _______ _______ _____ _____    ______ ____
ROOT
ATOM      1  C   UNL     1      -6.735  11.450  20.073  0.00  0.00    +0.000 A 
ATOM      2  C   UNL     1      -7.326  12.056  21.198  0.00  0.00    +0.000 A 
ATOM      3  C   UNL     1      -6.676  13.029  21.927  0.00  0.00    +0.000 A 
ATOM      4  F   UNL     1      -7.306  13.608  22.959  0.00  0.00    +0.000 F 
ATOM      5  C   UNL     1      -5.378  13.411  21.628  0.00  0.00    +0.000 A 
ATOM      6  C   UNL     1      -4.676  12.749  20.599  0.00  0.00    +0.000 A 
ATOM      7  C   UNL     1      -5.386  11.809  19.837  0.00  0.00    +0.000 A 
ATOM      8  N   UNL     1      -4.502  11.355  18.885  0.00  0.00    +0.000 N 
ATOM      9  C   UNL     1      -3.271  11.937  19.030  0.00  0.00    +0.000 A 
ATOM     10  N   UNL     1      -2.222  11.686  18.232  0.00  0.00    +0.000 NA
ATOM     11  C   UNL     1      -1.103  12.372  18.576  0.00  0.00    +0.000 A 
ATOM     12  C   UNL     1      -0.940  13.279  19.635  0.00  0.00    +0.000 A 
ATOM     13  C   UNL     1      -2.106  13.498  20.423  0.00  0.00    +0.000 A 
ATOM     14  C   UNL     1      -3.317  12.804  20.113  0.00  0.00    +0.000 A 
ATOM     15  H   UNL     1      -4.703  10.658  18.178  0.00  0.00    +0.000 HD
ENDROOT
BRANCH  12  16
ATOM     16  C   UNL     1       0.415  13.852  19.896  0.00  0.00    +0.000 A 
ATOM     17  C   UNL     1       1.267  13.339  20.882  0.00  0.00    +0.000 A 
ATOM     18  N   UNL     1       2.516  13.797  21.164  0.00  0.00    +0.000 NA
ATOM     19  C   UNL     1       2.982  14.809  20.398  0.00  0.00    +0.000 A 
ATOM     20  C   UNL     1       2.240  15.403  19.393  0.00  0.00    +0.000 A 
ATOM     21  C   UNL     1       0.933  14.951  19.187  0.00  0.00    +0.000 A 
BRANCH  20  22
ATOM     22  C   UNL     1       2.810  16.424  18.577  0.00  0.00    +0.000 C 
ATOM     23  N   UNL     1       3.312  17.243  17.922  0.00  0.00    +0.000 NA
ENDBRANCH  20  22
ENDBRANCH  12  16
BRANCH  13  24
ATOM     24  N   UNL     1      -2.095  14.413  21.499  0.00  0.00    +0.000 N 
ATOM     25  C   UNL     1      -2.223  15.781  21.416  0.00  0.00    +0.000 A 
ATOM     26  C   UNL     1      -2.125  16.275  22.693  0.00  0.00    +0.000 A 
ATOM     27  C   UNL     1      -2.067  15.132  23.520  0.00  0.00    +0.000 A 
ATOM     28  N   UNL     1      -2.051  14.000  22.790  0.00  0.00    +0.000 NA
BRANCH  27  29
ATOM     29  C   UNL     1      -2.079  15.111  25.015  0.00  0.00    +0.000 C 
ATOM     30  F   UNL     1      -2.323  16.351  25.523  0.00  0.00    +0.000 F 
ATOM     31  F   UNL     1      -3.083  14.313  25.477  0.00  0.00    +0.000 F 
ENDBRANCH  27  29
ENDBRANCH  13  24
BRANCH   1  32
ATOM     32  N   UNL     1      -7.419  10.511  19.303  0.00  0.00    +0.000 N 
ATOM     33  H   UNL     1      -8.349  10.769  18.991  0.00  0.00    +0.000 HD
BRANCH  32  35
ATOM     34  C   UNL     1      -7.754   8.527  20.725  0.00  0.00    +0.000 C 
ATOM     35  C   UNL     1      -7.135   9.088  19.466  0.00  0.00    +0.000 C 
ENDBRANCH  32  35
ENDBRANCH   1  32
TORSDOF 6
ENDMDL
MODEL 7
REMARK VINA RESULT:      -6.1      4.086      6.018
REMARK  Name = 
REMARK  7 active torsions:
REMARK  status: ('A' for Active; 'I' for Inactive)
REMARK    1  A    between atoms: C_1  and  C_2
REMARK    2  A    between atoms: C_2  and  N_3
REMARK    3  A    between atoms: N_3  and  C_4
REMARK    4  A    between atoms: C_15  and  C_16
REMARK    5  A    between atoms: C_20  and  C_21
REMARK    6  A    between atoms: C_24  and  N_25
REMARK    7  A    between atoms: C_28  and  C_29
REMARK                            x       y       z     vdW  Elec       q    Type
REMARK                         _______ _______ _______ _____ _____    ______ ____
ROOT
ATOM      1  C   UNL     1      -3.633  10.328  15.936  0.00  0.00    +0.000 A 
ATOM      2  C   UNL     1      -2.305   9.933  16.186  0.00  0.00    +0.000 A 
ATOM      3  C   UNL     1      -1.680  10.199  17.386  0.00  0.00    +0.000 A 
ATOM      4  F   UNL     1      -0.431   9.755  17.589  0.00  0.00    +0.000 F 
ATOM      5  C   UNL     1      -2.307  10.928  18.383  0.00  0.00    +0.000 A 
ATOM      6  C   UNL     1      -3.588  11.473  18.148  0.00  0.00    +0.000 A 
ATOM      7  C   UNL     1      -4.220  11.132  16.942  0.00  0.00    +0.000 A 
ATOM      8  N   UNL     1      -5.454  11.739  16.983  0.00  0.00    +0.000 N 
ATOM      9  C   UNL     1      -5.615  12.465  18.133  0.00  0.00    +0.000 A 
ATOM     10  N   UNL     1      -6.726  13.152  18.439  0.00  0.00    +0.000 NA
ATOM     11  C   UNL     1      -6.650  13.804  19.627  0.00  0.00    +0.000 A 
ATOM     12  C   UNL     1      -5.574  13.829  20.528  0.00  0.00    +0.000 A 
ATOM     13  C   UNL     1      -4.440  13.062  20.132  0.00  0.00    +0.000 A 
ATOM     14  C   UNL     1      -4.457  12.354  18.890  0.00  0.00    +0.000 A 
ATOM     15  H   UNL     1      -6.157  11.696  16.255  0.00  0.00    +0.000 HD
ENDROOT
BRANCH  12  16
ATOM     16  C   UNL     1      -5.664  14.697  21.741  0.00  0.00    +0.000 A 
ATOM     17  C   UNL     1      -6.540  14.417  22.798  0.00  0.00    +0.000 A 
ATOM     18  N   UNL     1      -6.664  15.149  23.937  0.00  0.00    +0.000 NA
ATOM     19  C   UNL     1      -5.842  16.215  24.071  0.00  0.00    +0.000 A 
ATOM     20  C   UNL     1      -4.934  16.597  23.100  0.00  0.00    +0.000 A 
ATOM     21  C   UNL     1      -4.892  15.859  21.912  0.00  0.00    +0.000 A 
BRANCH  20  22
ATOM     22  C   UNL     1      -4.049  17.692  23.326  0.00  0.00    +0.000 C 
ATOM     23  N   UNL     1      -3.299  18.567  23.485  0.00  0.00    +0.000 NA
ENDBRANCH  20  22
ENDBRANCH  12  16
BRANCH  13  24
ATOM     24  N   UNL     1      -3.299  12.970  20.961  0.00  0.00    +0.000 N 
ATOM     25  C   UNL     1      -3.177  12.222  22.109  0.00  0.00    +0.000 A 
ATOM     26  C   UNL     1      -1.919  12.450  22.608  0.00  0.00    +0.000 A 
ATOM     27  C   UNL     1      -1.283  13.253  21.637  0.00  0.00    +0.000 A 
ATOM     28  N   UNL     1      -2.127  13.566  20.634  0.00  0.00    +0.000 NA
BRANCH  27  29
ATOM     29  C   UNL     1       0.148  13.683  21.632  0.00  0.00    +0.000 C 
ATOM     30  F   UNL     1       0.947  12.730  21.079  0.00  0.00    +0.000 F 
ATOM     31  F   UNL     1       0.313  14.799  20.867  0.00  0.00    +0.000 F 
ENDBRANCH  27  29
ENDBRANCH  13  24
BRANCH   1  32
ATOM     32  N   UNL     1      -4.281  10.004  14.745  0.00  0.00    +0.000 N 
ATOM     33  H   UNL     1      -5.103   9.416  14.819  0.00  0.00    +0.000 HD
BRANCH  32  35
ATOM     34  C   UNL     1      -4.429   9.800  12.293  0.00  0.00    +0.000 C 
ATOM     35  C   UNL     1      -3.525   9.950  13.495  0.00  0.00    +0.000 C 
ENDBRANCH  32  35
ENDBRANCH   1  32
TORSDOF 6
ENDMDL
MODEL 8
REMARK VINA RESULT:      -6.1      2.016      2.448
REMARK  Name = 
REMARK  7 active torsions:
REMARK  status: ('A' for Active; 'I' for Inactive)
REMARK    1  A    between atoms: C_1  and  C_2
REMARK    2  A    between atoms: C_2  and  N_3
REMARK    3  A    between atoms: N_3  and  C_4
REMARK    4  A    between atoms: C_15  and  C_16
REMARK    5  A    between atoms: C_20  and  C_21
REMARK    6  A    between atoms: C_24  and  N_25
REMARK    7  A    between atoms: C_28  and  C_29
REMARK                            x       y       z     vdW  Elec       q    Type
REMARK                         _______ _______ _______ _____ _____    ______ ____
ROOT
ATOM      1  C   UNL     1       2.579   6.919  19.825  0.00  0.00    +0.000 A 
ATOM      2  C   UNL     1       2.541   7.035  18.422  0.00  0.00    +0.000 A 
ATOM      3  C   UNL     1       1.917   8.093  17.795  0.00  0.00    +0.000 A 
ATOM      4  F   UNL     1       1.955   8.179  16.458  0.00  0.00    +0.000 F 
ATOM      5  C   UNL     1       1.238   9.062  18.516  0.00  0.00    +0.000 A 
ATOM      6  C   UNL     1       1.119   8.935  19.916  0.00  0.00    +0.000 A 
ATOM      7  C   UNL     1       1.817   7.883  20.528  0.00  0.00    +0.000 A 
ATOM      8  N   UNL     1       1.581   8.013  21.878  0.00  0.00    +0.000 N 
ATOM      9  C   UNL     1       0.749   9.069  22.139  0.00  0.00    +0.000 A 
ATOM     10  N   UNL     1       0.359   9.432  23.370  0.00  0.00    +0.000 NA
ATOM     11  C   UNL     1      -0.475  10.503  23.381  0.00  0.00    +0.000 A 
ATOM     12  C   UNL     1      -0.948  11.237  22.282  0.00  0.00    +0.000 A 
ATOM     13  C   UNL     1      -0.474  10.793  21.014  0.00  0.00    +0.000 A 
ATOM     14  C   UNL     1       0.405   9.668  20.935  0.00  0.00    +0.000 A 
ATOM     15  H   UNL     1       1.938   7.400  22.601  0.00  0.00    +0.000 HD
ENDROOT
BRANCH  12  16
ATOM     16  C   UNL     1      -1.944  12.327  22.512  0.00  0.00    +0.000 A 
ATOM     17  C   UNL     1      -1.699  13.655  22.139  0.00  0.00    +0.000 A 
ATOM     18  N   UNL     1      -2.563  14.693  22.301  0.00  0.00    +0.000 NA
ATOM     19  C   UNL     1      -3.772  14.404  22.834  0.00  0.00    +0.000 A 
ATOM     20  C   UNL     1      -4.136  13.134  23.243  0.00  0.00    +0.000 A 
ATOM     21  C   UNL     1      -3.190  12.110  23.127  0.00  0.00    +0.000 A 
BRANCH  20  22
ATOM     22  C   UNL     1      -5.449  12.880  23.738  0.00  0.00    +0.000 C 
ATOM     23  N   UNL     1      -6.516  12.706  24.165  0.00  0.00    +0.000 NA
ENDBRANCH  20  22
ENDBRANCH  12  16
BRANCH  13  24
ATOM     24  N   UNL     1      -0.842  11.463  19.825  0.00  0.00    +0.000 N 
ATOM     25  C   UNL     1      -0.189  12.526  19.246  0.00  0.00    +0.000 A 
ATOM     26  C   UNL     1      -0.903  12.879  18.128  0.00  0.00    +0.000 A 
ATOM     27  C   UNL     1      -1.913  11.899  18.018  0.00  0.00    +0.000 A 
ATOM     28  N   UNL     1      -1.871  11.037  19.053  0.00  0.00    +0.000 NA
BRANCH  27  29
ATOM     29  C   UNL     1      -2.891  11.747  16.899  0.00  0.00    +0.000 C 
ATOM     30  F   UNL     1      -2.271  11.349  15.753  0.00  0.00    +0.000 F 
ATOM     31  F   UNL     1      -3.805  10.777  17.186  0.00  0.00    +0.000 F 
ENDBRANCH  27  29
ENDBRANCH  13  24
BRANCH   1  32
ATOM     32  N   UNL     1       3.263   5.881  20.456  0.00  0.00    +0.000 N 
ATOM     33  H   UNL     1       3.683   6.091  21.354  0.00  0.00    +0.000 HD
BRANCH  32  35
ATOM     34  C   UNL     1       5.333   5.104  19.366  0.00  0.00    +0.000 C 
ATOM     35  C   UNL     1       3.876   4.822  19.658  0.00  0.00    +0.000 C 
ENDBRANCH  32  35
ENDBRANCH   1  32
TORSDOF 6
ENDMDL
MODEL 9
REMARK VINA RESULT:      -5.9      3.547      5.548
REMARK  Name = 
REMARK  7 active torsions:
REMARK  status: ('A' for Active; 'I' for Inactive)
REMARK    1  A    between atoms: C_1  and  C_2
REMARK    2  A    between atoms: C_2  and  N_3
REMARK    3  A    between atoms: N_3  and  C_4
REMARK    4  A    between atoms: C_15  and  C_16
REMARK    5  A    between atoms: C_20  and  C_21
REMARK    6  A    between atoms: C_24  and  N_25
REMARK    7  A    between atoms: C_28  and  C_29
REMARK                            x       y       z     vdW  Elec       q    Type
REMARK                         _______ _______ _______ _____ _____    ______ ____
ROOT
ATOM      1  C   UNL     1      -0.435  10.571  18.294  0.00  0.00    +0.000 A 
ATOM      2  C   UNL     1      -1.167  10.016  17.227  0.00  0.00    +0.000 A 
ATOM      3  C   UNL     1      -2.504  10.296  17.039  0.00  0.00    +0.000 A 
ATOM      4  F   UNL     1      -3.140   9.780  15.978  0.00  0.00    +0.000 F 
ATOM      5  C   UNL     1      -3.210  11.087  17.930  0.00  0.00    +0.000 A 
ATOM      6  C   UNL     1      -2.573  11.565  19.095  0.00  0.00    +0.000 A 
ATOM      7  C   UNL     1      -1.198  11.314  19.226  0.00  0.00    +0.000 A 
ATOM      8  N   UNL     1      -0.818  11.920  20.401  0.00  0.00    +0.000 N 
ATOM      9  C   UNL     1      -1.885  12.507  21.027  0.00  0.00    +0.000 A 
ATOM     10  N   UNL     1      -1.801  13.176  22.187  0.00  0.00    +0.000 NA
ATOM     11  C   UNL     1      -2.992  13.662  22.620  0.00  0.00    +0.000 A 
ATOM     12  C   UNL     1      -4.247  13.541  22.004  0.00  0.00    +0.000 A 
ATOM     13  C   UNL     1      -4.244  12.828  20.770  0.00  0.00    +0.000 A 
ATOM     14  C   UNL     1      -3.022  12.289  20.261  0.00  0.00    +0.000 A 
ATOM     15  H   UNL     1       0.117  11.917  20.790  0.00  0.00    +0.000 HD
ENDROOT
BRANCH  12  16
ATOM     16  C   UNL     1      -5.454  14.071  22.707  0.00  0.00    +0.000 A 
ATOM     17  C   UNL     1      -6.266  13.262  23.513  0.00  0.00    +0.000 A 
ATOM     18  N   UNL     1      -7.366  13.678  24.195  0.00  0.00    +0.000 NA
ATOM     19  C   UNL     1      -7.675  14.992  24.113  0.00  0.00    +0.000 A 
ATOM     20  C   UNL     1      -6.954  15.894  23.352  0.00  0.00    +0.000 A 
ATOM     21  C   UNL     1      -5.874  15.409  22.607  0.00  0.00    +0.000 A 
BRANCH  20  22
ATOM     22  C   UNL     1      -7.290  17.280  23.357  0.00  0.00    +0.000 C 
ATOM     23  N   UNL     1      -7.576  18.406  23.401  0.00  0.00    +0.000 NA
ENDBRANCH  20  22
ENDBRANCH  12  16
BRANCH  13  24
ATOM     24  N   UNL     1      -5.433  12.661  20.024  0.00  0.00    +0.000 N 
ATOM     25  C   UNL     1      -6.293  11.589  20.080  0.00  0.00    +0.000 A 
ATOM     26  C   UNL     1      -7.294  11.826  19.172  0.00  0.00    +0.000 A 
ATOM     27  C   UNL     1      -7.045  13.129  18.689  0.00  0.00    +0.000 A 
ATOM     28  N   UNL     1      -5.911  13.636  19.213  0.00  0.00    +0.000 NA
BRANCH  27  29
ATOM     29  C   UNL     1      -7.915  13.921  17.767  0.00  0.00    +0.000 C 
ATOM     30  F   UNL     1      -7.452  15.193  17.624  0.00  0.00    +0.000 F 
ATOM     31  F   UNL     1      -7.908  13.379  16.516  0.00  0.00    +0.000 F 
ENDBRANCH  27  29
ENDBRANCH  13  24
BRANCH   1  32
ATOM     32  N   UNL     1       0.931  10.334  18.446  0.00  0.00    +0.000 N 
ATOM     33  H   UNL     1       1.556  10.891  17.874  0.00  0.00    +0.000 HD
BRANCH  32  35
ATOM     34  C   UNL     1       1.233   8.805  20.356  0.00  0.00    +0.000 C 
ATOM     35  C   UNL     1       1.399   9.016  18.868  0.00  0.00    +0.000 C 
ENDBRANCH  32  35
ENDBRANCH   1  32
TORSDOF 6
ENDMDL
