MODEL 1
REMARK VINA RESULT:      -7.2      0.000      0.000
REMARK  Name = 
REMARK  5 active torsions:
REMARK  status: ('A' for Active; 'I' for Inactive)
REMARK    1  A    between atoms: C_2  and  C_12
REMARK    2  A    between atoms: N_3  and  C_4
REMARK    3  A    between atoms: C_4  and  C_5
REMARK    4  A    between atoms: C_5  and  C_6
REMARK    5  A    between atoms: C_6  and  O_7
REMARK                            x       y       z     vdW  Elec       q    Type
REMARK                         _______ _______ _______ _____ _____    ______ ____
ROOT
ATOM      1  O   UNL     1       3.138   5.168  19.000  0.00  0.00    +0.000 OA
ATOM      2  C   UNL     1       3.387   6.257  18.496  0.00  0.00    +0.000 C 
ATOM      3  N   UNL     1       4.460   6.489  17.666  0.00  0.00    +0.000 N 
ATOM      4  H   UNL     1       4.646   7.434  17.368  0.00  0.00    +0.000 HD
ENDROOT
BRANCH   2   5
ATOM      5  C   UNL     1       2.509   7.409  18.813  0.00  0.00    +0.000 A 
ATOM      6  C   UNL     1       2.267   8.354  17.822  0.00  0.00    +0.000 A 
ATOM      7  C   UNL     1       1.482   9.469  18.105  0.00  0.00    +0.000 A 
ATOM      8  C   UNL     1       0.965   9.652  19.389  0.00  0.00    +0.000 A 
ATOM      9  N   UNL     1       0.201  10.810  19.659  0.00  0.00    +0.000 N 
ATOM     10  C   UNL     1       0.331  12.093  19.041  0.00  0.00    +0.000 C 
ATOM     11  C   UNL     1       0.202  12.732  20.419  0.00  0.00    +0.000 C 
ATOM     12  C   UNL     1      -0.122  11.336  20.951  0.00  0.00    +0.000 C 
ATOM     13  N   UNL     1       1.182   8.734  20.360  0.00  0.00    +0.000 NA
ATOM     14  C   UNL     1       1.952   7.645  20.060  0.00  0.00    +0.000 A 
ENDBRANCH   2   5
BRANCH   3  15
ATOM     15  C   UNL     1       5.474   5.470  17.326  0.00  0.00    +0.000 C 
ATOM     16  C   UNL     1       4.812   4.339  16.514  0.00  0.00    +0.000 C 
ATOM     17  C   UNL     1       5.918   3.723  15.667  0.00  0.00    +0.000 C 
ATOM     18  C   UNL     1       6.959   4.820  15.477  0.00  0.00    +0.000 C 
ATOM     19  C   UNL     1       6.479   6.022  16.289  0.00  0.00    +0.000 C 
BRANCH  15  20
ATOM     20  C   UNL     1       6.248   4.931  18.566  0.00  0.00    +0.000 C 
BRANCH  20  21
ATOM     21  C   UNL     1       7.448   5.752  19.036  0.00  0.00    +0.000 C 
BRANCH  21  22
ATOM     22  O   UNL     1       7.814   5.462  20.376  0.00  0.00    +0.000 OA
ATOM     23  H   UNL     1       8.608   4.897  20.334  0.00  0.00    +0.000 HD
ENDBRANCH  21  22
ENDBRANCH  20  21
ENDBRANCH  15  20
ENDBRANCH   3  15
TORSDOF 5
ENDMDL
MODEL 2
REMARK VINA RESULT:      -7.0      1.174      2.110
REMARK  Name = 
REMARK  5 active torsions:
REMARK  status: ('A' for Active; 'I' for Inactive)
REMARK    1  A    between atoms: C_2  and  C_12
REMARK    2  A    between atoms: N_3  and  C_4
REMARK    3  A    between atoms: C_4  and  C_5
REMARK    4  A    between atoms: C_5  and  C_6
REMARK    5  A    between atoms: C_6  and  O_7
REMARK                            x       y       z     vdW  Elec       q    Type
REMARK                         _______ _______ _______ _____ _____    ______ ____
ROOT
ATOM      1  O   UNL     1       3.674   5.581  19.766  0.00  0.00    +0.000 OA
ATOM      2  C   UNL     1       3.376   6.259  18.790  0.00  0.00    +0.000 C 
ATOM      3  N   UNL     1       3.850   6.022  17.520  0.00  0.00    +0.000 N 
ATOM      4  H   UNL     1       3.629   6.682  16.790  0.00  0.00    +0.000 HD
ENDROOT
BRANCH   2   5
ATOM      5  C   UNL     1       2.477   7.423  18.976  0.00  0.00    +0.000 A 
ATOM      6  C   UNL     1       2.267   8.281  17.901  0.00  0.00    +0.000 A 
ATOM      7  C   UNL     1       1.463   9.406  18.060  0.00  0.00    +0.000 A 
ATOM      8  C   UNL     1       0.893   9.689  19.304  0.00  0.00    +0.000 A 
ATOM      9  N   UNL     1       0.110  10.856  19.447  0.00  0.00    +0.000 N 
ATOM     10  C   UNL     1       0.255  12.085  18.730  0.00  0.00    +0.000 C 
ATOM     11  C   UNL     1       0.065  12.834  20.045  0.00  0.00    +0.000 C 
ATOM     12  C   UNL     1      -0.268  11.483  20.677  0.00  0.00    +0.000 C 
ATOM     13  N   UNL     1       1.079   8.856  20.355  0.00  0.00    +0.000 NA
ATOM     14  C   UNL     1       1.869   7.755  20.177  0.00  0.00    +0.000 A 
ENDBRANCH   2   5
BRANCH   3  15
ATOM     15  C   UNL     1       4.821   4.959  17.187  0.00  0.00    +0.000 C 
ATOM     16  C   UNL     1       5.294   5.135  15.730  0.00  0.00    +0.000 C 
ATOM     17  C   UNL     1       6.679   4.506  15.657  0.00  0.00    +0.000 C 
ATOM     18  C   UNL     1       7.247   4.580  17.070  0.00  0.00    +0.000 C 
ATOM     19  C   UNL     1       6.148   5.170  17.951  0.00  0.00    +0.000 C 
BRANCH  15  20
ATOM     20  C   UNL     1       4.282   3.524  17.463  0.00  0.00    +0.000 C 
BRANCH  20  21
ATOM     21  C   UNL     1       2.819   3.259  17.106  0.00  0.00    +0.000 C 
BRANCH  21  22
ATOM     22  O   UNL     1       1.945   3.466  18.205  0.00  0.00    +0.000 OA
ATOM     23  H   UNL     1       1.615   4.380  18.132  0.00  0.00    +0.000 HD
ENDBRANCH  21  22
ENDBRANCH  20  21
ENDBRANCH  15  20
ENDBRANCH   3  15
TORSDOF 5
ENDMDL
MODEL 3
REMARK VINA RESULT:      -6.9      0.825      1.368
REMARK  Name = 
REMARK  5 active torsions:
REMARK  status: ('A' for Active; 'I' for Inactive)
REMARK    1  A    between atoms: C_2  and  C_12
REMARK    2  A    between atoms: N_3  and  C_4
REMARK    3  A    between atoms: C_4  and  C_5
REMARK    4  A    between atoms: C_5  and  C_6
REMARK    5  A    between atoms: C_6  and  O_7
REMARK                            x       y       z     vdW  Elec       q    Type
REMARK                         _______ _______ _______ _____ _____    ______ ____
ROOT
ATOM      1  O   UNL     1       3.037   5.268  18.640  0.00  0.00    +0.000 OA
ATOM      2  C   UNL     1       3.450   6.366  18.288  0.00  0.00    +0.000 C 
ATOM      3  N   UNL     1       4.635   6.559  17.613  0.00  0.00    +0.000 N 
ATOM      4  H   UNL     1       4.946   7.503  17.442  0.00  0.00    +0.000 HD
ENDROOT
BRANCH   2   5
ATOM      5  C   UNL     1       2.655   7.571  18.627  0.00  0.00    +0.000 A 
ATOM      6  C   UNL     1       2.047   7.638  19.876  0.00  0.00    +0.000 A 
ATOM      7  C   UNL     1       1.258   8.737  20.204  0.00  0.00    +0.000 A 
ATOM      8  C   UNL     1       1.055   9.756  19.270  0.00  0.00    +0.000 A 
ATOM      9  N   UNL     1       0.222  10.843  19.615  0.00  0.00    +0.000 N 
ATOM     10  C   UNL     1      -0.895  10.825  20.509  0.00  0.00    +0.000 C 
ATOM     11  C   UNL     1      -1.672  11.664  19.500  0.00  0.00    +0.000 C 
ATOM     12  C   UNL     1      -0.367  11.786  18.714  0.00  0.00    +0.000 C 
ATOM     13  N   UNL     1       1.652   9.710  18.055  0.00  0.00    +0.000 NA
ATOM     14  C   UNL     1       2.424   8.623  17.755  0.00  0.00    +0.000 A 
ENDBRANCH   2   5
BRANCH   3  15
ATOM     15  C   UNL     1       5.580   5.473  17.281  0.00  0.00    +0.000 C 
ATOM     16  C   UNL     1       4.839   4.372  16.495  0.00  0.00    +0.000 C 
ATOM     17  C   UNL     1       5.896   3.675  15.649  0.00  0.00    +0.000 C 
ATOM     18  C   UNL     1       7.002   4.701  15.429  0.00  0.00    +0.000 C 
ATOM     19  C   UNL     1       6.606   5.944  16.225  0.00  0.00    +0.000 C 
BRANCH  15  20
ATOM     20  C   UNL     1       6.331   4.907  18.523  0.00  0.00    +0.000 C 
BRANCH  20  21
ATOM     21  C   UNL     1       7.638   5.601  18.908  0.00  0.00    +0.000 C 
BRANCH  21  22
ATOM     22  O   UNL     1       7.920   5.497  20.296  0.00  0.00    +0.000 OA
ATOM     23  H   UNL     1       8.218   6.378  20.587  0.00  0.00    +0.000 HD
ENDBRANCH  21  22
ENDBRANCH  20  21
ENDBRANCH  15  20
ENDBRANCH   3  15
TORSDOF 5
ENDMDL
MODEL 4
REMARK VINA RESULT:      -6.9      1.267      1.604
REMARK  Name = 
REMARK  5 active torsions:
REMARK  status: ('A' for Active; 'I' for Inactive)
REMARK    1  A    between atoms: C_2  and  C_12
REMARK    2  A    between atoms: N_3  and  C_4
REMARK    3  A    between atoms: C_4  and  C_5
REMARK    4  A    between atoms: C_5  and  C_6
REMARK    5  A    between atoms: C_6  and  O_7
REMARK                            x       y       z     vdW  Elec       q    Type
REMARK                         _______ _______ _______ _____ _____    ______ ____
ROOT
ATOM      1  O   UNL     1       2.259   5.344  17.755  0.00  0.00    +0.000 OA
ATOM      2  C   UNL     1       2.938   6.306  18.094  0.00  0.00    +0.000 C 
ATOM      3  N   UNL     1       4.314   6.320  18.066  0.00  0.00    +0.000 N 
ATOM      4  H   UNL     1       4.797   7.118  18.449  0.00  0.00    +0.000 HD
ENDROOT
BRANCH   2   5
ATOM      5  C   UNL     1       2.254   7.522  18.596  0.00  0.00    +0.000 A 
ATOM      6  C   UNL     1       2.073   8.592  17.726  0.00  0.00    +0.000 A 
ATOM      7  C   UNL     1       1.474   9.763  18.182  0.00  0.00    +0.000 A 
ATOM      8  C   UNL     1       1.082   9.873  19.518  0.00  0.00    +0.000 A 
ATOM      9  N   UNL     1       0.508  11.084  19.964  0.00  0.00    +0.000 N 
ATOM     10  C   UNL     1       0.770  12.398  19.463  0.00  0.00    +0.000 C 
ATOM     11  C   UNL     1       0.831  12.897  20.903  0.00  0.00    +0.000 C 
ATOM     12  C   UNL     1       0.356  11.506  21.323  0.00  0.00    +0.000 C 
ATOM     13  N   UNL     1       1.239   8.835  20.373  0.00  0.00    +0.000 NA
ATOM     14  C   UNL     1       1.826   7.693  19.904  0.00  0.00    +0.000 A 
ENDBRANCH   2   5
BRANCH   3  15
ATOM     15  C   UNL     1       5.143   5.161  17.677  0.00  0.00    +0.000 C 
ATOM     16  C   UNL     1       5.476   5.250  16.175  0.00  0.00    +0.000 C 
ATOM     17  C   UNL     1       6.782   4.490  15.986  0.00  0.00    +0.000 C 
ATOM     18  C   UNL     1       7.499   4.549  17.331  0.00  0.00    +0.000 C 
ATOM     19  C   UNL     1       6.556   5.265  18.295  0.00  0.00    +0.000 C 
BRANCH  15  20
ATOM     20  C   UNL     1       4.506   3.792  18.060  0.00  0.00    +0.000 C 
BRANCH  20  21
ATOM     21  C   UNL     1       4.593   3.381  19.530  0.00  0.00    +0.000 C 
BRANCH  21  22
ATOM     22  O   UNL     1       5.178   2.099  19.703  0.00  0.00    +0.000 OA
ATOM     23  H   UNL     1       4.443   1.470  19.821  0.00  0.00    +0.000 HD
ENDBRANCH  21  22
ENDBRANCH  20  21
ENDBRANCH  15  20
ENDBRANCH   3  15
TORSDOF 5
ENDMDL
MODEL 5
REMARK VINA RESULT:      -6.8      1.410      2.047
REMARK  Name = 
REMARK  5 active torsions:
REMARK  status: ('A' for Active; 'I' for Inactive)
REMARK    1  A    between atoms: C_2  and  C_12
REMARK    2  A    between atoms: N_3  and  C_4
REMARK    3  A    between atoms: C_4  and  C_5
REMARK    4  A    between atoms: C_5  and  C_6
REMARK    5  A    between atoms: C_6  and  O_7
REMARK                            x       y       z     vdW  Elec       q    Type
REMARK                         _______ _______ _______ _____ _____    ______ ____
ROOT
ATOM      1  O   UNL     1       2.165   5.457  17.822  0.00  0.00    +0.000 OA
ATOM      2  C   UNL     1       2.885   6.390  18.156  0.00  0.00    +0.000 C 
ATOM      3  N   UNL     1       4.260   6.360  18.086  0.00  0.00    +0.000 N 
ATOM      4  H   UNL     1       4.781   7.134  18.467  0.00  0.00    +0.000 HD
ENDROOT
BRANCH   2   5
ATOM      5  C   UNL     1       2.257   7.619  18.699  0.00  0.00    +0.000 A 
ATOM      6  C   UNL     1       1.893   7.644  20.041  0.00  0.00    +0.000 A 
ATOM      7  C   UNL     1       1.262   8.768  20.566  0.00  0.00    +0.000 A 
ATOM      8  C   UNL     1       0.969   9.856  19.740  0.00  0.00    +0.000 A 
ATOM      9  N   UNL     1       0.296  10.970  20.290  0.00  0.00    +0.000 N 
ATOM     10  C   UNL     1      -0.637  10.965  21.374  0.00  0.00    +0.000 C 
ATOM     11  C   UNL     1      -1.520  11.915  20.572  0.00  0.00    +0.000 C 
ATOM     12  C   UNL     1      -0.374  12.004  19.563  0.00  0.00    +0.000 C 
ATOM     13  N   UNL     1       1.329   9.850  18.435  0.00  0.00    +0.000 NA
ATOM     14  C   UNL     1       1.951   8.738  17.940  0.00  0.00    +0.000 A 
ENDBRANCH   2   5
BRANCH   3  15
ATOM     15  C   UNL     1       5.037   5.180  17.653  0.00  0.00    +0.000 C 
ATOM     16  C   UNL     1       5.305   5.272  16.137  0.00  0.00    +0.000 C 
ATOM     17  C   UNL     1       6.579   4.477  15.885  0.00  0.00    +0.000 C 
ATOM     18  C   UNL     1       7.357   4.506  17.196  0.00  0.00    +0.000 C 
ATOM     19  C   UNL     1       6.479   5.241  18.207  0.00  0.00    +0.000 C 
BRANCH  15  20
ATOM     20  C   UNL     1       4.380   3.827  18.055  0.00  0.00    +0.000 C 
BRANCH  20  21
ATOM     21  C   UNL     1       4.503   3.414  19.522  0.00  0.00    +0.000 C 
BRANCH  21  22
ATOM     22  O   UNL     1       5.189   2.181  19.684  0.00  0.00    +0.000 OA
ATOM     23  H   UNL     1       4.830   1.765  20.490  0.00  0.00    +0.000 HD
ENDBRANCH  21  22
ENDBRANCH  20  21
ENDBRANCH  15  20
ENDBRANCH   3  15
TORSDOF 5
ENDMDL
MODEL 6
REMARK VINA RESULT:      -6.8      2.116      3.115
REMARK  Name = 
REMARK  5 active torsions:
REMARK  status: ('A' for Active; 'I' for Inactive)
REMARK    1  A    between atoms: C_2  and  C_12
REMARK    2  A    between atoms: N_3  and  C_4
REMARK    3  A    between atoms: C_4  and  C_5
REMARK    4  A    between atoms: C_5  and  C_6
REMARK    5  A    between atoms: C_6  and  O_7
REMARK                            x       y       z     vdW  Elec       q    Type
REMARK                         _______ _______ _______ _____ _____    ______ ____
ROOT
ATOM      1  O   UNL     1       2.665   7.347  17.673  0.00  0.00    +0.000 OA
ATOM      2  C   UNL     1       2.385   7.114  18.843  0.00  0.00    +0.000 C 
ATOM      3  N   UNL     1       2.588   5.896  19.451  0.00  0.00    +0.000 N 
ATOM      4  H   UNL     1       2.245   5.760  20.390  0.00  0.00    +0.000 HD
ENDROOT
BRANCH   2   5
ATOM      5  C   UNL     1       1.764   8.187  19.657  0.00  0.00    +0.000 A 
ATOM      6  C   UNL     1       1.464   7.923  20.989  0.00  0.00    +0.000 A 
ATOM      7  C   UNL     1       0.840   8.896  21.764  0.00  0.00    +0.000 A 
ATOM      8  C   UNL     1       0.491  10.124  21.197  0.00  0.00    +0.000 A 
ATOM      9  N   UNL     1      -0.173  11.082  21.996  0.00  0.00    +0.000 N 
ATOM     10  C   UNL     1      -1.054  10.828  23.094  0.00  0.00    +0.000 C 
ATOM     11  C   UNL     1      -1.989  11.901  22.547  0.00  0.00    +0.000 C 
ATOM     12  C   UNL     1      -0.893  12.227  21.532  0.00  0.00    +0.000 C 
ATOM     13  N   UNL     1       0.789  10.400  19.906  0.00  0.00    +0.000 NA
ATOM     14  C   UNL     1       1.405   9.431  19.163  0.00  0.00    +0.000 A 
ENDBRANCH   2   5
BRANCH   3  15
ATOM     15  C   UNL     1       3.114   4.704  18.753  0.00  0.00    +0.000 C 
ATOM     16  C   UNL     1       3.268   3.547  19.761  0.00  0.00    +0.000 C 
ATOM     17  C   UNL     1       3.155   2.263  18.950  0.00  0.00    +0.000 C 
ATOM     18  C   UNL     1       2.328   2.616  17.719  0.00  0.00    +0.000 C 
ATOM     19  C   UNL     1       2.051   4.116  17.797  0.00  0.00    +0.000 C 
BRANCH  15  20
ATOM     20  C   UNL     1       4.429   4.980  17.966  0.00  0.00    +0.000 C 
BRANCH  20  21
ATOM     21  C   UNL     1       5.702   5.150  18.795  0.00  0.00    +0.000 C 
BRANCH  21  22
ATOM     22  O   UNL     1       6.602   4.064  18.639  0.00  0.00    +0.000 OA
ATOM     23  H   UNL     1       7.285   4.165  19.327  0.00  0.00    +0.000 HD
ENDBRANCH  21  22
ENDBRANCH  20  21
ENDBRANCH  15  20
ENDBRANCH   3  15
TORSDOF 5
ENDMDL
MODEL 7
REMARK VINA RESULT:      -6.7      1.487      2.553
REMARK  Name = 
REMARK  5 active torsions:
REMARK  status: ('A' for Active; 'I' for Inactive)
REMARK    1  A    between atoms: C_2  and  C_12
REMARK    2  A    between atoms: N_3  and  C_4
REMARK    3  A    between atoms: C_4  and  C_5
REMARK    4  A    between atoms: C_5  and  C_6
REMARK    5  A    between atoms: C_6  and  O_7
REMARK                            x       y       z     vdW  Elec       q    Type
REMARK                         _______ _______ _______ _____ _____    ______ ____
ROOT
ATOM      1  O   UNL     1       3.398   5.635  19.712  0.00  0.00    +0.000 OA
ATOM      2  C   UNL     1       3.270   6.383  18.751  0.00  0.00    +0.000 C 
ATOM      3  N   UNL     1       3.869   6.171  17.530  0.00  0.00    +0.000 N 
ATOM      4  H   UNL     1       3.786   6.883  16.820  0.00  0.00    +0.000 HD
ENDROOT
BRANCH   2   5
ATOM      5  C   UNL     1       2.448   7.608  18.903  0.00  0.00    +0.000 A 
ATOM      6  C   UNL     1       1.881   7.880  20.144  0.00  0.00    +0.000 A 
ATOM      7  C   UNL     1       1.069   8.999  20.304  0.00  0.00    +0.000 A 
ATOM      8  C   UNL     1       0.801   9.830  19.214  0.00  0.00    +0.000 A 
ATOM      9  N   UNL     1      -0.055  10.940  19.395  0.00  0.00    +0.000 N 
ATOM     10  C   UNL     1      -1.139  11.051  20.321  0.00  0.00    +0.000 C 
ATOM     11  C   UNL     1      -1.977  11.677  19.212  0.00  0.00    +0.000 C 
ATOM     12  C   UNL     1      -0.705  11.692  18.366  0.00  0.00    +0.000 C 
ATOM     13  N   UNL     1       1.356   9.585  18.004  0.00  0.00    +0.000 NA
ATOM     14  C   UNL     1       2.153   8.483  17.869  0.00  0.00    +0.000 A 
ENDBRANCH   2   5
BRANCH   3  15
ATOM     15  C   UNL     1       4.786   5.049  17.246  0.00  0.00    +0.000 C 
ATOM     16  C   UNL     1       5.254   5.128  15.778  0.00  0.00    +0.000 C 
ATOM     17  C   UNL     1       6.608   4.433  15.729  0.00  0.00    +0.000 C 
ATOM     18  C   UNL     1       7.192   4.552  17.132  0.00  0.00    +0.000 C 
ATOM     19  C   UNL     1       6.129   5.236  17.989  0.00  0.00    +0.000 C 
BRANCH  15  20
ATOM     20  C   UNL     1       4.185   3.656  17.599  0.00  0.00    +0.000 C 
BRANCH  20  21
ATOM     21  C   UNL     1       2.765   3.377  17.107  0.00  0.00    +0.000 C 
BRANCH  21  22
ATOM     22  O   UNL     1       1.824   3.317  18.168  0.00  0.00    +0.000 OA
ATOM     23  H   UNL     1       2.019   4.068  18.758  0.00  0.00    +0.000 HD
ENDBRANCH  21  22
ENDBRANCH  20  21
ENDBRANCH  15  20
ENDBRANCH   3  15
TORSDOF 5
ENDMDL
MODEL 8
REMARK VINA RESULT:      -6.7      2.512      3.814
REMARK  Name = 
REMARK  5 active torsions:
REMARK  status: ('A' for Active; 'I' for Inactive)
REMARK    1  A    between atoms: C_2  and  C_12
REMARK    2  A    between atoms: N_3  and  C_4
REMARK    3  A    between atoms: C_4  and  C_5
REMARK    4  A    between atoms: C_5  and  C_6
REMARK    5  A    between atoms: C_6  and  O_7
REMARK                            x       y       z     vdW  Elec       q    Type
REMARK                         _______ _______ _______ _____ _____    ______ ____
ROOT
ATOM      1  O   UNL     1       2.517   7.606  18.442  0.00  0.00    +0.000 OA
ATOM      2  C   UNL     1       2.099   7.454  19.583  0.00  0.00    +0.000 C 
ATOM      3  N   UNL     1       2.222   6.281  20.294  0.00  0.00    +0.000 N 
ATOM      4  H   UNL     1       1.769   6.211  21.192  0.00  0.00    +0.000 HD
ENDROOT
BRANCH   2   5
ATOM      5  C   UNL     1       1.391   8.578  20.240  0.00  0.00    +0.000 A 
ATOM      6  C   UNL     1       1.062   8.463  21.587  0.00  0.00    +0.000 A 
ATOM      7  C   UNL     1       0.358   9.484  22.218  0.00  0.00    +0.000 A 
ATOM      8  C   UNL     1      -0.043  10.608  21.494  0.00  0.00    +0.000 A 
ATOM      9  N   UNL     1      -0.787  11.615  22.149  0.00  0.00    +0.000 N 
ATOM     10  C   UNL     1      -1.688  11.444  23.248  0.00  0.00    +0.000 C 
ATOM     11  C   UNL     1      -2.665  12.382  22.547  0.00  0.00    +0.000 C 
ATOM     12  C   UNL     1      -1.558  12.647  21.527  0.00  0.00    +0.000 C 
ATOM     13  N   UNL     1       0.281  10.741  20.185  0.00  0.00    +0.000 NA
ATOM     14  C   UNL     1       0.975   9.728  19.586  0.00  0.00    +0.000 A 
ENDBRANCH   2   5
BRANCH   3  15
ATOM     15  C   UNL     1       2.822   5.046  19.749  0.00  0.00    +0.000 C 
ATOM     16  C   UNL     1       2.136   4.691  18.414  0.00  0.00    +0.000 C 
ATOM     17  C   UNL     1       3.156   3.889  17.617  0.00  0.00    +0.000 C 
ATOM     18  C   UNL     1       4.524   4.324  18.129  0.00  0.00    +0.000 C 
ATOM     19  C   UNL     1       4.269   5.304  19.272  0.00  0.00    +0.000 C 
BRANCH  15  20
ATOM     20  C   UNL     1       2.807   3.857  20.754  0.00  0.00    +0.000 C 
BRANCH  20  21
ATOM     21  C   UNL     1       1.462   3.166  20.980  0.00  0.00    +0.000 C 
BRANCH  21  22
ATOM     22  O   UNL     1       1.397   2.498  22.231  0.00  0.00    +0.000 OA
ATOM     23  H   UNL     1       1.453   3.187  22.919  0.00  0.00    +0.000 HD
ENDBRANCH  21  22
ENDBRANCH  20  21
ENDBRANCH  15  20
ENDBRANCH   3  15
TORSDOF 5
ENDMDL
MODEL 9
REMARK VINA RESULT:      -6.6      1.141      1.394
REMARK  Name = 
REMARK  5 active torsions:
REMARK  status: ('A' for Active; 'I' for Inactive)
REMARK    1  A    between atoms: C_2  and  C_12
REMARK    2  A    between atoms: N_3  and  C_4
REMARK    3  A    between atoms: C_4  and  C_5
REMARK    4  A    between atoms: C_5  and  C_6
REMARK    5  A    between atoms: C_6  and  O_7
REMARK                            x       y       z     vdW  Elec       q    Type
REMARK                         _______ _______ _______ _____ _____    ______ ____
ROOT
ATOM      1  O   UNL     1       3.954   4.332  19.129  0.00  0.00    +0.000 OA
ATOM      2  C   UNL     1       3.876   5.467  18.677  0.00  0.00    +0.000 C 
ATOM      3  N   UNL     1       4.687   5.950  17.674  0.00  0.00    +0.000 N 
ATOM      4  H   UNL     1       4.618   6.925  17.424  0.00  0.00    +0.000 HD
ENDROOT
BRANCH   2   5
ATOM      5  C   UNL     1       2.875   6.398  19.251  0.00  0.00    +0.000 A 
ATOM      6  C   UNL     1       2.647   7.611  18.609  0.00  0.00    +0.000 A 
ATOM      7  C   UNL     1       1.746   8.523  19.150  0.00  0.00    +0.000 A 
ATOM      8  C   UNL     1       1.094   8.233  20.351  0.00  0.00    +0.000 A 
ATOM      9  N   UNL     1       0.210   9.190  20.897  0.00  0.00    +0.000 N 
ATOM     10  C   UNL     1       0.287  10.612  20.760  0.00  0.00    +0.000 C 
ATOM     11  C   UNL     1      -0.029  10.737  22.247  0.00  0.00    +0.000 C 
ATOM     12  C   UNL     1      -0.279   9.229  22.242  0.00  0.00    +0.000 C 
ATOM     13  N   UNL     1       1.296   7.051  20.980  0.00  0.00    +0.000 NA
ATOM     14  C   UNL     1       2.183   6.168  20.430  0.00  0.00    +0.000 A 
ENDBRANCH   2   5
BRANCH   3  15
ATOM     15  C   UNL     1       5.788   5.179  17.061  0.00  0.00    +0.000 C 
ATOM     16  C   UNL     1       5.203   3.983  16.283  0.00  0.00    +0.000 C 
ATOM     17  C   UNL     1       6.216   3.652  15.195  0.00  0.00    +0.000 C 
ATOM     18  C   UNL     1       6.973   4.946  14.920  0.00  0.00    +0.000 C 
ATOM     19  C   UNL     1       6.445   5.979  15.914  0.00  0.00    +0.000 C 
BRANCH  15  20
ATOM     20  C   UNL     1       6.878   4.741  18.084  0.00  0.00    +0.000 C 
BRANCH  20  21
ATOM     21  C   UNL     1       7.530   5.850  18.909  0.00  0.00    +0.000 C 
BRANCH  21  22
ATOM     22  O   UNL     1       7.706   5.484  20.269  0.00  0.00    +0.000 OA
ATOM     23  H   UNL     1       8.651   5.274  20.383  0.00  0.00    +0.000 HD
ENDBRANCH  21  22
ENDBRANCH  20  21
ENDBRANCH  15  20
ENDBRANCH   3  15
TORSDOF 5
ENDMDL
