MODEL 1
REMARK VINA RESULT:      -6.6      0.000      0.000
REMARK  Name = 
REMARK  7 active torsions:
REMARK  status: ('A' for Active; 'I' for Inactive)
REMARK    1  A    between atoms: C_1  and  C_2
REMARK    2  A    between atoms: N_4  and  C_5
REMARK    3  A    between atoms: C_6  and  C_7
REMARK    4  A    between atoms: C_8  and  N_9
REMARK    5  A    between atoms: C_10  and  C_12
REMARK    6  A    between atoms: C_12  and  O_13
REMARK    7  A    between atoms: O_13  and  C_14
REMARK                            x       y       z     vdW  Elec       q    Type
REMARK                         _______ _______ _______ _____ _____    ______ ____
ROOT
ATOM      1  N   UNL     1       0.730   9.694  19.376  0.00  0.00    +0.000 N 
ATOM      2  C   UNL     1       1.650   9.057  18.557  0.00  0.00    +0.000 C 
ATOM      3  O   UNL     1       1.969   9.423  17.428  0.00  0.00    +0.000 OA
ATOM      4  H   UNL     1       0.255   9.133  20.070  0.00  0.00    +0.000 HD
ENDROOT
BRANCH   1  12
ATOM      5  C   UNL     1      -1.876  10.127  17.416  0.00  0.00    +0.000 C 
ATOM      6  C   UNL     1      -1.055  11.095  18.190  0.00  0.00    +0.000 A 
ATOM      7  N   UNL     1      -1.304  12.404  18.066  0.00  0.00    +0.000 NA
ATOM      8  N   UNL     1      -0.356  12.998  18.809  0.00  0.00    +0.000 N 
ATOM      9  C   UNL     1      -0.365  14.438  18.923  0.00  0.00    +0.000 C 
ATOM     10  C   UNL     1       0.516  12.117  19.396  0.00  0.00    +0.000 A 
ATOM     11  C   UNL     1       1.586  12.519  20.343  0.00  0.00    +0.000 C 
ATOM     12  C   UNL     1       0.089  10.864  19.003  0.00  0.00    +0.000 A 
ENDBRANCH   1  12
BRANCH   2  13
ATOM     13  C   UNL     1       2.224   7.780  19.165  0.00  0.00    +0.000 C 
BRANCH  13  14
ATOM     14  O   UNL     1       2.792   7.055  18.085  0.00  0.00    +0.000 OA
BRANCH  14  15
ATOM     15  C   UNL     1       2.898   5.696  18.177  0.00  0.00    +0.000 A 
ATOM     16  C   UNL     1       2.064   4.879  18.944  0.00  0.00    +0.000 A 
ATOM     17  C   UNL     1       2.289   3.498  18.999  0.00  0.00    +0.000 A 
ATOM     18  C   UNL     1       3.349   2.931  18.288  0.00  0.00    +0.000 A 
ATOM     19 CL   UNL     1       3.630   1.238  18.378  0.00  0.00    +0.000 Cl
ATOM     20  C   UNL     1       4.176   3.729  17.508  0.00  0.00    +0.000 A 
ATOM     21  C   UNL     1       3.947   5.106  17.453  0.00  0.00    +0.000 A 
ATOM     22 BR   UNL     1       5.107   6.150  16.366  0.00  0.00    +0.000 Br
ENDBRANCH  14  15
ENDBRANCH  13  14
ENDBRANCH   2  13
TORSDOF 4
ENDMDL
MODEL 2
REMARK VINA RESULT:      -6.5      4.050      5.920
REMARK  Name = 
REMARK  7 active torsions:
REMARK  status: ('A' for Active; 'I' for Inactive)
REMARK    1  A    between atoms: C_1  and  C_2
REMARK    2  A    between atoms: N_4  and  C_5
REMARK    3  A    between atoms: C_6  and  C_7
REMARK    4  A    between atoms: C_8  and  N_9
REMARK    5  A    between atoms: C_10  and  C_12
REMARK    6  A    between atoms: C_12  and  O_13
REMARK    7  A    between atoms: O_13  and  C_14
REMARK                            x       y       z     vdW  Elec       q    Type
REMARK                         _______ _______ _______ _____ _____    ______ ____
ROOT
ATOM      1  N   UNL     1       3.367   4.570  18.571  0.00  0.00    +0.000 N 
ATOM      2  C   UNL     1       2.715   3.735  17.677  0.00  0.00    +0.000 C 
ATOM      3  O   UNL     1       1.495   3.644  17.550  0.00  0.00    +0.000 OA
ATOM      4  H   UNL     1       4.292   4.297  18.876  0.00  0.00    +0.000 HD
ENDROOT
BRANCH   1  12
ATOM      5  C   UNL     1       1.835   3.968  21.419  0.00  0.00    +0.000 C 
ATOM      6  C   UNL     1       2.041   5.230  20.660  0.00  0.00    +0.000 A 
ATOM      7  N   UNL     1       1.471   6.357  21.103  0.00  0.00    +0.000 NA
ATOM      8  N   UNL     1       1.772   7.274  20.170  0.00  0.00    +0.000 N 
ATOM      9  C   UNL     1       1.331   8.635  20.369  0.00  0.00    +0.000 C 
ATOM     10  C   UNL     1       2.500   6.775  19.121  0.00  0.00    +0.000 A 
ATOM     11  C   UNL     1       3.040   7.608  18.018  0.00  0.00    +0.000 C 
ATOM     12  C   UNL     1       2.686   5.437  19.409  0.00  0.00    +0.000 A 
ENDBRANCH   1  12
BRANCH   2  13
ATOM     13  C   UNL     1       3.661   2.858  16.862  0.00  0.00    +0.000 C 
BRANCH  13  14
ATOM     14  O   UNL     1       4.957   3.403  17.049  0.00  0.00    +0.000 OA
BRANCH  14  15
ATOM     15  C   UNL     1       5.637   3.894  15.970  0.00  0.00    +0.000 A 
ATOM     16  C   UNL     1       5.298   3.655  14.636  0.00  0.00    +0.000 A 
ATOM     17  C   UNL     1       6.090   4.174  13.605  0.00  0.00    +0.000 A 
ATOM     18  C   UNL     1       7.225   4.933  13.905  0.00  0.00    +0.000 A 
ATOM     19 CL   UNL     1       8.203   5.548  12.633  0.00  0.00    +0.000 Cl
ATOM     20  C   UNL     1       7.564   5.192  15.227  0.00  0.00    +0.000 A 
ATOM     21  C   UNL     1       6.770   4.675  16.253  0.00  0.00    +0.000 A 
ATOM     22 BR   UNL     1       7.278   5.065  18.043  0.00  0.00    +0.000 Br
ENDBRANCH  14  15
ENDBRANCH  13  14
ENDBRANCH   2  13
TORSDOF 4
ENDMDL
MODEL 3
REMARK VINA RESULT:      -6.5      4.419      7.791
REMARK  Name = 
REMARK  7 active torsions:
REMARK  status: ('A' for Active; 'I' for Inactive)
REMARK    1  A    between atoms: C_1  and  C_2
REMARK    2  A    between atoms: N_4  and  C_5
REMARK    3  A    between atoms: C_6  and  C_7
REMARK    4  A    between atoms: C_8  and  N_9
REMARK    5  A    between atoms: C_10  and  C_12
REMARK    6  A    between atoms: C_12  and  O_13
REMARK    7  A    between atoms: O_13  and  C_14
REMARK                            x       y       z     vdW  Elec       q    Type
REMARK                         _______ _______ _______ _____ _____    ______ ____
ROOT
ATOM      1  N   UNL     1       2.762   5.700  18.570  0.00  0.00    +0.000 N 
ATOM      2  C   UNL     1       2.617   5.378  19.911  0.00  0.00    +0.000 C 
ATOM      3  O   UNL     1       3.177   4.444  20.481  0.00  0.00    +0.000 OA
ATOM      4  H   UNL     1       2.000   6.192  18.123  0.00  0.00    +0.000 HD
ENDROOT
BRANCH   1  12
ATOM      5  C   UNL     1       2.572   2.594  17.505  0.00  0.00    +0.000 C 
ATOM      6  C   UNL     1       3.548   3.677  17.213  0.00  0.00    +0.000 A 
ATOM      7  N   UNL     1       4.614   3.404  16.451  0.00  0.00    +0.000 NA
ATOM      8  N   UNL     1       5.326   4.541  16.450  0.00  0.00    +0.000 N 
ATOM      9  C   UNL     1       6.542   4.597  15.671  0.00  0.00    +0.000 C 
ATOM     10  C   UNL     1       4.770   5.540  17.207  0.00  0.00    +0.000 A 
ATOM     11  C   UNL     1       5.313   6.919  17.284  0.00  0.00    +0.000 C 
ATOM     12  C   UNL     1       3.609   5.002  17.726  0.00  0.00    +0.000 A 
ENDBRANCH   1  12
BRANCH   2  13
ATOM     13  C   UNL     1       1.625   6.272  20.648  0.00  0.00    +0.000 C 
BRANCH  13  14
ATOM     14  O   UNL     1       1.914   7.599  20.236  0.00  0.00    +0.000 OA
BRANCH  14  15
ATOM     15  C   UNL     1       1.198   8.634  20.767  0.00  0.00    +0.000 A 
ATOM     16  C   UNL     1       0.820   8.738  22.109  0.00  0.00    +0.000 A 
ATOM     17  C   UNL     1       0.049   9.824  22.540  0.00  0.00    +0.000 A 
ATOM     18  C   UNL     1      -0.349  10.808  21.630  0.00  0.00    +0.000 A 
ATOM     19 CL   UNL     1      -1.313  12.126  22.164  0.00  0.00    +0.000 Cl
ATOM     20  C   UNL     1       0.033  10.725  20.297  0.00  0.00    +0.000 A 
ATOM     21  C   UNL     1       0.805   9.641  19.871  0.00  0.00    +0.000 A 
ATOM     22 BR   UNL     1       1.303   9.581  18.037  0.00  0.00    +0.000 Br
ENDBRANCH  14  15
ENDBRANCH  13  14
ENDBRANCH   2  13
TORSDOF 4
ENDMDL
MODEL 4
REMARK VINA RESULT:      -6.5      4.323      8.098
REMARK  Name = 
REMARK  7 active torsions:
REMARK  status: ('A' for Active; 'I' for Inactive)
REMARK    1  A    between atoms: C_1  and  C_2
REMARK    2  A    between atoms: N_4  and  C_5
REMARK    3  A    between atoms: C_6  and  C_7
REMARK    4  A    between atoms: C_8  and  N_9
REMARK    5  A    between atoms: C_10  and  C_12
REMARK    6  A    between atoms: C_12  and  O_13
REMARK    7  A    between atoms: O_13  and  C_14
REMARK                            x       y       z     vdW  Elec       q    Type
REMARK                         _______ _______ _______ _____ _____    ______ ____
ROOT
ATOM      1  N   UNL     1       3.005   6.366  18.682  0.00  0.00    +0.000 N 
ATOM      2  C   UNL     1       3.389   7.278  17.712  0.00  0.00    +0.000 C 
ATOM      3  O   UNL     1       4.264   7.093  16.868  0.00  0.00    +0.000 OA
ATOM      4  H   UNL     1       2.598   6.731  19.532  0.00  0.00    +0.000 HD
ENDROOT
BRANCH   1  12
ATOM      5  C   UNL     1       6.095   5.477  19.374  0.00  0.00    +0.000 C 
ATOM      6  C   UNL     1       4.877   4.670  19.101  0.00  0.00    +0.000 A 
ATOM      7  N   UNL     1       4.982   3.338  19.031  0.00  0.00    +0.000 NA
ATOM      8  N   UNL     1       3.750   2.921  18.695  0.00  0.00    +0.000 N 
ATOM      9  C   UNL     1       3.507   1.503  18.574  0.00  0.00    +0.000 C 
ATOM     10  C   UNL     1       2.852   3.943  18.521  0.00  0.00    +0.000 A 
ATOM     11  C   UNL     1       1.408   3.737  18.247  0.00  0.00    +0.000 C 
ATOM     12  C   UNL     1       3.562   5.101  18.773  0.00  0.00    +0.000 A 
ENDBRANCH   1  12
BRANCH   2  13
ATOM     13  C   UNL     1       2.652   8.612  17.804  0.00  0.00    +0.000 C 
BRANCH  13  14
ATOM     14  O   UNL     1       1.851   8.534  18.973  0.00  0.00    +0.000 OA
BRANCH  14  15
ATOM     15  C   UNL     1       0.802   9.396  19.121  0.00  0.00    +0.000 A 
ATOM     16  C   UNL     1       0.098   9.987  18.068  0.00  0.00    +0.000 A 
ATOM     17  C   UNL     1      -0.937  10.891  18.333  0.00  0.00    +0.000 A 
ATOM     18  C   UNL     1      -1.271  11.209  19.653  0.00  0.00    +0.000 A 
ATOM     19 CL   UNL     1      -2.529  12.336  19.968  0.00  0.00    +0.000 Cl
ATOM     20  C   UNL     1      -0.590  10.617  20.709  0.00  0.00    +0.000 A 
ATOM     21  C   UNL     1       0.441   9.713  20.440  0.00  0.00    +0.000 A 
ATOM     22 BR   UNL     1       1.334   8.930  21.925  0.00  0.00    +0.000 Br
ENDBRANCH  14  15
ENDBRANCH  13  14
ENDBRANCH   2  13
TORSDOF 4
ENDMDL
MODEL 5
REMARK VINA RESULT:      -6.5      2.825      4.037
REMARK  Name = 
REMARK  7 active torsions:
REMARK  status: ('A' for Active; 'I' for Inactive)
REMARK    1  A    between atoms: C_1  and  C_2
REMARK    2  A    between atoms: N_4  and  C_5
REMARK    3  A    between atoms: C_6  and  C_7
REMARK    4  A    between atoms: C_8  and  N_9
REMARK    5  A    between atoms: C_10  and  C_12
REMARK    6  A    between atoms: C_12  and  O_13
REMARK    7  A    between atoms: O_13  and  C_14
REMARK                            x       y       z     vdW  Elec       q    Type
REMARK                         _______ _______ _______ _____ _____    ______ ____
ROOT
ATOM      1  N   UNL     1       2.542   6.597  20.446  0.00  0.00    +0.000 N 
ATOM      2  C   UNL     1       2.099   5.306  20.207  0.00  0.00    +0.000 C 
ATOM      3  O   UNL     1       1.226   4.993  19.399  0.00  0.00    +0.000 OA
ATOM      4  H   UNL     1       2.938   6.794  21.356  0.00  0.00    +0.000 HD
ENDROOT
BRANCH   1  12
ATOM      5  C   UNL     1       3.245   7.631  17.404  0.00  0.00    +0.000 C 
ATOM      6  C   UNL     1       2.303   8.155  18.428  0.00  0.00    +0.000 A 
ATOM      7  N   UNL     1       1.638   9.289  18.181  0.00  0.00    +0.000 NA
ATOM      8  N   UNL     1       0.953   9.530  19.310  0.00  0.00    +0.000 N 
ATOM      9  C   UNL     1       0.085  10.683  19.362  0.00  0.00    +0.000 C 
ATOM     10  C   UNL     1       1.170   8.600  20.295  0.00  0.00    +0.000 A 
ATOM     11  C   UNL     1       0.455   8.590  21.595  0.00  0.00    +0.000 C 
ATOM     12  C   UNL     1       2.055   7.691  19.750  0.00  0.00    +0.000 A 
ENDBRANCH   1  12
BRANCH   2  13
ATOM     13  C   UNL     1       2.764   4.259  21.096  0.00  0.00    +0.000 C 
BRANCH  13  14
ATOM     14  O   UNL     1       3.392   3.341  20.215  0.00  0.00    +0.000 OA
BRANCH  14  15
ATOM     15  C   UNL     1       4.260   3.810  19.270  0.00  0.00    +0.000 A 
ATOM     16  C   UNL     1       5.340   4.659  19.528  0.00  0.00    +0.000 A 
ATOM     17  C   UNL     1       6.144   5.114  18.476  0.00  0.00    +0.000 A 
ATOM     18  C   UNL     1       5.869   4.724  17.163  0.00  0.00    +0.000 A 
ATOM     19 CL   UNL     1       6.848   5.305  15.876  0.00  0.00    +0.000 Cl
ATOM     20  C   UNL     1       4.808   3.868  16.894  0.00  0.00    +0.000 A 
ATOM     21  C   UNL     1       4.010   3.414  17.946  0.00  0.00    +0.000 A 
ATOM     22 BR   UNL     1       2.575   2.240  17.521  0.00  0.00    +0.000 Br
ENDBRANCH  14  15
ENDBRANCH  13  14
ENDBRANCH   2  13
TORSDOF 4
ENDMDL
MODEL 6
REMARK VINA RESULT:      -6.5      4.529      8.401
REMARK  Name = 
REMARK  7 active torsions:
REMARK  status: ('A' for Active; 'I' for Inactive)
REMARK    1  A    between atoms: C_1  and  C_2
REMARK    2  A    between atoms: N_4  and  C_5
REMARK    3  A    between atoms: C_6  and  C_7
REMARK    4  A    between atoms: C_8  and  N_9
REMARK    5  A    between atoms: C_10  and  C_12
REMARK    6  A    between atoms: C_12  and  O_13
REMARK    7  A    between atoms: O_13  and  C_14
REMARK                            x       y       z     vdW  Elec       q    Type
REMARK                         _______ _______ _______ _____ _____    ______ ____
ROOT
ATOM      1  N   UNL     1       3.479   6.436  17.799  0.00  0.00    +0.000 N 
ATOM      2  C   UNL     1       2.732   7.296  18.589  0.00  0.00    +0.000 C 
ATOM      3  O   UNL     1       2.333   7.051  19.726  0.00  0.00    +0.000 OA
ATOM      4  H   UNL     1       3.414   6.547  16.797  0.00  0.00    +0.000 HD
ENDROOT
BRANCH   1  12
ATOM      5  C   UNL     1       6.325   5.544  19.188  0.00  0.00    +0.000 C 
ATOM      6  C   UNL     1       5.095   4.768  18.878  0.00  0.00    +0.000 A 
ATOM      7  N   UNL     1       5.084   3.448  19.102  0.00  0.00    +0.000 NA
ATOM      8  N   UNL     1       3.888   3.040  18.648  0.00  0.00    +0.000 N 
ATOM      9  C   UNL     1       3.535   1.646  18.780  0.00  0.00    +0.000 C 
ATOM     10  C   UNL     1       3.128   4.050  18.115  0.00  0.00    +0.000 A 
ATOM     11  C   UNL     1       1.733   3.873  17.641  0.00  0.00    +0.000 C 
ATOM     12  C   UNL     1       3.894   5.191  18.244  0.00  0.00    +0.000 A 
ENDBRANCH   1  12
BRANCH   2  13
ATOM     13  C   UNL     1       2.378   8.608  17.894  0.00  0.00    +0.000 C 
BRANCH  13  14
ATOM     14  O   UNL     1       1.239   9.113  18.571  0.00  0.00    +0.000 OA
BRANCH  14  15
ATOM     15  C   UNL     1       1.272  10.381  19.078  0.00  0.00    +0.000 A 
ATOM     16  C   UNL     1       1.823  11.488  18.427  0.00  0.00    +0.000 A 
ATOM     17  C   UNL     1       1.841  12.738  19.058  0.00  0.00    +0.000 A 
ATOM     18  C   UNL     1       1.310  12.885  20.342  0.00  0.00    +0.000 A 
ATOM     19 CL   UNL     1       1.356  14.418  21.117  0.00  0.00    +0.000 Cl
ATOM     20  C   UNL     1       0.745  11.796  20.994  0.00  0.00    +0.000 A 
ATOM     21  C   UNL     1       0.726  10.551  20.361  0.00  0.00    +0.000 A 
ATOM     22 BR   UNL     1      -0.065   9.098  21.298  0.00  0.00    +0.000 Br
ENDBRANCH  14  15
ENDBRANCH  13  14
ENDBRANCH   2  13
TORSDOF 4
ENDMDL
MODEL 7
REMARK VINA RESULT:      -6.4      1.962      3.013
REMARK  Name = 
REMARK  7 active torsions:
REMARK  status: ('A' for Active; 'I' for Inactive)
REMARK    1  A    between atoms: C_1  and  C_2
REMARK    2  A    between atoms: N_4  and  C_5
REMARK    3  A    between atoms: C_6  and  C_7
REMARK    4  A    between atoms: C_8  and  N_9
REMARK    5  A    between atoms: C_10  and  C_12
REMARK    6  A    between atoms: C_12  and  O_13
REMARK    7  A    between atoms: O_13  and  C_14
REMARK                            x       y       z     vdW  Elec       q    Type
REMARK                         _______ _______ _______ _____ _____    ______ ____
ROOT
ATOM      1  N   UNL     1       0.738  10.364  18.098  0.00  0.00    +0.000 N 
ATOM      2  C   UNL     1       1.393   9.265  18.633  0.00  0.00    +0.000 C 
ATOM      3  O   UNL     1       1.326   8.900  19.805  0.00  0.00    +0.000 OA
ATOM      4  H   UNL     1       1.149  10.801  17.284  0.00  0.00    +0.000 HD
ENDROOT
BRANCH   1  12
ATOM      5  C   UNL     1       1.442  12.563  20.441  0.00  0.00    +0.000 C 
ATOM      6  C   UNL     1       0.148  12.143  19.841  0.00  0.00    +0.000 A 
ATOM      7  N   UNL     1      -0.991  12.644  20.336  0.00  0.00    +0.000 NA
ATOM      8  N   UNL     1      -1.959  12.016  19.650  0.00  0.00    +0.000 N 
ATOM      9  C   UNL     1      -3.335  12.363  19.919  0.00  0.00    +0.000 C 
ATOM     10  C   UNL     1      -1.488  11.104  18.740  0.00  0.00    +0.000 A 
ATOM     11  C   UNL     1      -2.353  10.357  17.794  0.00  0.00    +0.000 C 
ATOM     12  C   UNL     1      -0.112  11.159  18.847  0.00  0.00    +0.000 A 
ENDBRANCH   1  12
BRANCH   2  13
ATOM     13  C   UNL     1       2.287   8.541  17.630  0.00  0.00    +0.000 C 
BRANCH  13  14
ATOM     14  O   UNL     1       2.807   7.413  18.315  0.00  0.00    +0.000 OA
BRANCH  14  15
ATOM     15  C   UNL     1       3.651   6.563  17.658  0.00  0.00    +0.000 A 
ATOM     16  C   UNL     1       4.768   6.961  16.919  0.00  0.00    +0.000 A 
ATOM     17  C   UNL     1       5.544   6.008  16.248  0.00  0.00    +0.000 A 
ATOM     18  C   UNL     1       5.203   4.654  16.312  0.00  0.00    +0.000 A 
ATOM     19 CL   UNL     1       6.148   3.493  15.468  0.00  0.00    +0.000 Cl
ATOM     20  C   UNL     1       4.104   4.243  17.056  0.00  0.00    +0.000 A 
ATOM     21  C   UNL     1       3.334   5.197  17.727  0.00  0.00    +0.000 A 
ATOM     22 BR   UNL     1       1.845   4.577  18.734  0.00  0.00    +0.000 Br
ENDBRANCH  14  15
ENDBRANCH  13  14
ENDBRANCH   2  13
TORSDOF 4
ENDMDL
MODEL 8
REMARK VINA RESULT:      -6.4      1.130      2.155
REMARK  Name = 
REMARK  7 active torsions:
REMARK  status: ('A' for Active; 'I' for Inactive)
REMARK    1  A    between atoms: C_1  and  C_2
REMARK    2  A    between atoms: N_4  and  C_5
REMARK    3  A    between atoms: C_6  and  C_7
REMARK    4  A    between atoms: C_8  and  N_9
REMARK    5  A    between atoms: C_10  and  C_12
REMARK    6  A    between atoms: C_12  and  O_13
REMARK    7  A    between atoms: O_13  and  C_14
REMARK                            x       y       z     vdW  Elec       q    Type
REMARK                         _______ _______ _______ _____ _____    ______ ____
ROOT
ATOM      1  N   UNL     1       0.884  10.205  17.908  0.00  0.00    +0.000 N 
ATOM      2  C   UNL     1       1.522   9.129  18.503  0.00  0.00    +0.000 C 
ATOM      3  O   UNL     1       1.458   8.835  19.695  0.00  0.00    +0.000 OA
ATOM      4  H   UNL     1       1.296  10.587  17.067  0.00  0.00    +0.000 HD
ENDROOT
BRANCH   1  12
ATOM      5  C   UNL     1       1.652  12.666  19.952  0.00  0.00    +0.000 C 
ATOM      6  C   UNL     1       0.339  12.153  19.478  0.00  0.00    +0.000 A 
ATOM      7  N   UNL     1      -0.784  12.679  19.981  0.00  0.00    +0.000 NA
ATOM      8  N   UNL     1      -1.771  11.957  19.426  0.00  0.00    +0.000 N 
ATOM      9  C   UNL     1      -3.139  12.300  19.735  0.00  0.00    +0.000 C 
ATOM     10  C   UNL     1      -1.324  10.961  18.595  0.00  0.00    +0.000 A 
ATOM     11  C   UNL     1      -2.218  10.094  17.788  0.00  0.00    +0.000 C 
ATOM     12  C   UNL     1       0.053  11.059  18.615  0.00  0.00    +0.000 A 
ENDBRANCH   1  12
BRANCH   2  13
ATOM     13  C   UNL     1       2.395   8.330  17.539  0.00  0.00    +0.000 C 
BRANCH  13  14
ATOM     14  O   UNL     1       3.244   7.533  18.350  0.00  0.00    +0.000 OA
BRANCH  14  15
ATOM     15  C   UNL     1       3.173   6.172  18.255  0.00  0.00    +0.000 A 
ATOM     16  C   UNL     1       2.142   5.388  18.778  0.00  0.00    +0.000 A 
ATOM     17  C   UNL     1       2.189   3.993  18.660  0.00  0.00    +0.000 A 
ATOM     18  C   UNL     1       3.268   3.379  18.019  0.00  0.00    +0.000 A 
ATOM     19 CL   UNL     1       3.329   1.666  17.897  0.00  0.00    +0.000 Cl
ATOM     20  C   UNL     1       4.292   4.148  17.480  0.00  0.00    +0.000 A 
ATOM     21  C   UNL     1       4.240   5.539  17.598  0.00  0.00    +0.000 A 
ATOM     22 BR   UNL     1       5.666   6.542  16.837  0.00  0.00    +0.000 Br
ENDBRANCH  14  15
ENDBRANCH  13  14
ENDBRANCH   2  13
TORSDOF 4
ENDMDL
MODEL 9
REMARK VINA RESULT:      -6.4      4.731      8.428
REMARK  Name = 
REMARK  7 active torsions:
REMARK  status: ('A' for Active; 'I' for Inactive)
REMARK    1  A    between atoms: C_1  and  C_2
REMARK    2  A    between atoms: N_4  and  C_5
REMARK    3  A    between atoms: C_6  and  C_7
REMARK    4  A    between atoms: C_8  and  N_9
REMARK    5  A    between atoms: C_10  and  C_12
REMARK    6  A    between atoms: C_12  and  O_13
REMARK    7  A    between atoms: O_13  and  C_14
REMARK                            x       y       z     vdW  Elec       q    Type
REMARK                         _______ _______ _______ _____ _____    ______ ____
ROOT
ATOM      1  N   UNL     1       2.782   5.961  20.470  0.00  0.00    +0.000 N 
ATOM      2  C   UNL     1       2.233   7.127  19.961  0.00  0.00    +0.000 C 
ATOM      3  O   UNL     1       2.106   7.390  18.767  0.00  0.00    +0.000 OA
ATOM      4  H   UNL     1       3.198   6.003  21.391  0.00  0.00    +0.000 HD
ENDROOT
BRANCH   1  12
ATOM      5  C   UNL     1       5.721   5.496  19.069  0.00  0.00    +0.000 C 
ATOM      6  C   UNL     1       4.485   4.670  19.059  0.00  0.00    +0.000 A 
ATOM      7  N   UNL     1       4.448   3.562  18.310  0.00  0.00    +0.000 NA
ATOM      8  N   UNL     1       3.194   3.103  18.450  0.00  0.00    +0.000 N 
ATOM      9  C   UNL     1       2.828   1.873  17.788  0.00  0.00    +0.000 C 
ATOM     10  C   UNL     1       2.405   3.892  19.248  0.00  0.00    +0.000 A 
ATOM     11  C   UNL     1       1.016   3.546  19.637  0.00  0.00    +0.000 C 
ATOM     12  C   UNL     1       3.220   4.929  19.656  0.00  0.00    +0.000 A 
ENDBRANCH   1  12
BRANCH   2  13
ATOM     13  C   UNL     1       1.829   8.131  21.038  0.00  0.00    +0.000 C 
BRANCH  13  14
ATOM     14  O   UNL     1       0.857   8.974  20.440  0.00  0.00    +0.000 OA
BRANCH  14  15
ATOM     15  C   UNL     1       0.240   9.925  21.202  0.00  0.00    +0.000 A 
ATOM     16  C   UNL     1      -0.424   9.677  22.406  0.00  0.00    +0.000 A 
ATOM     17  C   UNL     1      -1.060  10.723  23.087  0.00  0.00    +0.000 A 
ATOM     18  C   UNL     1      -1.035  12.019  22.565  0.00  0.00    +0.000 A 
ATOM     19 CL   UNL     1      -1.836  13.292  23.397  0.00  0.00    +0.000 Cl
ATOM     20  C   UNL     1      -0.364  12.282  21.378  0.00  0.00    +0.000 A 
ATOM     21  C   UNL     1       0.271  11.237  20.702  0.00  0.00    +0.000 A 
ATOM     22 BR   UNL     1       1.178  11.656  19.084  0.00  0.00    +0.000 Br
ENDBRANCH  14  15
ENDBRANCH  13  14
ENDBRANCH   2  13
TORSDOF 4
ENDMDL
