MODEL 1
REMARK VINA RESULT:      -8.0      0.000      0.000
REMARK  Name = 
REMARK  7 active torsions:
REMARK  status: ('A' for Active; 'I' for Inactive)
REMARK    1  A    between atoms: C_1  and  C_2
REMARK    2  A    between atoms: C_8  and  C_10
REMARK    3  A    between atoms: C_15  and  N_16
REMARK    4  A    between atoms: C_17  and  C_19
REMARK    5  A    between atoms: C_21  and  C_22
REMARK    6  A    between atoms: C_27  and  N_28
REMARK    7  A    between atoms: N_28  and  C_29
REMARK                            x       y       z     vdW  Elec       q    Type
REMARK                         _______ _______ _______ _____ _____    ______ ____
ROOT
ATOM      1  N   UNL     1       4.322   6.387  16.944  0.00  0.00    +0.000 N 
ATOM      2  C   UNL     1       4.285   5.113  16.394  0.00  0.00    +0.000 C 
ATOM      3  O   UNL     1       3.423   4.253  16.588  0.00  0.00    +0.000 OA
ATOM      4  H   UNL     1       5.150   6.947  16.716  0.00  0.00    +0.000 HD
ENDROOT
BRANCH   1  10
ATOM      5  C   UNL     1       3.103   6.434  19.113  0.00  0.00    +0.000 A 
ATOM      6  N   UNL     1       2.206   6.989  19.982  0.00  0.00    +0.000 NA
ATOM      7  C   UNL     1       1.617   8.143  19.627  0.00  0.00    +0.000 A 
ATOM      8  C   UNL     1       1.819   8.751  18.409  0.00  0.00    +0.000 A 
ATOM      9  C   UNL     1       2.696   8.149  17.506  0.00  0.00    +0.000 A 
ATOM     10  C   UNL     1       3.384   6.978  17.839  0.00  0.00    +0.000 A 
BRANCH   5  18
ATOM     11  C   UNL     1       1.143   2.931  18.587  0.00  0.00    +0.000 C 
ATOM     12  C   UNL     1       1.569   3.823  19.758  0.00  0.00    +0.000 C 
ATOM     13  C   UNL     1       1.074   3.256  21.105  0.00  0.00    +0.000 C 
ATOM     14  O   UNL     1       1.748   2.039  21.450  0.00  0.00    +0.000 OA
ATOM     15  C   UNL     1       3.163   2.261  21.562  0.00  0.00    +0.000 C 
ATOM     16  C   UNL     1       3.756   2.783  20.248  0.00  0.00    +0.000 C 
ATOM     17  N   UNL     1       3.044   3.986  19.797  0.00  0.00    +0.000 N 
ATOM     18  C   UNL     1       3.773   5.172  19.597  0.00  0.00    +0.000 C 
ATOM     19  O   UNL     1       4.984   5.224  19.828  0.00  0.00    +0.000 OA
ENDBRANCH   5  18
ENDBRANCH   1  10
BRANCH   2  20
ATOM     20  C   UNL     1       5.449   4.773  15.514  0.00  0.00    +0.000 A 
ATOM     21  N   UNL     1       5.101   4.320  14.272  0.00  0.00    +0.000 NA
ATOM     22  C   UNL     1       6.112   4.109  13.392  0.00  0.00    +0.000 A 
ATOM     23  C   UNL     1       7.425   4.340  13.786  0.00  0.00    +0.000 A 
ATOM     24  N   UNL     1       7.777   4.740  15.029  0.00  0.00    +0.000 NA
ATOM     25  C   UNL     1       6.779   4.969  15.920  0.00  0.00    +0.000 A 
BRANCH  22  26
ATOM     26  C   UNL     1       5.784   3.674  11.990  0.00  0.00    +0.000 C 
ATOM     27  C   UNL     1       5.475   2.223  11.707  0.00  0.00    +0.000 C 
ATOM     28  C   UNL     1       4.371   3.238  11.683  0.00  0.00    +0.000 C 
ENDBRANCH  22  26
BRANCH  25  29
ATOM     29  N   UNL     1       7.143   5.318  17.234  0.00  0.00    +0.000 N 
ATOM     30  H   UNL     1       6.880   4.624  17.930  0.00  0.00    +0.000 HD
BRANCH  29  31
ATOM     31  C   UNL     1       7.547   6.579  17.690  0.00  0.00    +0.000 A 
ATOM     32  C   UNL     1       7.333   7.750  16.990  0.00  0.00    +0.000 A 
ATOM     33  N   UNL     1       7.775   8.972  17.372  0.00  0.00    +0.000 NA
ATOM     34  C   UNL     1       8.475   9.001  18.515  0.00  0.00    +0.000 A 
ATOM     35  N   UNL     1       8.760   7.950  19.296  0.00  0.00    +0.000 NA
ATOM     36  C   UNL     1       8.293   6.763  18.848  0.00  0.00    +0.000 A 
ENDBRANCH  29  31
ENDBRANCH  25  29
ENDBRANCH   2  20
TORSDOF 6
ENDMDL
MODEL 2
REMARK VINA RESULT:      -7.7      6.954     10.336
REMARK  Name = 
REMARK  7 active torsions:
REMARK  status: ('A' for Active; 'I' for Inactive)
REMARK    1  A    between atoms: C_1  and  C_2
REMARK    2  A    between atoms: C_8  and  C_10
REMARK    3  A    between atoms: C_15  and  N_16
REMARK    4  A    between atoms: C_17  and  C_19
REMARK    5  A    between atoms: C_21  and  C_22
REMARK    6  A    between atoms: C_27  and  N_28
REMARK    7  A    between atoms: N_28  and  C_29
REMARK                            x       y       z     vdW  Elec       q    Type
REMARK                         _______ _______ _______ _____ _____    ______ ____
ROOT
ATOM      1  N   UNL     1      -1.687  10.002  18.566  0.00  0.00    +0.000 N 
ATOM      2  C   UNL     1      -0.533  10.624  19.021  0.00  0.00    +0.000 C 
ATOM      3  O   UNL     1       0.012  11.614  18.529  0.00  0.00    +0.000 OA
ATOM      4  H   UNL     1      -1.963   9.151  19.068  0.00  0.00    +0.000 HD
ENDROOT
BRANCH   1  10
ATOM      5  C   UNL     1      -3.568  11.276  17.551  0.00  0.00    +0.000 A 
ATOM      6  N   UNL     1      -4.348  11.636  16.488  0.00  0.00    +0.000 NA
ATOM      7  C   UNL     1      -4.026  11.149  15.277  0.00  0.00    +0.000 A 
ATOM      8  C   UNL     1      -3.000  10.256  15.072  0.00  0.00    +0.000 A 
ATOM      9  C   UNL     1      -2.242   9.853  16.171  0.00  0.00    +0.000 A 
ATOM     10  C   UNL     1      -2.491  10.367  17.448  0.00  0.00    +0.000 A 
BRANCH   5  18
ATOM     11  C   UNL     1      -7.023  10.081  19.291  0.00  0.00    +0.000 C 
ATOM     12  C   UNL     1      -6.466  11.352  18.639  0.00  0.00    +0.000 C 
ATOM     13  C   UNL     1      -7.529  12.469  18.588  0.00  0.00    +0.000 C 
ATOM     14  O   UNL     1      -7.842  12.967  19.895  0.00  0.00    +0.000 OA
ATOM     15  C   UNL     1      -6.668  13.507  20.522  0.00  0.00    +0.000 C 
ATOM     16  C   UNL     1      -5.566  12.450  20.661  0.00  0.00    +0.000 C 
ATOM     17  N   UNL     1      -5.264  11.840  19.360  0.00  0.00    +0.000 N 
ATOM     18  C   UNL     1      -3.947  11.903  18.869  0.00  0.00    +0.000 C 
ATOM     19  O   UNL     1      -3.060  12.491  19.495  0.00  0.00    +0.000 OA
ENDBRANCH   5  18
ENDBRANCH   1  10
BRANCH   2  20
ATOM     20  C   UNL     1       0.109   9.972  20.208  0.00  0.00    +0.000 A 
ATOM     21  N   UNL     1       0.822   8.844  19.913  0.00  0.00    +0.000 NA
ATOM     22  C   UNL     1       1.521   8.279  20.929  0.00  0.00    +0.000 A 
ATOM     23  C   UNL     1       1.470   8.846  22.197  0.00  0.00    +0.000 A 
ATOM     24  N   UNL     1       0.727   9.934  22.504  0.00  0.00    +0.000 NA
ATOM     25  C   UNL     1       0.030  10.521  21.498  0.00  0.00    +0.000 A 
BRANCH  22  26
ATOM     26  C   UNL     1       2.376   7.074  20.648  0.00  0.00    +0.000 C 
ATOM     27  C   UNL     1       1.738   5.709  20.537  0.00  0.00    +0.000 C 
ATOM     28  C   UNL     1       2.247   6.396  19.304  0.00  0.00    +0.000 C 
ENDBRANCH  22  26
BRANCH  25  29
ATOM     29  N   UNL     1      -0.799  11.610  21.827  0.00  0.00    +0.000 N 
ATOM     30  H   UNL     1      -1.788  11.438  21.657  0.00  0.00    +0.000 HD
BRANCH  29  31
ATOM     31  C   UNL     1      -0.400  12.929  22.077  0.00  0.00    +0.000 A 
ATOM     32  C   UNL     1       0.610  13.565  21.383  0.00  0.00    +0.000 A 
ATOM     33  N   UNL     1       1.064  14.814  21.649  0.00  0.00    +0.000 NA
ATOM     34  C   UNL     1       0.469  15.437  22.676  0.00  0.00    +0.000 A 
ATOM     35  N   UNL     1      -0.519  14.945  23.435  0.00  0.00    +0.000 NA
ATOM     36  C   UNL     1      -0.916  13.693  23.116  0.00  0.00    +0.000 A 
ENDBRANCH  29  31
ENDBRANCH  25  29
ENDBRANCH   2  20
TORSDOF 6
ENDMDL
MODEL 3
REMARK VINA RESULT:      -7.6      6.932     10.619
REMARK  Name = 
REMARK  7 active torsions:
REMARK  status: ('A' for Active; 'I' for Inactive)
REMARK    1  A    between atoms: C_1  and  C_2
REMARK    2  A    between atoms: C_8  and  C_10
REMARK    3  A    between atoms: C_15  and  N_16
REMARK    4  A    between atoms: C_17  and  C_19
REMARK    5  A    between atoms: C_21  and  C_22
REMARK    6  A    between atoms: C_27  and  N_28
REMARK    7  A    between atoms: N_28  and  C_29
REMARK                            x       y       z     vdW  Elec       q    Type
REMARK                         _______ _______ _______ _____ _____    ______ ____
ROOT
ATOM      1  N   UNL     1      -1.567  10.018  18.596  0.00  0.00    +0.000 N 
ATOM      2  C   UNL     1      -0.408  10.665  19.001  0.00  0.00    +0.000 C 
ATOM      3  O   UNL     1       0.136  11.620  18.441  0.00  0.00    +0.000 OA
ATOM      4  H   UNL     1      -1.841   9.203  19.154  0.00  0.00    +0.000 HD
ENDROOT
BRANCH   1  10
ATOM      5  C   UNL     1      -3.485  11.189  17.526  0.00  0.00    +0.000 A 
ATOM      6  N   UNL     1      -4.272  11.481  16.447  0.00  0.00    +0.000 NA
ATOM      7  C   UNL     1      -3.930  10.957  15.258  0.00  0.00    +0.000 A 
ATOM      8  C   UNL     1      -2.875  10.091  15.090  0.00  0.00    +0.000 A 
ATOM      9  C   UNL     1      -2.108   9.756  16.207  0.00  0.00    +0.000 A 
ATOM     10  C   UNL     1      -2.378  10.312  17.462  0.00  0.00    +0.000 A 
BRANCH   5  18
ATOM     11  C   UNL     1      -6.925   9.978  19.285  0.00  0.00    +0.000 C 
ATOM     12  C   UNL     1      -6.393  11.237  18.589  0.00  0.00    +0.000 C 
ATOM     13  C   UNL     1      -7.480  12.326  18.490  0.00  0.00    +0.000 C 
ATOM     14  O   UNL     1      -7.815  12.864  19.776  0.00  0.00    +0.000 OA
ATOM     15  C   UNL     1      -6.659  13.455  20.390  0.00  0.00    +0.000 C 
ATOM     16  C   UNL     1      -5.534  12.430  20.576  0.00  0.00    +0.000 C 
ATOM     17  N   UNL     1      -5.208  11.779  19.301  0.00  0.00    +0.000 N 
ATOM     18  C   UNL     1      -3.889  11.855  18.817  0.00  0.00    +0.000 C 
ATOM     19  O   UNL     1      -3.021  12.487  19.427  0.00  0.00    +0.000 OA
ENDBRANCH   5  18
ENDBRANCH   1  10
BRANCH   2  20
ATOM     20  C   UNL     1       0.241  10.090  20.223  0.00  0.00    +0.000 A 
ATOM     21  N   UNL     1       0.685   8.806  20.072  0.00  0.00    +0.000 NA
ATOM     22  C   UNL     1       1.386   8.277  21.106  0.00  0.00    +0.000 A 
ATOM     23  C   UNL     1       1.601   9.035  22.251  0.00  0.00    +0.000 A 
ATOM     24  N   UNL     1       1.121  10.287  22.423  0.00  0.00    +0.000 NA
ATOM     25  C   UNL     1       0.428  10.840  21.395  0.00  0.00    +0.000 A 
BRANCH  22  26
ATOM     26  C   UNL     1       1.956   6.891  20.969  0.00  0.00    +0.000 C 
ATOM     27  C   UNL     1       1.081   5.764  20.472  0.00  0.00    +0.000 C 
ATOM     28  C   UNL     1       2.151   6.325  19.583  0.00  0.00    +0.000 C 
ENDBRANCH  22  26
BRANCH  25  29
ATOM     29  N   UNL     1      -0.132  12.115  21.596  0.00  0.00    +0.000 N 
ATOM     30  H   UNL     1       0.504  12.881  21.386  0.00  0.00    +0.000 HD
BRANCH  29  31
ATOM     31  C   UNL     1      -1.309  12.419  22.292  0.00  0.00    +0.000 A 
ATOM     32  C   UNL     1      -1.806  13.700  22.428  0.00  0.00    +0.000 A 
ATOM     33  N   UNL     1      -2.902  14.032  23.153  0.00  0.00    +0.000 NA
ATOM     34  C   UNL     1      -3.513  13.013  23.775  0.00  0.00    +0.000 A 
ATOM     35  N   UNL     1      -3.145  11.726  23.733  0.00  0.00    +0.000 NA
ATOM     36  C   UNL     1      -2.040  11.471  22.997  0.00  0.00    +0.000 A 
ENDBRANCH  29  31
ENDBRANCH  25  29
ENDBRANCH   2  20
TORSDOF 6
ENDMDL
MODEL 4
REMARK VINA RESULT:      -7.6      7.603     11.211
REMARK  Name = 
REMARK  7 active torsions:
REMARK  status: ('A' for Active; 'I' for Inactive)
REMARK    1  A    between atoms: C_1  and  C_2
REMARK    2  A    between atoms: C_8  and  C_10
REMARK    3  A    between atoms: C_15  and  N_16
REMARK    4  A    between atoms: C_17  and  C_19
REMARK    5  A    between atoms: C_21  and  C_22
REMARK    6  A    between atoms: C_27  and  N_28
REMARK    7  A    between atoms: N_28  and  C_29
REMARK                            x       y       z     vdW  Elec       q    Type
REMARK                         _______ _______ _______ _____ _____    ______ ____
ROOT
ATOM      1  N   UNL     1      -1.413  14.029  19.459  0.00  0.00    +0.000 N 
ATOM      2  C   UNL     1      -1.442  12.701  19.860  0.00  0.00    +0.000 C 
ATOM      3  O   UNL     1      -0.989  12.239  20.910  0.00  0.00    +0.000 OA
ATOM      4  H   UNL     1      -1.787  14.221  18.524  0.00  0.00    +0.000 HD
ENDROOT
BRANCH   1  10
ATOM      5  C   UNL     1      -1.622  15.910  21.075  0.00  0.00    +0.000 A 
ATOM      6  N   UNL     1      -1.111  16.978  21.758  0.00  0.00    +0.000 NA
ATOM      7  C   UNL     1       0.193  17.261  21.599  0.00  0.00    +0.000 A 
ATOM      8  C   UNL     1       1.014  16.576  20.733  0.00  0.00    +0.000 A 
ATOM      9  C   UNL     1       0.471  15.521  20.000  0.00  0.00    +0.000 A 
ATOM     10  C   UNL     1      -0.865  15.140  20.163  0.00  0.00    +0.000 A 
BRANCH   5  18
ATOM     11  C   UNL     1      -2.642  14.662  24.789  0.00  0.00    +0.000 C 
ATOM     12  C   UNL     1      -2.594  14.077  23.373  0.00  0.00    +0.000 C 
ATOM     13  C   UNL     1      -3.001  12.589  23.367  0.00  0.00    +0.000 C 
ATOM     14  O   UNL     1      -4.391  12.415  23.671  0.00  0.00    +0.000 OA
ATOM     15  C   UNL     1      -5.206  13.096  22.704  0.00  0.00    +0.000 C 
ATOM     16  C   UNL     1      -4.905  14.599  22.671  0.00  0.00    +0.000 C 
ATOM     17  N   UNL     1      -3.473  14.838  22.450  0.00  0.00    +0.000 N 
ATOM     18  C   UNL     1      -3.076  15.610  21.343  0.00  0.00    +0.000 C 
ATOM     19  O   UNL     1      -3.905  16.053  20.544  0.00  0.00    +0.000 OA
ENDBRANCH   5  18
ENDBRANCH   1  10
BRANCH   2  20
ATOM     20  C   UNL     1      -2.058  11.758  18.872  0.00  0.00    +0.000 A 
ATOM     21  N   UNL     1      -3.424  11.781  18.849  0.00  0.00    +0.000 NA
ATOM     22  C   UNL     1      -4.032  11.035  17.892  0.00  0.00    +0.000 A 
ATOM     23  C   UNL     1      -3.261  10.286  17.012  0.00  0.00    +0.000 A 
ATOM     24  N   UNL     1      -1.912  10.222  17.063  0.00  0.00    +0.000 NA
ATOM     25  C   UNL     1      -1.283  10.971  18.004  0.00  0.00    +0.000 A 
BRANCH  22  26
ATOM     26  C   UNL     1      -5.532  11.074  17.778  0.00  0.00    +0.000 C 
ATOM     27  C   UNL     1      -6.382  10.334  18.784  0.00  0.00    +0.000 C 
ATOM     28  C   UNL     1      -6.316  11.832  18.822  0.00  0.00    +0.000 C 
ENDBRANCH  22  26
BRANCH  25  29
ATOM     29  N   UNL     1       0.115  10.854  18.106  0.00  0.00    +0.000 N 
ATOM     30  H   UNL     1       0.625  11.524  17.535  0.00  0.00    +0.000 HD
BRANCH  29  31
ATOM     31  C   UNL     1       0.834   9.785  18.655  0.00  0.00    +0.000 A 
ATOM     32  C   UNL     1       1.648   8.951  17.913  0.00  0.00    +0.000 A 
ATOM     33  N   UNL     1       2.299   7.868  18.404  0.00  0.00    +0.000 NA
ATOM     34  C   UNL     1       2.104   7.619  19.707  0.00  0.00    +0.000 A 
ATOM     35  N   UNL     1       1.346   8.338  20.545  0.00  0.00    +0.000 NA
ATOM     36  C   UNL     1       0.722   9.398  19.985  0.00  0.00    +0.000 A 
ENDBRANCH  29  31
ENDBRANCH  25  29
ENDBRANCH   2  20
TORSDOF 6
ENDMDL
MODEL 5
REMARK VINA RESULT:      -7.5      7.874     11.570
REMARK  Name = 
REMARK  7 active torsions:
REMARK  status: ('A' for Active; 'I' for Inactive)
REMARK    1  A    between atoms: C_1  and  C_2
REMARK    2  A    between atoms: C_8  and  C_10
REMARK    3  A    between atoms: C_15  and  N_16
REMARK    4  A    between atoms: C_17  and  C_19
REMARK    5  A    between atoms: C_21  and  C_22
REMARK    6  A    between atoms: C_27  and  N_28
REMARK    7  A    between atoms: N_28  and  C_29
REMARK                            x       y       z     vdW  Elec       q    Type
REMARK                         _______ _______ _______ _____ _____    ______ ____
ROOT
ATOM      1  N   UNL     1      -2.916  13.005  20.043  0.00  0.00    +0.000 N 
ATOM      2  C   UNL     1      -1.973  12.287  19.321  0.00  0.00    +0.000 C 
ATOM      3  O   UNL     1      -2.158  11.226  18.720  0.00  0.00    +0.000 OA
ATOM      4  H   UNL     1      -2.567  13.838  20.527  0.00  0.00    +0.000 HD
ENDROOT
BRANCH   1  10
ATOM      5  C   UNL     1      -4.876  12.625  21.528  0.00  0.00    +0.000 A 
ATOM      6  N   UNL     1      -6.192  12.319  21.737  0.00  0.00    +0.000 NA
ATOM      7  C   UNL     1      -6.973  12.130  20.660  0.00  0.00    +0.000 A 
ATOM      8  C   UNL     1      -6.499  12.161  19.369  0.00  0.00    +0.000 A 
ATOM      9  C   UNL     1      -5.143  12.422  19.167  0.00  0.00    +0.000 A 
ATOM     10  C   UNL     1      -4.289  12.683  20.244  0.00  0.00    +0.000 A 
BRANCH   5  18
ATOM     11  C   UNL     1      -5.988  15.715  23.896  0.00  0.00    +0.000 C 
ATOM     12  C   UNL     1      -4.807  15.356  22.987  0.00  0.00    +0.000 C 
ATOM     13  C   UNL     1      -3.782  16.506  22.917  0.00  0.00    +0.000 C 
ATOM     14  O   UNL     1      -3.100  16.689  24.164  0.00  0.00    +0.000 OA
ATOM     15  C   UNL     1      -2.393  15.494  24.531  0.00  0.00    +0.000 C 
ATOM     16  C   UNL     1      -3.342  14.299  24.673  0.00  0.00    +0.000 C 
ATOM     17  N   UNL     1      -4.135  14.116  23.450  0.00  0.00    +0.000 N 
ATOM     18  C   UNL     1      -4.069  12.883  22.776  0.00  0.00    +0.000 C 
ATOM     19  O   UNL     1      -3.333  11.976  23.175  0.00  0.00    +0.000 OA
ENDBRANCH   5  18
ENDBRANCH   1  10
BRANCH   2  20
ATOM     20  C   UNL     1      -0.593  12.871  19.330  0.00  0.00    +0.000 A 
ATOM     21  N   UNL     1      -0.526  14.163  18.890  0.00  0.00    +0.000 NA
ATOM     22  C   UNL     1       0.678  14.781  18.989  0.00  0.00    +0.000 A 
ATOM     23  C   UNL     1       1.766  14.087  19.503  0.00  0.00    +0.000 A 
ATOM     24  N   UNL     1       1.716  12.793  19.893  0.00  0.00    +0.000 NA
ATOM     25  C   UNL     1       0.518  12.161  19.815  0.00  0.00    +0.000 A 
BRANCH  22  26
ATOM     26  C   UNL     1       0.794  16.224  18.582  0.00  0.00    +0.000 C 
ATOM     27  C   UNL     1       0.596  17.314  19.610  0.00  0.00    +0.000 C 
ATOM     28  C   UNL     1       1.972  17.024  19.087  0.00  0.00    +0.000 C 
ENDBRANCH  22  26
BRANCH  25  29
ATOM     29  N   UNL     1       0.476  10.796  20.153  0.00  0.00    +0.000 N 
ATOM     30  H   UNL     1       0.115  10.616  21.088  0.00  0.00    +0.000 HD
BRANCH  29  31
ATOM     31  C   UNL     1       1.113   9.741  19.487  0.00  0.00    +0.000 A 
ATOM     32  C   UNL     1       1.534   8.585  20.115  0.00  0.00    +0.000 A 
ATOM     33  N   UNL     1       2.214   7.581  19.511  0.00  0.00    +0.000 NA
ATOM     34  C   UNL     1       2.487   7.768  18.211  0.00  0.00    +0.000 A 
ATOM     35  N   UNL     1       2.143   8.834  17.477  0.00  0.00    +0.000 NA
ATOM     36  C   UNL     1       1.472   9.797  18.146  0.00  0.00    +0.000 A 
ENDBRANCH  29  31
ENDBRANCH  25  29
ENDBRANCH   2  20
TORSDOF 6
ENDMDL
MODEL 6
REMARK VINA RESULT:      -7.5      7.182     10.720
REMARK  Name = 
REMARK  7 active torsions:
REMARK  status: ('A' for Active; 'I' for Inactive)
REMARK    1  A    between atoms: C_1  and  C_2
REMARK    2  A    between atoms: C_8  and  C_10
REMARK    3  A    between atoms: C_15  and  N_16
REMARK    4  A    between atoms: C_17  and  C_19
REMARK    5  A    between atoms: C_21  and  C_22
REMARK    6  A    between atoms: C_27  and  N_28
REMARK    7  A    between atoms: N_28  and  C_29
REMARK                            x       y       z     vdW  Elec       q    Type
REMARK                         _______ _______ _______ _____ _____    ______ ____
ROOT
ATOM      1  N   UNL     1      -2.257  12.627  18.937  0.00  0.00    +0.000 N 
ATOM      2  C   UNL     1      -1.142  12.035  19.514  0.00  0.00    +0.000 C 
ATOM      3  O   UNL     1      -1.141  11.129  20.351  0.00  0.00    +0.000 OA
ATOM      4  H   UNL     1      -2.067  13.410  18.302  0.00  0.00    +0.000 HD
ENDROOT
BRANCH   1  10
ATOM      5  C   UNL     1      -4.387  12.970  20.176  0.00  0.00    +0.000 A 
ATOM      6  N   UNL     1      -5.703  12.689  20.417  0.00  0.00    +0.000 NA
ATOM      7  C   UNL     1      -6.314  11.800  19.615  0.00  0.00    +0.000 A 
ATOM      8  C   UNL     1      -5.663  11.113  18.617  0.00  0.00    +0.000 A 
ATOM      9  C   UNL     1      -4.307  11.367  18.412  0.00  0.00    +0.000 A 
ATOM     10  C   UNL     1      -3.628  12.322  19.176  0.00  0.00    +0.000 A 
BRANCH   5  18
ATOM     11  C   UNL     1      -2.198  11.714  23.342  0.00  0.00    +0.000 C 
ATOM     12  C   UNL     1      -3.532  12.431  23.103  0.00  0.00    +0.000 C 
ATOM     13  C   UNL     1      -4.265  12.710  24.431  0.00  0.00    +0.000 C 
ATOM     14  O   UNL     1      -3.583  13.692  25.221  0.00  0.00    +0.000 OA
ATOM     15  C   UNL     1      -3.485  14.934  24.506  0.00  0.00    +0.000 C 
ATOM     16  C   UNL     1      -2.724  14.765  23.186  0.00  0.00    +0.000 C 
ATOM     17  N   UNL     1      -3.329  13.705  22.368  0.00  0.00    +0.000 N 
ATOM     18  C   UNL     1      -3.778  14.019  21.073  0.00  0.00    +0.000 C 
ATOM     19  O   UNL     1      -3.705  15.170  20.633  0.00  0.00    +0.000 OA
ENDBRANCH   5  18
ENDBRANCH   1  10
BRANCH   2  20
ATOM     20  C   UNL     1       0.172  12.609  19.081  0.00  0.00    +0.000 A 
ATOM     21  N   UNL     1       0.345  13.926  19.406  0.00  0.00    +0.000 NA
ATOM     22  C   UNL     1       1.562  14.465  19.144  0.00  0.00    +0.000 A 
ATOM     23  C   UNL     1       2.549  13.683  18.558  0.00  0.00    +0.000 A 
ATOM     24  N   UNL     1       2.367  12.394  18.191  0.00  0.00    +0.000 NA
ATOM     25  C   UNL     1       1.160  11.831  18.456  0.00  0.00    +0.000 A 
BRANCH  22  26
ATOM     26  C   UNL     1       1.830  15.892  19.540  0.00  0.00    +0.000 C 
ATOM     27  C   UNL     1       1.973  16.953  18.475  0.00  0.00    +0.000 C 
ATOM     28  C   UNL     1       0.740  16.916  19.329  0.00  0.00    +0.000 C 
ENDBRANCH  22  26
BRANCH  25  29
ATOM     29  N   UNL     1       0.943  10.514  18.013  0.00  0.00    +0.000 N 
ATOM     30  H   UNL     1       0.133  10.414  17.404  0.00  0.00    +0.000 HD
BRANCH  29  31
ATOM     31  C   UNL     1       1.519   9.345  18.526  0.00  0.00    +0.000 A 
ATOM     32  C   UNL     1       2.269   8.467  17.767  0.00  0.00    +0.000 A 
ATOM     33  N   UNL     1       2.778   7.295  18.218  0.00  0.00    +0.000 NA
ATOM     34  C   UNL     1       2.503   7.000  19.497  0.00  0.00    +0.000 A 
ATOM     35  N   UNL     1       1.792   7.753  20.347  0.00  0.00    +0.000 NA
ATOM     36  C   UNL     1       1.311   8.903  19.826  0.00  0.00    +0.000 A 
ENDBRANCH  29  31
ENDBRANCH  25  29
ENDBRANCH   2  20
TORSDOF 6
ENDMDL
MODEL 7
REMARK VINA RESULT:      -7.5      8.017     11.697
REMARK  Name = 
REMARK  7 active torsions:
REMARK  status: ('A' for Active; 'I' for Inactive)
REMARK    1  A    between atoms: C_1  and  C_2
REMARK    2  A    between atoms: C_8  and  C_10
REMARK    3  A    between atoms: C_15  and  N_16
REMARK    4  A    between atoms: C_17  and  C_19
REMARK    5  A    between atoms: C_21  and  C_22
REMARK    6  A    between atoms: C_27  and  N_28
REMARK    7  A    between atoms: N_28  and  C_29
REMARK                            x       y       z     vdW  Elec       q    Type
REMARK                         _______ _______ _______ _____ _____    ______ ____
ROOT
ATOM      1  N   UNL     1      -3.171  12.640  19.591  0.00  0.00    +0.000 N 
ATOM      2  C   UNL     1      -2.037  11.952  19.181  0.00  0.00    +0.000 C 
ATOM      3  O   UNL     1      -2.005  10.864  18.601  0.00  0.00    +0.000 OA
ATOM      4  H   UNL     1      -3.002  13.506  20.113  0.00  0.00    +0.000 HD
ENDROOT
BRANCH   1  10
ATOM      5  C   UNL     1      -5.491  12.404  20.456  0.00  0.00    +0.000 A 
ATOM      6  N   UNL     1      -6.801  12.035  20.318  0.00  0.00    +0.000 NA
ATOM      7  C   UNL     1      -7.200  11.566  19.124  0.00  0.00    +0.000 A 
ATOM      8  C   UNL     1      -6.344  11.374  18.064  0.00  0.00    +0.000 A 
ATOM      9  C   UNL     1      -4.998  11.704  18.231  0.00  0.00    +0.000 A 
ATOM     10  C   UNL     1      -4.532  12.250  19.431  0.00  0.00    +0.000 A 
BRANCH   5  18
ATOM     11  C   UNL     1      -7.325  15.820  21.624  0.00  0.00    +0.000 C 
ATOM     12  C   UNL     1      -5.914  15.374  21.223  0.00  0.00    +0.000 C 
ATOM     13  C   UNL     1      -4.931  16.562  21.218  0.00  0.00    +0.000 C 
ATOM     14  O   UNL     1      -4.680  17.053  22.541  0.00  0.00    +0.000 OA
ATOM     15  C   UNL     1      -4.113  16.020  23.361  0.00  0.00    +0.000 C 
ATOM     16  C   UNL     1      -5.047  14.809  23.467  0.00  0.00    +0.000 C 
ATOM     17  N   UNL     1      -5.411  14.314  22.133  0.00  0.00    +0.000 N 
ATOM     18  C   UNL     1      -5.123  12.978  21.802  0.00  0.00    +0.000 C 
ATOM     19  O   UNL     1      -4.542  12.234  22.597  0.00  0.00    +0.000 OA
ENDBRANCH   5  18
ENDBRANCH   1  10
BRANCH   2  20
ATOM     20  C   UNL     1      -0.738  12.611  19.533  0.00  0.00    +0.000 A 
ATOM     21  N   UNL     1      -0.707  13.956  19.294  0.00  0.00    +0.000 NA
ATOM     22  C   UNL     1       0.401  14.625  19.704  0.00  0.00    +0.000 A 
ATOM     23  C   UNL     1       1.435  13.929  20.317  0.00  0.00    +0.000 A 
ATOM     24  N   UNL     1       1.429  12.591  20.511  0.00  0.00    +0.000 NA
ATOM     25  C   UNL     1       0.325  11.906  20.120  0.00  0.00    +0.000 A 
BRANCH  22  26
ATOM     26  C   UNL     1       0.461  16.117  19.526  0.00  0.00    +0.000 C 
ATOM     27  C   UNL     1       1.149  16.702  18.314  0.00  0.00    +0.000 C 
ATOM     28  C   UNL     1      -0.347  16.745  18.415  0.00  0.00    +0.000 C 
ENDBRANCH  22  26
BRANCH  25  29
ATOM     29  N   UNL     1       0.343  10.505  20.256  0.00  0.00    +0.000 N 
ATOM     30  H   UNL     1      -0.122  10.169  21.097  0.00  0.00    +0.000 HD
BRANCH  29  31
ATOM     31  C   UNL     1       1.139   9.599  19.545  0.00  0.00    +0.000 A 
ATOM     32  C   UNL     1       1.489   9.767  18.219  0.00  0.00    +0.000 A 
ATOM     33  N   UNL     1       2.197   8.874  17.487  0.00  0.00    +0.000 NA
ATOM     34  C   UNL     1       2.555   7.753  18.131  0.00  0.00    +0.000 A 
ATOM     35  N   UNL     1       2.286   7.456  19.409  0.00  0.00    +0.000 NA
ATOM     36  C   UNL     1       1.571   8.390  20.075  0.00  0.00    +0.000 A 
ENDBRANCH  29  31
ENDBRANCH  25  29
ENDBRANCH   2  20
TORSDOF 6
ENDMDL
MODEL 8
REMARK VINA RESULT:      -7.4      7.966     11.643
REMARK  Name = 
REMARK  7 active torsions:
REMARK  status: ('A' for Active; 'I' for Inactive)
REMARK    1  A    between atoms: C_1  and  C_2
REMARK    2  A    between atoms: C_8  and  C_10
REMARK    3  A    between atoms: C_15  and  N_16
REMARK    4  A    between atoms: C_17  and  C_19
REMARK    5  A    between atoms: C_21  and  C_22
REMARK    6  A    between atoms: C_27  and  N_28
REMARK    7  A    between atoms: N_28  and  C_29
REMARK                            x       y       z     vdW  Elec       q    Type
REMARK                         _______ _______ _______ _____ _____    ______ ____
ROOT
ATOM      1  N   UNL     1      -3.047  12.993  20.429  0.00  0.00    +0.000 N 
ATOM      2  C   UNL     1      -2.142  12.327  19.614  0.00  0.00    +0.000 C 
ATOM      3  O   UNL     1      -2.377  11.350  18.899  0.00  0.00    +0.000 OA
ATOM      4  H   UNL     1      -2.658  13.751  21.000  0.00  0.00    +0.000 HD
ENDROOT
BRANCH   1  10
ATOM      5  C   UNL     1      -5.032  12.669  21.894  0.00  0.00    +0.000 A 
ATOM      6  N   UNL     1      -6.356  12.393  22.090  0.00  0.00    +0.000 NA
ATOM      7  C   UNL     1      -7.128  12.211  21.005  0.00  0.00    +0.000 A 
ATOM      8  C   UNL     1      -6.638  12.220  19.720  0.00  0.00    +0.000 A 
ATOM      9  C   UNL     1      -5.275  12.450  19.532  0.00  0.00    +0.000 A 
ATOM     10  C   UNL     1      -4.429  12.703  20.617  0.00  0.00    +0.000 A 
BRANCH   5  18
ATOM     11  C   UNL     1      -5.889  15.989  24.046  0.00  0.00    +0.000 C 
ATOM     12  C   UNL     1      -4.728  15.462  23.196  0.00  0.00    +0.000 C 
ATOM     13  C   UNL     1      -3.591  16.500  23.092  0.00  0.00    +0.000 C 
ATOM     14  O   UNL     1      -2.926  16.690  24.347  0.00  0.00    +0.000 OA
ATOM     15  C   UNL     1      -2.351  15.455  24.803  0.00  0.00    +0.000 C 
ATOM     16  C   UNL     1      -3.418  14.369  24.984  0.00  0.00    +0.000 C 
ATOM     17  N   UNL     1      -4.194  14.192  23.750  0.00  0.00    +0.000 N 
ATOM     18  C   UNL     1      -4.234  12.921  23.149  0.00  0.00    +0.000 C 
ATOM     19  O   UNL     1      -3.603  11.971  23.622  0.00  0.00    +0.000 OA
ENDBRANCH   5  18
ENDBRANCH   1  10
BRANCH   2  20
ATOM     20  C   UNL     1      -0.740  12.853  19.666  0.00  0.00    +0.000 A 
ATOM     21  N   UNL     1      -0.636  14.198  19.444  0.00  0.00    +0.000 NA
ATOM     22  C   UNL     1       0.595  14.749  19.597  0.00  0.00    +0.000 A 
ATOM     23  C   UNL     1       1.671  13.941  19.945  0.00  0.00    +0.000 A 
ATOM     24  N   UNL     1       1.581  12.603  20.116  0.00  0.00    +0.000 NA
ATOM     25  C   UNL     1       0.356  12.034  19.981  0.00  0.00    +0.000 A 
BRANCH  22  26
ATOM     26  C   UNL     1       0.756  16.235  19.430  0.00  0.00    +0.000 C 
ATOM     27  C   UNL     1       1.015  16.814  18.059  0.00  0.00    +0.000 C 
ATOM     28  C   UNL     1      -0.325  17.002  18.706  0.00  0.00    +0.000 C 
ENDBRANCH  22  26
BRANCH  25  29
ATOM     29  N   UNL     1       0.270  10.634  20.090  0.00  0.00    +0.000 N 
ATOM     30  H   UNL     1      -0.302  10.318  20.870  0.00  0.00    +0.000 HD
BRANCH  29  31
ATOM     31  C   UNL     1       1.078   9.687  19.448  0.00  0.00    +0.000 A 
ATOM     32  C   UNL     1       1.423   9.758  18.113  0.00  0.00    +0.000 A 
ATOM     33  N   UNL     1       2.143   8.821  17.449  0.00  0.00    +0.000 NA
ATOM     34  C   UNL     1       2.518   7.759  18.177  0.00  0.00    +0.000 A 
ATOM     35  N   UNL     1       2.256   7.557  19.475  0.00  0.00    +0.000 NA
ATOM     36  C   UNL     1       1.529   8.529  20.069  0.00  0.00    +0.000 A 
ENDBRANCH  29  31
ENDBRANCH  25  29
ENDBRANCH   2  20
TORSDOF 6
ENDMDL
MODEL 9
REMARK VINA RESULT:      -7.4      7.621     11.354
REMARK  Name = 
REMARK  7 active torsions:
REMARK  status: ('A' for Active; 'I' for Inactive)
REMARK    1  A    between atoms: C_1  and  C_2
REMARK    2  A    between atoms: C_8  and  C_10
REMARK    3  A    between atoms: C_15  and  N_16
REMARK    4  A    between atoms: C_17  and  C_19
REMARK    5  A    between atoms: C_21  and  C_22
REMARK    6  A    between atoms: C_27  and  N_28
REMARK    7  A    between atoms: N_28  and  C_29
REMARK                            x       y       z     vdW  Elec       q    Type
REMARK                         _______ _______ _______ _____ _____    ______ ____
ROOT
ATOM      1  N   UNL     1      -2.675  12.958  19.732  0.00  0.00    +0.000 N 
ATOM      2  C   UNL     1      -1.852  12.300  18.829  0.00  0.00    +0.000 C 
ATOM      3  O   UNL     1      -2.130  11.286  18.184  0.00  0.00    +0.000 OA
ATOM      4  H   UNL     1      -2.253  13.754  20.222  0.00  0.00    +0.000 HD
ENDROOT
BRANCH   1  10
ATOM      5  C   UNL     1      -4.433  12.581  21.453  0.00  0.00    +0.000 A 
ATOM      6  N   UNL     1      -5.707  12.257  21.827  0.00  0.00    +0.000 NA
ATOM      7  C   UNL     1      -6.609  12.029  20.857  0.00  0.00    +0.000 A 
ATOM      8  C   UNL     1      -6.295  12.037  19.518  0.00  0.00    +0.000 A 
ATOM      9  C   UNL     1      -4.980  12.317  19.146  0.00  0.00    +0.000 A 
ATOM     10  C   UNL     1      -4.007  12.618  20.106  0.00  0.00    +0.000 A 
BRANCH   5  18
ATOM     11  C   UNL     1      -5.208  15.819  23.755  0.00  0.00    +0.000 C 
ATOM     12  C   UNL     1      -4.145  15.381  22.742  0.00  0.00    +0.000 C 
ATOM     13  C   UNL     1      -3.110  16.499  22.496  0.00  0.00    +0.000 C 
ATOM     14  O   UNL     1      -2.289  16.729  23.648  0.00  0.00    +0.000 OA
ATOM     15  C   UNL     1      -1.570  15.536  23.999  0.00  0.00    +0.000 C 
ATOM     16  C   UNL     1      -2.522  14.376  24.311  0.00  0.00    +0.000 C 
ATOM     17  N   UNL     1      -3.450  14.150  23.196  0.00  0.00    +0.000 N 
ATOM     18  C   UNL     1      -3.486  12.882  22.587  0.00  0.00    +0.000 C 
ATOM     19  O   UNL     1      -2.729  11.978  22.952  0.00  0.00    +0.000 OA
ENDBRANCH   5  18
ENDBRANCH   1  10
BRANCH   2  20
ATOM     20  C   UNL     1      -0.481  12.886  18.683  0.00  0.00    +0.000 A 
ATOM     21  N   UNL     1      -0.422  14.236  18.886  0.00  0.00    +0.000 NA
ATOM     22  C   UNL     1       0.812  14.801  18.883  0.00  0.00    +0.000 A 
ATOM     23  C   UNL     1       1.931  14.008  18.661  0.00  0.00    +0.000 A 
ATOM     24  N   UNL     1       1.872  12.680  18.411  0.00  0.00    +0.000 NA
ATOM     25  C   UNL     1       0.649  12.093  18.423  0.00  0.00    +0.000 A 
BRANCH  22  26
ATOM     26  C   UNL     1       0.942  16.273  19.167  0.00  0.00    +0.000 C 
ATOM     27  C   UNL     1       0.374  17.279  18.194  0.00  0.00    +0.000 C 
ATOM     28  C   UNL     1      -0.303  17.054  19.514  0.00  0.00    +0.000 C 
ENDBRANCH  22  26
BRANCH  25  29
ATOM     29  N   UNL     1       0.577  10.727  18.094  0.00  0.00    +0.000 N 
ATOM     30  H   UNL     1      -0.102  10.516  17.366  0.00  0.00    +0.000 HD
BRANCH  29  31
ATOM     31  C   UNL     1       1.103   9.654  18.825  0.00  0.00    +0.000 A 
ATOM     32  C   UNL     1       1.930   8.692  18.280  0.00  0.00    +0.000 A 
ATOM     33  N   UNL     1       2.396   7.606  18.943  0.00  0.00    +0.000 NA
ATOM     34  C   UNL     1       1.993   7.491  20.216  0.00  0.00    +0.000 A 
ATOM     35  N   UNL     1       1.195   8.342  20.874  0.00  0.00    +0.000 NA
ATOM     36  C   UNL     1       0.764   9.398  20.148  0.00  0.00    +0.000 A 
ENDBRANCH  29  31
ENDBRANCH  25  29
ENDBRANCH   2  20
TORSDOF 6
ENDMDL
