MODEL 1
REMARK VINA RESULT:      -6.9      0.000      0.000
REMARK  Name = 
REMARK  8 active torsions:
REMARK  status: ('A' for Active; 'I' for Inactive)
REMARK    1  A    between atoms: C_1  and  C_2
REMARK    2  A    between atoms: C_2  and  N_3
REMARK    3  A    between atoms: N_3  and  C_4
REMARK    4  A    between atoms: N_3  and  C_5
REMARK    5  A    between atoms: C_5  and  C_6
REMARK    6  A    between atoms: N_15  and  C_16
REMARK    7  A    between atoms: C_16  and  C_17
REMARK    8  A    between atoms: C_17  and  C_18
REMARK                            x       y       z     vdW  Elec       q    Type
REMARK                         _______ _______ _______ _____ _____    ______ ____
ROOT
ATOM      1  C   UNL     1       6.482   4.344  16.539  0.00  0.00    +0.000 C 
ATOM      2  O   UNL     1       7.546   4.682  17.061  0.00  0.00    +0.000 OA
ATOM      3  N   UNL     1       5.263   4.607  17.128  0.00  0.00    +0.000 N 
ATOM      4  C   UNL     1       3.963   4.435  16.514  0.00  0.00    +0.000 C 
ATOM      5  C   UNL     1       2.946   4.661  17.622  0.00  0.00    +0.000 C 
ATOM      6  C   UNL     1       3.770   4.888  18.915  0.00  0.00    +0.000 C 
ATOM      7  C   UNL     1       3.856   3.603  19.761  0.00  0.00    +0.000 C 
ATOM      8  C   UNL     1       2.513   3.275  20.410  0.00  0.00    +0.000 C 
ATOM      9  C   UNL     1       1.941   4.481  21.160  0.00  0.00    +0.000 C 
ATOM     10  N   UNL     1       1.860   5.688  20.316  0.00  0.00    +0.000 NA
ATOM     11  C   UNL     1       3.184   6.022  19.766  0.00  0.00    +0.000 C 
ATOM     12  C   UNL     1       5.156   5.288  18.395  0.00  0.00    +0.000 C 
ENDROOT
BRANCH   1  13
ATOM     13  C   UNL     1       6.468   3.523  15.242  0.00  0.00    +0.000 C 
BRANCH  13  14
ATOM     14  N   UNL     1       6.304   4.363  14.029  0.00  0.00    +0.000 NA
ATOM     15  C   UNL     1       6.120   3.492  12.869  0.00  0.00    +0.000 C 
BRANCH  14  17
ATOM     16  C   UNL     1       7.890   5.461  12.431  0.00  0.00    +0.000 C 
ATOM     17  C   UNL     1       7.449   5.276  13.878  0.00  0.00    +0.000 C 
ENDBRANCH  14  17
ENDBRANCH  13  14
ENDBRANCH   1  13
BRANCH  10  18
ATOM     18  C   UNL     1       1.320   6.812  21.116  0.00  0.00    +0.000 C 
BRANCH  18  19
ATOM     19  C   UNL     1       1.498   8.192  20.456  0.00  0.00    +0.000 C 
BRANCH  19  20
ATOM     20  C   UNL     1       0.737   9.264  21.198  0.00  0.00    +0.000 A 
ATOM     21  C   UNL     1       0.088   8.966  22.407  0.00  0.00    +0.000 A 
ATOM     22  C   UNL     1      -0.620   9.948  23.090  0.00  0.00    +0.000 A 
ATOM     23  C   UNL     1      -0.693  11.239  22.566  0.00  0.00    +0.000 A 
ATOM     24  C   UNL     1      -0.056  11.544  21.365  0.00  0.00    +0.000 A 
ATOM     25  C   UNL     1       0.654  10.561  20.680  0.00  0.00    +0.000 A 
ENDBRANCH  19  20
ENDBRANCH  18  19
ENDBRANCH  10  18
TORSDOF 6
ENDMDL
MODEL 2
REMARK VINA RESULT:      -6.8      1.463      2.285
REMARK  Name = 
REMARK  8 active torsions:
REMARK  status: ('A' for Active; 'I' for Inactive)
REMARK    1  A    between atoms: C_1  and  C_2
REMARK    2  A    between atoms: C_2  and  N_3
REMARK    3  A    between atoms: N_3  and  C_4
REMARK    4  A    between atoms: N_3  and  C_5
REMARK    5  A    between atoms: C_5  and  C_6
REMARK    6  A    between atoms: N_15  and  C_16
REMARK    7  A    between atoms: C_16  and  C_17
REMARK    8  A    between atoms: C_17  and  C_18
REMARK                            x       y       z     vdW  Elec       q    Type
REMARK                         _______ _______ _______ _____ _____    ______ ____
ROOT
ATOM      1  C   UNL     1       7.087   5.021  16.055  0.00  0.00    +0.000 C 
ATOM      2  O   UNL     1       7.887   4.297  16.651  0.00  0.00    +0.000 OA
ATOM      3  N   UNL     1       5.910   5.445  16.635  0.00  0.00    +0.000 N 
ATOM      4  C   UNL     1       5.008   6.446  16.105  0.00  0.00    +0.000 C 
ATOM      5  C   UNL     1       3.775   6.408  16.994  0.00  0.00    +0.000 C 
ATOM      6  C   UNL     1       4.015   5.259  18.005  0.00  0.00    +0.000 C 
ATOM      7  C   UNL     1       3.292   3.968  17.575  0.00  0.00    +0.000 C 
ATOM      8  C   UNL     1       1.780   4.097  17.744  0.00  0.00    +0.000 C 
ATOM      9  C   UNL     1       1.410   4.583  19.148  0.00  0.00    +0.000 C 
ATOM     10  N   UNL     1       2.111   5.827  19.521  0.00  0.00    +0.000 NA
ATOM     11  C   UNL     1       3.568   5.647  19.420  0.00  0.00    +0.000 C 
ATOM     12  C   UNL     1       5.537   5.062  17.974  0.00  0.00    +0.000 C 
ENDROOT
BRANCH   1  13
ATOM     13  C   UNL     1       7.323   5.412  14.589  0.00  0.00    +0.000 C 
BRANCH  13  14
ATOM     14  N   UNL     1       7.090   4.290  13.647  0.00  0.00    +0.000 NA
ATOM     15  C   UNL     1       7.531   4.690  12.311  0.00  0.00    +0.000 C 
BRANCH  14  17
ATOM     16  C   UNL     1       5.135   3.465  12.315  0.00  0.00    +0.000 C 
ATOM     17  C   UNL     1       5.677   3.877  13.679  0.00  0.00    +0.000 C 
ENDBRANCH  14  17
ENDBRANCH  13  14
ENDBRANCH   1  13
BRANCH  10  18
ATOM     18  C   UNL     1       1.718   6.220  20.894  0.00  0.00    +0.000 C 
BRANCH  18  19
ATOM     19  C   UNL     1       1.942   7.711  21.208  0.00  0.00    +0.000 C 
BRANCH  19  20
ATOM     20  C   UNL     1       1.206   8.600  20.235  0.00  0.00    +0.000 A 
ATOM     21  C   UNL     1       1.706   8.798  18.938  0.00  0.00    +0.000 A 
ATOM     22  C   UNL     1       1.036   9.621  18.040  0.00  0.00    +0.000 A 
ATOM     23  C   UNL     1      -0.140  10.262  18.434  0.00  0.00    +0.000 A 
ATOM     24  C   UNL     1      -0.642  10.075  19.720  0.00  0.00    +0.000 A 
ATOM     25  C   UNL     1       0.029   9.249  20.619  0.00  0.00    +0.000 A 
ENDBRANCH  19  20
ENDBRANCH  18  19
ENDBRANCH  10  18
TORSDOF 6
ENDMDL
MODEL 3
REMARK VINA RESULT:      -6.7      2.444      8.977
REMARK  Name = 
REMARK  8 active torsions:
REMARK  status: ('A' for Active; 'I' for Inactive)
REMARK    1  A    between atoms: C_1  and  C_2
REMARK    2  A    between atoms: C_2  and  N_3
REMARK    3  A    between atoms: N_3  and  C_4
REMARK    4  A    between atoms: N_3  and  C_5
REMARK    5  A    between atoms: C_5  and  C_6
REMARK    6  A    between atoms: N_15  and  C_16
REMARK    7  A    between atoms: C_16  and  C_17
REMARK    8  A    between atoms: C_17  and  C_18
REMARK                            x       y       z     vdW  Elec       q    Type
REMARK                         _______ _______ _______ _____ _____    ______ ____
ROOT
ATOM      1  C   UNL     1       0.934   9.311  18.927  0.00  0.00    +0.000 C 
ATOM      2  O   UNL     1       0.754   9.963  17.897  0.00  0.00    +0.000 OA
ATOM      3  N   UNL     1       1.785   8.226  18.967  0.00  0.00    +0.000 N 
ATOM      4  C   UNL     1       2.217   7.523  20.156  0.00  0.00    +0.000 C 
ATOM      5  C   UNL     1       2.973   6.298  19.664  0.00  0.00    +0.000 C 
ATOM      6  C   UNL     1       2.860   6.322  18.118  0.00  0.00    +0.000 C 
ATOM      7  C   UNL     1       1.748   5.380  17.619  0.00  0.00    +0.000 C 
ATOM      8  C   UNL     1       2.145   3.915  17.789  0.00  0.00    +0.000 C 
ATOM      9  C   UNL     1       3.522   3.632  17.184  0.00  0.00    +0.000 C 
ATOM     10  N   UNL     1       4.564   4.543  17.695  0.00  0.00    +0.000 NA
ATOM     11  C   UNL     1       4.187   5.945  17.449  0.00  0.00    +0.000 C 
ATOM     12  C   UNL     1       2.513   7.783  17.804  0.00  0.00    +0.000 C 
ENDROOT
BRANCH   1  13
ATOM     13  C   UNL     1       0.139   9.621  20.202  0.00  0.00    +0.000 C 
BRANCH  13  14
ATOM     14  N   UNL     1       0.722  10.735  20.990  0.00  0.00    +0.000 NA
ATOM     15  C   UNL     1      -0.206  11.099  22.060  0.00  0.00    +0.000 C 
BRANCH  14  17
ATOM     16  C   UNL     1       1.371  13.152  20.871  0.00  0.00    +0.000 C 
ATOM     17  C   UNL     1       1.049  11.870  20.111  0.00  0.00    +0.000 C 
ENDBRANCH  14  17
ENDBRANCH  13  14
ENDBRANCH   1  13
BRANCH  10  18
ATOM     18  C   UNL     1       5.858   4.221  17.050  0.00  0.00    +0.000 C 
BRANCH  18  19
ATOM     19  C   UNL     1       6.406   5.344  16.149  0.00  0.00    +0.000 C 
BRANCH  19  20
ATOM     20  C   UNL     1       6.582   4.878  14.725  0.00  0.00    +0.000 A 
ATOM     21  C   UNL     1       7.593   5.427  13.919  0.00  0.00    +0.000 A 
ATOM     22  C   UNL     1       7.754   5.007  12.604  0.00  0.00    +0.000 A 
ATOM     23  C   UNL     1       6.901   4.036  12.078  0.00  0.00    +0.000 A 
ATOM     24  C   UNL     1       5.891   3.489  12.868  0.00  0.00    +0.000 A 
ATOM     25  C   UNL     1       5.730   3.909  14.186  0.00  0.00    +0.000 A 
ENDBRANCH  19  20
ENDBRANCH  18  19
ENDBRANCH  10  18
TORSDOF 6
ENDMDL
MODEL 4
REMARK VINA RESULT:      -6.7      4.264      7.413
REMARK  Name = 
REMARK  8 active torsions:
REMARK  status: ('A' for Active; 'I' for Inactive)
REMARK    1  A    between atoms: C_1  and  C_2
REMARK    2  A    between atoms: C_2  and  N_3
REMARK    3  A    between atoms: N_3  and  C_4
REMARK    4  A    between atoms: N_3  and  C_5
REMARK    5  A    between atoms: C_5  and  C_6
REMARK    6  A    between atoms: N_15  and  C_16
REMARK    7  A    between atoms: C_16  and  C_17
REMARK    8  A    between atoms: C_17  and  C_18
REMARK                            x       y       z     vdW  Elec       q    Type
REMARK                         _______ _______ _______ _____ _____    ______ ____
ROOT
ATOM      1  C   UNL     1       1.870   3.762  17.967  0.00  0.00    +0.000 C 
ATOM      2  O   UNL     1       0.993   4.324  17.308  0.00  0.00    +0.000 OA
ATOM      3  N   UNL     1       3.154   4.261  18.050  0.00  0.00    +0.000 N 
ATOM      4  C   UNL     1       4.193   3.797  18.945  0.00  0.00    +0.000 C 
ATOM      5  C   UNL     1       5.463   4.516  18.517  0.00  0.00    +0.000 C 
ATOM      6  C   UNL     1       5.078   5.349  17.268  0.00  0.00    +0.000 C 
ATOM      7  C   UNL     1       5.485   4.633  15.965  0.00  0.00    +0.000 C 
ATOM      8  C   UNL     1       7.000   4.641  15.777  0.00  0.00    +0.000 C 
ATOM      9  C   UNL     1       7.577   6.051  15.922  0.00  0.00    +0.000 C 
ATOM     10  N   UNL     1       7.180   6.701  17.186  0.00  0.00    +0.000 NA
ATOM     11  C   UNL     1       5.713   6.745  17.302  0.00  0.00    +0.000 C 
ATOM     12  C   UNL     1       3.552   5.467  17.368  0.00  0.00    +0.000 C 
ENDROOT
BRANCH   1  13
ATOM     13  C   UNL     1       1.597   2.418  18.655  0.00  0.00    +0.000 C 
BRANCH  13  14
ATOM     14  N   UNL     1       0.968   2.570  19.990  0.00  0.00    +0.000 NA
ATOM     15  C   UNL     1       0.569   3.965  20.173  0.00  0.00    +0.000 C 
BRANCH  14  17
ATOM     16  C   UNL     1       2.279   3.186  22.035  0.00  0.00    +0.000 C 
ATOM     17  C   UNL     1       1.881   2.097  21.045  0.00  0.00    +0.000 C 
ENDBRANCH  14  17
ENDBRANCH  13  14
ENDBRANCH   1  13
BRANCH  10  18
ATOM     18  C   UNL     1       7.757   8.063  17.242  0.00  0.00    +0.000 C 
BRANCH  18  19
ATOM     19  C   UNL     1       8.278   8.467  18.634  0.00  0.00    +0.000 C 
BRANCH  19  20
ATOM     20  C   UNL     1       8.774   9.892  18.650  0.00  0.00    +0.000 A 
ATOM     21  C   UNL     1       9.725  10.300  19.600  0.00  0.00    +0.000 A 
ATOM     22  C   UNL     1      10.180  11.614  19.624  0.00  0.00    +0.000 A 
ATOM     23  C   UNL     1       9.684  12.535  18.701  0.00  0.00    +0.000 A 
ATOM     24  C   UNL     1       8.737  12.141  17.758  0.00  0.00    +0.000 A 
ATOM     25  C   UNL     1       8.281  10.824  17.733  0.00  0.00    +0.000 A 
ENDBRANCH  19  20
ENDBRANCH  18  19
ENDBRANCH  10  18
TORSDOF 6
ENDMDL
MODEL 5
REMARK VINA RESULT:      -6.6      2.631      9.328
REMARK  Name = 
REMARK  8 active torsions:
REMARK  status: ('A' for Active; 'I' for Inactive)
REMARK    1  A    between atoms: C_1  and  C_2
REMARK    2  A    between atoms: C_2  and  N_3
REMARK    3  A    between atoms: N_3  and  C_4
REMARK    4  A    between atoms: N_3  and  C_5
REMARK    5  A    between atoms: C_5  and  C_6
REMARK    6  A    between atoms: N_15  and  C_16
REMARK    7  A    between atoms: C_16  and  C_17
REMARK    8  A    between atoms: C_17  and  C_18
REMARK                            x       y       z     vdW  Elec       q    Type
REMARK                         _______ _______ _______ _____ _____    ______ ____
ROOT
ATOM      1  C   UNL     1       0.495   9.700  18.957  0.00  0.00    +0.000 C 
ATOM      2  O   UNL     1       0.201  10.291  17.915  0.00  0.00    +0.000 OA
ATOM      3  N   UNL     1       1.429   8.685  18.983  0.00  0.00    +0.000 N 
ATOM      4  C   UNL     1       1.987   8.069  20.168  0.00  0.00    +0.000 C 
ATOM      5  C   UNL     1       2.803   6.884  19.676  0.00  0.00    +0.000 C 
ATOM      6  C   UNL     1       2.592   6.830  18.142  0.00  0.00    +0.000 C 
ATOM      7  C   UNL     1       1.527   5.786  17.755  0.00  0.00    +0.000 C 
ATOM      8  C   UNL     1       2.045   4.364  17.956  0.00  0.00    +0.000 C 
ATOM      9  C   UNL     1       3.400   4.158  17.273  0.00  0.00    +0.000 C 
ATOM     10  N   UNL     1       4.398   5.166  17.678  0.00  0.00    +0.000 NA
ATOM     11  C   UNL     1       3.900   6.523  17.402  0.00  0.00    +0.000 C 
ATOM     12  C   UNL     1       2.115   8.246  17.793  0.00  0.00    +0.000 C 
ENDROOT
BRANCH   1  13
ATOM     13  C   UNL     1      -0.240  10.007  20.269  0.00  0.00    +0.000 C 
BRANCH  13  14
ATOM     14  N   UNL     1      -0.401  11.461  20.514  0.00  0.00    +0.000 NA
ATOM     15  C   UNL     1       0.883  12.017  20.942  0.00  0.00    +0.000 C 
BRANCH  14  17
ATOM     16  C   UNL     1      -1.130  11.241  22.902  0.00  0.00    +0.000 C 
ATOM     17  C   UNL     1      -1.477  11.701  21.490  0.00  0.00    +0.000 C 
ENDBRANCH  14  17
ENDBRANCH  13  14
ENDBRANCH   1  13
BRANCH  10  18
ATOM     18  C   UNL     1       5.670   4.912  16.962  0.00  0.00    +0.000 C 
BRANCH  18  19
ATOM     19  C   UNL     1       5.623   3.702  16.010  0.00  0.00    +0.000 C 
BRANCH  19  20
ATOM     20  C   UNL     1       6.226   4.028  14.666  0.00  0.00    +0.000 A 
ATOM     21  C   UNL     1       7.240   4.994  14.560  0.00  0.00    +0.000 A 
ATOM     22  C   UNL     1       7.794   5.304  13.323  0.00  0.00    +0.000 A 
ATOM     23  C   UNL     1       7.335   4.654  12.177  0.00  0.00    +0.000 A 
ATOM     24  C   UNL     1       6.326   3.697  12.271  0.00  0.00    +0.000 A 
ATOM     25  C   UNL     1       5.771   3.386  13.511  0.00  0.00    +0.000 A 
ENDBRANCH  19  20
ENDBRANCH  18  19
ENDBRANCH  10  18
TORSDOF 6
ENDMDL
MODEL 6
REMARK VINA RESULT:      -6.6      4.494      7.319
REMARK  Name = 
REMARK  8 active torsions:
REMARK  status: ('A' for Active; 'I' for Inactive)
REMARK    1  A    between atoms: C_1  and  C_2
REMARK    2  A    between atoms: C_2  and  N_3
REMARK    3  A    between atoms: N_3  and  C_4
REMARK    4  A    between atoms: N_3  and  C_5
REMARK    5  A    between atoms: C_5  and  C_6
REMARK    6  A    between atoms: N_15  and  C_16
REMARK    7  A    between atoms: C_16  and  C_17
REMARK    8  A    between atoms: C_17  and  C_18
REMARK                            x       y       z     vdW  Elec       q    Type
REMARK                         _______ _______ _______ _____ _____    ______ ____
ROOT
ATOM      1  C   UNL     1       2.252   3.939  17.657  0.00  0.00    +0.000 C 
ATOM      2  O   UNL     1       2.320   3.290  16.612  0.00  0.00    +0.000 OA
ATOM      3  N   UNL     1       3.195   4.889  17.992  0.00  0.00    +0.000 N 
ATOM      4  C   UNL     1       3.104   5.836  19.083  0.00  0.00    +0.000 C 
ATOM      5  C   UNL     1       4.462   6.516  19.158  0.00  0.00    +0.000 C 
ATOM      6  C   UNL     1       5.344   5.823  18.089  0.00  0.00    +0.000 C 
ATOM      7  C   UNL     1       6.257   4.753  18.718  0.00  0.00    +0.000 C 
ATOM      8  C   UNL     1       7.372   5.391  19.544  0.00  0.00    +0.000 C 
ATOM      9  C   UNL     1       8.121   6.461  18.746  0.00  0.00    +0.000 C 
ATOM     10  N   UNL     1       7.218   7.476  18.171  0.00  0.00    +0.000 NA
ATOM     11  C   UNL     1       6.201   6.837  17.320  0.00  0.00    +0.000 C 
ATOM     12  C   UNL     1       4.324   5.177  17.142  0.00  0.00    +0.000 C 
ENDROOT
BRANCH   1  13
ATOM     13  C   UNL     1       1.154   3.652  18.691  0.00  0.00    +0.000 C 
BRANCH  13  14
ATOM     14  N   UNL     1       1.546   2.616  19.677  0.00  0.00    +0.000 NA
ATOM     15  C   UNL     1       1.569   3.213  21.012  0.00  0.00    +0.000 C 
BRANCH  14  17
ATOM     16  C   UNL     1       3.946   2.276  20.316  0.00  0.00    +0.000 C 
ATOM     17  C   UNL     1       2.836   2.012  19.303  0.00  0.00    +0.000 C 
ENDBRANCH  14  17
ENDBRANCH  13  14
ENDBRANCH   1  13
BRANCH  10  18
ATOM     18  C   UNL     1       8.012   8.460  17.400  0.00  0.00    +0.000 C 
BRANCH  18  19
ATOM     19  C   UNL     1       7.770   9.924  17.815  0.00  0.00    +0.000 C 
BRANCH  19  20
ATOM     20  C   UNL     1       9.000  10.535  18.439  0.00  0.00    +0.000 A 
ATOM     21  C   UNL     1       9.157  10.545  19.834  0.00  0.00    +0.000 A 
ATOM     22  C   UNL     1      10.286  11.114  20.414  0.00  0.00    +0.000 A 
ATOM     23  C   UNL     1      11.267  11.685  19.604  0.00  0.00    +0.000 A 
ATOM     24  C   UNL     1      11.119  11.684  18.218  0.00  0.00    +0.000 A 
ATOM     25  C   UNL     1       9.988  11.114  17.637  0.00  0.00    +0.000 A 
ENDBRANCH  19  20
ENDBRANCH  18  19
ENDBRANCH  10  18
TORSDOF 6
ENDMDL
MODEL 7
REMARK VINA RESULT:      -6.5      0.824      1.434
REMARK  Name = 
REMARK  8 active torsions:
REMARK  status: ('A' for Active; 'I' for Inactive)
REMARK    1  A    between atoms: C_1  and  C_2
REMARK    2  A    between atoms: C_2  and  N_3
REMARK    3  A    between atoms: N_3  and  C_4
REMARK    4  A    between atoms: N_3  and  C_5
REMARK    5  A    between atoms: C_5  and  C_6
REMARK    6  A    between atoms: N_15  and  C_16
REMARK    7  A    between atoms: C_16  and  C_17
REMARK    8  A    between atoms: C_17  and  C_18
REMARK                            x       y       z     vdW  Elec       q    Type
REMARK                         _______ _______ _______ _____ _____    ______ ____
ROOT
ATOM      1  C   UNL     1       6.466   4.603  16.416  0.00  0.00    +0.000 C 
ATOM      2  O   UNL     1       7.477   5.146  16.868  0.00  0.00    +0.000 OA
ATOM      3  N   UNL     1       5.238   4.713  17.034  0.00  0.00    +0.000 N 
ATOM      4  C   UNL     1       3.966   4.290  16.488  0.00  0.00    +0.000 C 
ATOM      5  C   UNL     1       2.959   4.435  17.618  0.00  0.00    +0.000 C 
ATOM      6  C   UNL     1       3.772   4.888  18.856  0.00  0.00    +0.000 C 
ATOM      7  C   UNL     1       4.090   3.702  19.787  0.00  0.00    +0.000 C 
ATOM      8  C   UNL     1       2.838   3.215  20.513  0.00  0.00    +0.000 C 
ATOM      9  C   UNL     1       2.101   4.368  21.198  0.00  0.00    +0.000 C 
ATOM     10  N   UNL     1       1.800   5.479  20.275  0.00  0.00    +0.000 NA
ATOM     11  C   UNL     1       3.037   5.976  19.649  0.00  0.00    +0.000 C 
ATOM     12  C   UNL     1       5.060   5.463  18.253  0.00  0.00    +0.000 C 
ENDROOT
BRANCH   1  13
ATOM     13  C   UNL     1       6.548   3.694  15.182  0.00  0.00    +0.000 C 
BRANCH  13  14
ATOM     14  N   UNL     1       6.425   4.441  13.905  0.00  0.00    +0.000 NA
ATOM     15  C   UNL     1       6.061   3.507  12.840  0.00  0.00    +0.000 C 
BRANCH  14  17
ATOM     16  C   UNL     1       7.838   5.528  12.143  0.00  0.00    +0.000 C 
ATOM     17  C   UNL     1       7.670   5.173  13.617  0.00  0.00    +0.000 C 
ENDBRANCH  14  17
ENDBRANCH  13  14
ENDBRANCH   1  13
BRANCH  10  18
ATOM     18  C   UNL     1       1.109   6.560  21.014  0.00  0.00    +0.000 C 
BRANCH  18  19
ATOM     19  C   UNL     1       1.850   7.910  20.989  0.00  0.00    +0.000 C 
BRANCH  19  20
ATOM     20  C   UNL     1       0.997   9.000  20.387  0.00  0.00    +0.000 A 
ATOM     21  C   UNL     1       1.112   9.319  19.024  0.00  0.00    +0.000 A 
ATOM     22  C   UNL     1       0.334  10.328  18.466  0.00  0.00    +0.000 A 
ATOM     23  C   UNL     1      -0.563  11.033  19.269  0.00  0.00    +0.000 A 
ATOM     24  C   UNL     1      -0.681  10.727  20.623  0.00  0.00    +0.000 A 
ATOM     25  C   UNL     1       0.097   9.716  21.182  0.00  0.00    +0.000 A 
ENDBRANCH  19  20
ENDBRANCH  18  19
ENDBRANCH  10  18
TORSDOF 6
ENDMDL
MODEL 8
REMARK VINA RESULT:      -6.5      4.258     10.356
REMARK  Name = 
REMARK  8 active torsions:
REMARK  status: ('A' for Active; 'I' for Inactive)
REMARK    1  A    between atoms: C_1  and  C_2
REMARK    2  A    between atoms: C_2  and  N_3
REMARK    3  A    between atoms: N_3  and  C_4
REMARK    4  A    between atoms: N_3  and  C_5
REMARK    5  A    between atoms: C_5  and  C_6
REMARK    6  A    between atoms: N_15  and  C_16
REMARK    7  A    between atoms: C_16  and  C_17
REMARK    8  A    between atoms: C_17  and  C_18
REMARK                            x       y       z     vdW  Elec       q    Type
REMARK                         _______ _______ _______ _____ _____    ______ ____
ROOT
ATOM      1  C   UNL     1      -2.825  12.513  19.754  0.00  0.00    +0.000 C 
ATOM      2  O   UNL     1      -3.814  11.986  19.240  0.00  0.00    +0.000 OA
ATOM      3  N   UNL     1      -1.570  11.945  19.676  0.00  0.00    +0.000 N 
ATOM      4  C   UNL     1      -0.324  12.570  20.066  0.00  0.00    +0.000 C 
ATOM      5  C   UNL     1       0.733  11.480  19.980  0.00  0.00    +0.000 C 
ATOM      6  C   UNL     1      -0.024  10.183  19.598  0.00  0.00    +0.000 C 
ATOM      7  C   UNL     1      -0.300   9.305  20.833  0.00  0.00    +0.000 C 
ATOM      8  C   UNL     1       0.983   8.665  21.357  0.00  0.00    +0.000 C 
ATOM      9  C   UNL     1       1.751   7.951  20.242  0.00  0.00    +0.000 C 
ATOM     10  N   UNL     1       2.010   8.824  19.081  0.00  0.00    +0.000 NA
ATOM     11  C   UNL     1       0.747   9.366  18.553  0.00  0.00    +0.000 C 
ATOM     12  C   UNL     1      -1.338  10.696  18.993  0.00  0.00    +0.000 C 
ENDROOT
BRANCH   1  13
ATOM     13  C   UNL     1      -2.962  13.790  20.594  0.00  0.00    +0.000 C 
BRANCH  13  14
ATOM     14  N   UNL     1      -3.308  13.515  22.011  0.00  0.00    +0.000 NA
ATOM     15  C   UNL     1      -4.750  13.684  22.190  0.00  0.00    +0.000 C 
BRANCH  14  17
ATOM     16  C   UNL     1      -1.279  13.691  23.471  0.00  0.00    +0.000 C 
ATOM     17  C   UNL     1      -2.520  14.376  22.909  0.00  0.00    +0.000 C 
ENDBRANCH  14  17
ENDBRANCH  13  14
ENDBRANCH   1  13
BRANCH  10  18
ATOM     18  C   UNL     1       2.734   8.058  18.041  0.00  0.00    +0.000 C 
BRANCH  18  19
ATOM     19  C   UNL     1       2.737   6.535  18.273  0.00  0.00    +0.000 C 
BRANCH  19  20
ATOM     20  C   UNL     1       3.769   5.845  17.416  0.00  0.00    +0.000 A 
ATOM     21  C   UNL     1       4.676   6.598  16.653  0.00  0.00    +0.000 A 
ATOM     22  C   UNL     1       5.625   5.967  15.856  0.00  0.00    +0.000 A 
ATOM     23  C   UNL     1       5.672   4.573  15.810  0.00  0.00    +0.000 A 
ATOM     24  C   UNL     1       4.773   3.816  16.560  0.00  0.00    +0.000 A 
ATOM     25  C   UNL     1       3.823   4.449  17.358  0.00  0.00    +0.000 A 
ENDBRANCH  19  20
ENDBRANCH  18  19
ENDBRANCH  10  18
TORSDOF 6
ENDMDL
MODEL 9
REMARK VINA RESULT:      -6.5      4.280      6.984
REMARK  Name = 
REMARK  8 active torsions:
REMARK  status: ('A' for Active; 'I' for Inactive)
REMARK    1  A    between atoms: C_1  and  C_2
REMARK    2  A    between atoms: C_2  and  N_3
REMARK    3  A    between atoms: N_3  and  C_4
REMARK    4  A    between atoms: N_3  and  C_5
REMARK    5  A    between atoms: C_5  and  C_6
REMARK    6  A    between atoms: N_15  and  C_16
REMARK    7  A    between atoms: C_16  and  C_17
REMARK    8  A    between atoms: C_17  and  C_18
REMARK                            x       y       z     vdW  Elec       q    Type
REMARK                         _______ _______ _______ _____ _____    ______ ____
ROOT
ATOM      1  C   UNL     1       2.048   6.659  19.607  0.00  0.00    +0.000 C 
ATOM      2  O   UNL     1       1.772   6.256  20.739  0.00  0.00    +0.000 OA
ATOM      3  N   UNL     1       1.885   7.979  19.240  0.00  0.00    +0.000 N 
ATOM      4  C   UNL     1       2.361   8.590  18.017  0.00  0.00    +0.000 C 
ATOM      5  C   UNL     1       1.762   9.988  17.990  0.00  0.00    +0.000 C 
ATOM      6  C   UNL     1       0.851  10.084  19.240  0.00  0.00    +0.000 C 
ATOM      7  C   UNL     1      -0.627   9.844  18.881  0.00  0.00    +0.000 C 
ATOM      8  C   UNL     1      -1.206  11.018  18.096  0.00  0.00    +0.000 C 
ATOM      9  C   UNL     1      -0.943  12.351  18.802  0.00  0.00    +0.000 C 
ATOM     10  N   UNL     1       0.484  12.553  19.118  0.00  0.00    +0.000 NA
ATOM     11  C   UNL     1       0.993  11.442  19.939  0.00  0.00    +0.000 C 
ATOM     12  C   UNL     1       1.374   8.969  20.155  0.00  0.00    +0.000 C 
ENDROOT
BRANCH   1  13
ATOM     13  C   UNL     1       2.503   5.682  18.514  0.00  0.00    +0.000 C 
BRANCH  13  14
ATOM     14  N   UNL     1       3.718   4.918  18.892  0.00  0.00    +0.000 NA
ATOM     15  C   UNL     1       4.892   5.580  18.324  0.00  0.00    +0.000 C 
BRANCH  14  17
ATOM     16  C   UNL     1       2.753   3.334  17.206  0.00  0.00    +0.000 C 
ATOM     17  C   UNL     1       3.595   3.514  18.465  0.00  0.00    +0.000 C 
ENDBRANCH  14  17
ENDBRANCH  13  14
ENDBRANCH   1  13
BRANCH  10  18
ATOM     18  C   UNL     1       0.654  13.849  19.816  0.00  0.00    +0.000 C 
BRANCH  18  19
ATOM     19  C   UNL     1      -0.416  14.898  19.458  0.00  0.00    +0.000 C 
BRANCH  19  20
ATOM     20  C   UNL     1       0.167  16.033  18.653  0.00  0.00    +0.000 A 
ATOM     21  C   UNL     1       1.557  16.146  18.490  0.00  0.00    +0.000 A 
ATOM     22  C   UNL     1       2.100  17.195  17.756  0.00  0.00    +0.000 A 
ATOM     23  C   UNL     1       1.256  18.146  17.181  0.00  0.00    +0.000 A 
ATOM     24  C   UNL     1      -0.124  18.046  17.341  0.00  0.00    +0.000 A 
ATOM     25  C   UNL     1      -0.668  16.995  18.076  0.00  0.00    +0.000 A 
ENDBRANCH  19  20
ENDBRANCH  18  19
ENDBRANCH  10  18
TORSDOF 6
ENDMDL
