MODEL 1
REMARK VINA RESULT:      -7.8      0.000      0.000
REMARK  Name = 
REMARK  7 active torsions:
REMARK  status: ('A' for Active; 'I' for Inactive)
REMARK    1  A    between atoms: C_1  and  C_2
REMARK    2  A    between atoms: C_2  and  N_3
REMARK    3  A    between atoms: N_3  and  C_4
REMARK    4  A    between atoms: C_4  and  C_5
REMARK    5  A    between atoms: P_14  and  N_16
REMARK    6  A    between atoms: N_16  and  C_17
REMARK    7  A    between atoms: C_17  and  C_18
REMARK                            x       y       z     vdW  Elec       q    Type
REMARK                         _______ _______ _______ _____ _____    ______ ____
ROOT
ATOM      1  C   UNL     1       3.586   7.054  17.766  0.00  0.00    +0.000 C 
ATOM      2  C   UNL     1       2.916   6.119  18.805  0.00  0.00    +0.000 C 
ATOM      3  C   UNL     1       2.120   5.003  18.093  0.00  0.00    +0.000 C 
ATOM      4  O   UNL     1       2.938   4.192  17.284  0.00  0.00    +0.000 OA
ATOM      5  P   UNL     1       4.295   3.551  17.861  0.00  0.00    +0.000 P 
ATOM      6  O   UNL     1       4.056   2.303  18.654  0.00  0.00    +0.000 OA
ATOM      7  O   UNL     1       4.912   4.745  18.754  0.00  0.00    +0.000 OA
ATOM      8  C   UNL     1       4.024   5.429  19.631  0.00  0.00    +0.000 C 
ENDROOT
BRANCH   2   9
ATOM      9  N   UNL     1       2.055   7.024  19.571  0.00  0.00    +0.000 NA
ATOM     10  H   UNL     1       2.385   7.074  20.537  0.00  0.00    +0.000 HD
BRANCH   9  11
ATOM     11  C   UNL     1       1.866   8.380  19.080  0.00  0.00    +0.000 C 
BRANCH  11  12
ATOM     12  C   UNL     1       1.122   9.143  20.153  0.00  0.00    +0.000 A 
ATOM     13  C   UNL     1       0.912   8.570  21.418  0.00  0.00    +0.000 A 
ATOM     14  C   UNL     1       0.101   9.213  22.357  0.00  0.00    +0.000 A 
ATOM     15  C   UNL     1      -0.506  10.427  22.033  0.00  0.00    +0.000 A 
ATOM     16 CL   UNL     1      -1.533  11.199  23.174  0.00  0.00    +0.000 Cl
ATOM     17  C   UNL     1      -0.303  11.003  20.781  0.00  0.00    +0.000 A 
ATOM     18  C   UNL     1       0.505  10.363  19.841  0.00  0.00    +0.000 A 
ENDBRANCH  11  12
ENDBRANCH   9  11
ENDBRANCH   2   9
BRANCH   5  19
ATOM     19  N   UNL     1       5.139   3.447  16.475  0.00  0.00    +0.000 NA
ATOM     20  H   UNL     1       4.457   3.203  15.763  0.00  0.00    +0.000 HD
BRANCH  19  21
ATOM     21  C   UNL     1       5.880   4.595  15.987  0.00  0.00    +0.000 C 
BRANCH  21  22
ATOM     22  C   UNL     1       6.333   4.441  14.550  0.00  0.00    +0.000 A 
ATOM     23  C   UNL     1       5.653   3.555  13.697  0.00  0.00    +0.000 A 
ATOM     24  C   UNL     1       6.026   3.425  12.358  0.00  0.00    +0.000 A 
ATOM     25  C   UNL     1       7.082   4.179  11.853  0.00  0.00    +0.000 A 
ATOM     26  C   UNL     1       7.764   5.063  12.685  0.00  0.00    +0.000 A 
ATOM     27  C   UNL     1       7.389   5.199  14.022  0.00  0.00    +0.000 A 
ENDBRANCH  21  22
ENDBRANCH  19  21
ENDBRANCH   5  19
TORSDOF 6
ENDMDL
MODEL 2
REMARK VINA RESULT:      -7.8      1.953      2.711
REMARK  Name = 
REMARK  7 active torsions:
REMARK  status: ('A' for Active; 'I' for Inactive)
REMARK    1  A    between atoms: C_1  and  C_2
REMARK    2  A    between atoms: C_2  and  N_3
REMARK    3  A    between atoms: N_3  and  C_4
REMARK    4  A    between atoms: C_4  and  C_5
REMARK    5  A    between atoms: P_14  and  N_16
REMARK    6  A    between atoms: N_16  and  C_17
REMARK    7  A    between atoms: C_17  and  C_18
REMARK                            x       y       z     vdW  Elec       q    Type
REMARK                         _______ _______ _______ _____ _____    ______ ____
ROOT
ATOM      1  C   UNL     1       4.162   6.374  19.449  0.00  0.00    +0.000 C 
ATOM      2  C   UNL     1       2.730   5.783  19.505  0.00  0.00    +0.000 C 
ATOM      3  C   UNL     1       2.198   5.519  18.079  0.00  0.00    +0.000 C 
ATOM      4  O   UNL     1       2.991   4.596  17.373  0.00  0.00    +0.000 OA
ATOM      5  P   UNL     1       3.396   3.184  18.027  0.00  0.00    +0.000 P 
ATOM      6  O   UNL     1       2.313   2.156  17.907  0.00  0.00    +0.000 OA
ATOM      7  O   UNL     1       3.717   3.571  19.561  0.00  0.00    +0.000 OA
ATOM      8  C   UNL     1       2.788   4.420  20.227  0.00  0.00    +0.000 C 
ENDROOT
BRANCH   2   9
ATOM      9  N   UNL     1       1.964   6.817  20.208  0.00  0.00    +0.000 NA
ATOM     10  H   UNL     1       2.371   6.972  21.133  0.00  0.00    +0.000 HD
BRANCH   9  11
ATOM     11  C   UNL     1       1.788   8.107  19.561  0.00  0.00    +0.000 C 
BRANCH  11  12
ATOM     12  C   UNL     1       1.030   8.990  20.529  0.00  0.00    +0.000 A 
ATOM     13  C   UNL     1       0.905   8.624  21.879  0.00  0.00    +0.000 A 
ATOM     14  C   UNL     1       0.084   9.362  22.736  0.00  0.00    +0.000 A 
ATOM     15  C   UNL     1      -0.616  10.464  22.245  0.00  0.00    +0.000 A 
ATOM     16 CL   UNL     1      -1.654  11.349  23.290  0.00  0.00    +0.000 Cl
ATOM     17  C   UNL     1      -0.498  10.835  20.908  0.00  0.00    +0.000 A 
ATOM     18  C   UNL     1       0.319  10.099  20.049  0.00  0.00    +0.000 A 
ENDBRANCH  11  12
ENDBRANCH   9  11
ENDBRANCH   2   9
BRANCH   5  19
ATOM     19  N   UNL     1       4.801   2.933  17.248  0.00  0.00    +0.000 NA
ATOM     20  H   UNL     1       4.662   2.083  16.711  0.00  0.00    +0.000 HD
BRANCH  19  21
ATOM     21  C   UNL     1       5.318   3.938  16.339  0.00  0.00    +0.000 C 
BRANCH  21  22
ATOM     22  C   UNL     1       6.234   4.936  17.016  0.00  0.00    +0.000 A 
ATOM     23  C   UNL     1       6.269   6.266  16.563  0.00  0.00    +0.000 A 
ATOM     24  C   UNL     1       7.074   7.215  17.194  0.00  0.00    +0.000 A 
ATOM     25  C   UNL     1       7.854   6.849  18.288  0.00  0.00    +0.000 A 
ATOM     26  C   UNL     1       7.829   5.536  18.750  0.00  0.00    +0.000 A 
ATOM     27  C   UNL     1       7.020   4.587  18.124  0.00  0.00    +0.000 A 
ENDBRANCH  21  22
ENDBRANCH  19  21
ENDBRANCH   5  19
TORSDOF 6
ENDMDL
MODEL 3
REMARK VINA RESULT:      -7.7      5.018      7.367
REMARK  Name = 
REMARK  7 active torsions:
REMARK  status: ('A' for Active; 'I' for Inactive)
REMARK    1  A    between atoms: C_1  and  C_2
REMARK    2  A    between atoms: C_2  and  N_3
REMARK    3  A    between atoms: N_3  and  C_4
REMARK    4  A    between atoms: C_4  and  C_5
REMARK    5  A    between atoms: P_14  and  N_16
REMARK    6  A    between atoms: N_16  and  C_17
REMARK    7  A    between atoms: C_17  and  C_18
REMARK                            x       y       z     vdW  Elec       q    Type
REMARK                         _______ _______ _______ _____ _____    ______ ____
ROOT
ATOM      1  C   UNL     1       7.392   5.800  19.420  0.00  0.00    +0.000 C 
ATOM      2  C   UNL     1       7.242   6.448  18.019  0.00  0.00    +0.000 C 
ATOM      3  C   UNL     1       7.629   5.440  16.915  0.00  0.00    +0.000 C 
ATOM      4  O   UNL     1       6.811   4.295  16.922  0.00  0.00    +0.000 OA
ATOM      5  P   UNL     1       5.209   4.424  16.946  0.00  0.00    +0.000 P 
ATOM      6  O   UNL     1       4.626   4.677  15.588  0.00  0.00    +0.000 OA
ATOM      7  O   UNL     1       4.955   5.646  17.968  0.00  0.00    +0.000 OA
ATOM      8  C   UNL     1       5.757   6.811  17.802  0.00  0.00    +0.000 C 
ENDROOT
BRANCH   2   9
ATOM      9  N   UNL     1       8.152   7.596  18.077  0.00  0.00    +0.000 NA
ATOM     10  H   UNL     1       9.013   7.374  17.573  0.00  0.00    +0.000 HD
BRANCH   9  11
ATOM     11  C   UNL     1       7.668   8.887  17.615  0.00  0.00    +0.000 C 
BRANCH  11  12
ATOM     12  C   UNL     1       8.550   9.943  18.242  0.00  0.00    +0.000 A 
ATOM     13  C   UNL     1       9.168   9.712  19.482  0.00  0.00    +0.000 A 
ATOM     14  C   UNL     1       9.861  10.740  20.126  0.00  0.00    +0.000 A 
ATOM     15  C   UNL     1       9.935  12.002  19.536  0.00  0.00    +0.000 A 
ATOM     16 CL   UNL     1      10.756  13.276  20.346  0.00  0.00    +0.000 Cl
ATOM     17  C   UNL     1       9.327  12.240  18.306  0.00  0.00    +0.000 A 
ATOM     18  C   UNL     1       8.632  11.217  17.661  0.00  0.00    +0.000 A 
ENDBRANCH  11  12
ENDBRANCH   9  11
ENDBRANCH   2   9
BRANCH   5  19
ATOM     19  N   UNL     1       4.850   3.030  17.702  0.00  0.00    +0.000 NA
ATOM     20  H   UNL     1       5.111   3.176  18.672  0.00  0.00    +0.000 HD
BRANCH  19  21
ATOM     21  C   UNL     1       3.490   2.526  17.692  0.00  0.00    +0.000 C 
BRANCH  21  22
ATOM     22  C   UNL     1       2.756   2.772  18.994  0.00  0.00    +0.000 A 
ATOM     23  C   UNL     1       1.428   3.229  18.968  0.00  0.00    +0.000 A 
ATOM     24  C   UNL     1       0.716   3.426  20.152  0.00  0.00    +0.000 A 
ATOM     25  C   UNL     1       1.321   3.166  21.379  0.00  0.00    +0.000 A 
ATOM     26  C   UNL     1       2.636   2.710  21.422  0.00  0.00    +0.000 A 
ATOM     27  C   UNL     1       3.348   2.507  20.239  0.00  0.00    +0.000 A 
ENDBRANCH  21  22
ENDBRANCH  19  21
ENDBRANCH   5  19
TORSDOF 6
ENDMDL
MODEL 4
REMARK VINA RESULT:      -7.6      1.170      2.024
REMARK  Name = 
REMARK  7 active torsions:
REMARK  status: ('A' for Active; 'I' for Inactive)
REMARK    1  A    between atoms: C_1  and  C_2
REMARK    2  A    between atoms: C_2  and  N_3
REMARK    3  A    between atoms: N_3  and  C_4
REMARK    4  A    between atoms: C_4  and  C_5
REMARK    5  A    between atoms: P_14  and  N_16
REMARK    6  A    between atoms: N_16  and  C_17
REMARK    7  A    between atoms: C_17  and  C_18
REMARK                            x       y       z     vdW  Elec       q    Type
REMARK                         _______ _______ _______ _____ _____    ______ ____
ROOT
ATOM      1  C   UNL     1       2.702   5.035  17.799  0.00  0.00    +0.000 C 
ATOM      2  C   UNL     1       3.422   6.205  18.516  0.00  0.00    +0.000 C 
ATOM      3  C   UNL     1       4.495   5.665  19.487  0.00  0.00    +0.000 C 
ATOM      4  O   UNL     1       5.489   4.919  18.828  0.00  0.00    +0.000 OA
ATOM      5  P   UNL     1       6.236   5.503  17.529  0.00  0.00    +0.000 P 
ATOM      6  O   UNL     1       7.348   6.446  17.874  0.00  0.00    +0.000 OA
ATOM      7  O   UNL     1       5.043   6.222  16.714  0.00  0.00    +0.000 OA
ATOM      8  C   UNL     1       4.156   7.054  17.456  0.00  0.00    +0.000 C 
ENDROOT
BRANCH   2   9
ATOM      9  N   UNL     1       2.333   6.899  19.210  0.00  0.00    +0.000 NA
ATOM     10  H   UNL     1       2.499   6.870  20.219  0.00  0.00    +0.000 HD
BRANCH   9  11
ATOM     11  C   UNL     1       2.035   8.271  18.832  0.00  0.00    +0.000 C 
BRANCH  11  12
ATOM     12  C   UNL     1       1.129   8.840  19.902  0.00  0.00    +0.000 A 
ATOM     13  C   UNL     1       0.312   9.949  19.628  0.00  0.00    +0.000 A 
ATOM     14  C   UNL     1      -0.412  10.562  20.654  0.00  0.00    +0.000 A 
ATOM     15  C   UNL     1      -0.318  10.071  21.957  0.00  0.00    +0.000 A 
ATOM     16 CL   UNL     1      -1.179  10.847  23.225  0.00  0.00    +0.000 Cl
ATOM     17  C   UNL     1       0.489   8.971  22.238  0.00  0.00    +0.000 A 
ATOM     18  C   UNL     1       1.215   8.358  21.216  0.00  0.00    +0.000 A 
ENDBRANCH  11  12
ENDBRANCH   9  11
ENDBRANCH   2   9
BRANCH   5  19
ATOM     19  N   UNL     1       6.600   4.101  16.790  0.00  0.00    +0.000 NA
ATOM     20  H   UNL     1       6.572   3.398  17.520  0.00  0.00    +0.000 HD
BRANCH  19  21
ATOM     21  C   UNL     1       5.779   3.622  15.695  0.00  0.00    +0.000 C 
BRANCH  21  22
ATOM     22  C   UNL     1       6.359   3.939  14.333  0.00  0.00    +0.000 A 
ATOM     23  C   UNL     1       5.845   3.298  13.192  0.00  0.00    +0.000 A 
ATOM     24  C   UNL     1       6.335   3.602  11.921  0.00  0.00    +0.000 A 
ATOM     25  C   UNL     1       7.343   4.551  11.772  0.00  0.00    +0.000 A 
ATOM     26  C   UNL     1       7.861   5.196  12.893  0.00  0.00    +0.000 A 
ATOM     27  C   UNL     1       7.369   4.898  14.164  0.00  0.00    +0.000 A 
ENDBRANCH  21  22
ENDBRANCH  19  21
ENDBRANCH   5  19
TORSDOF 6
ENDMDL
MODEL 5
REMARK VINA RESULT:      -7.6      5.182      7.566
REMARK  Name = 
REMARK  7 active torsions:
REMARK  status: ('A' for Active; 'I' for Inactive)
REMARK    1  A    between atoms: C_1  and  C_2
REMARK    2  A    between atoms: C_2  and  N_3
REMARK    3  A    between atoms: N_3  and  C_4
REMARK    4  A    between atoms: C_4  and  C_5
REMARK    5  A    between atoms: P_14  and  N_16
REMARK    6  A    between atoms: N_16  and  C_17
REMARK    7  A    between atoms: C_17  and  C_18
REMARK                            x       y       z     vdW  Elec       q    Type
REMARK                         _______ _______ _______ _____ _____    ______ ____
ROOT
ATOM      1  C   UNL     1       7.259   5.846  19.457  0.00  0.00    +0.000 C 
ATOM      2  C   UNL     1       7.294   6.436  18.024  0.00  0.00    +0.000 C 
ATOM      3  C   UNL     1       7.746   5.363  17.010  0.00  0.00    +0.000 C 
ATOM      4  O   UNL     1       6.874   4.258  16.973  0.00  0.00    +0.000 OA
ATOM      5  P   UNL     1       5.288   4.462  16.815  0.00  0.00    +0.000 P 
ATOM      6  O   UNL     1       4.869   4.681  15.393  0.00  0.00    +0.000 OA
ATOM      7  O   UNL     1       4.988   5.740  17.754  0.00  0.00    +0.000 OA
ATOM      8  C   UNL     1       5.862   6.858  17.631  0.00  0.00    +0.000 C 
ENDROOT
BRANCH   2   9
ATOM      9  N   UNL     1       8.250   7.542  18.137  0.00  0.00    +0.000 NA
ATOM     10  H   UNL     1       9.062   7.352  17.545  0.00  0.00    +0.000 HD
BRANCH   9  11
ATOM     11  C   UNL     1       7.783   8.891  17.858  0.00  0.00    +0.000 C 
BRANCH  11  12
ATOM     12  C   UNL     1       8.819   9.843  18.414  0.00  0.00    +0.000 A 
ATOM     13  C   UNL     1       9.005   9.964  19.800  0.00  0.00    +0.000 A 
ATOM     14  C   UNL     1       9.855  10.947  20.314  0.00  0.00    +0.000 A 
ATOM     15  C   UNL     1      10.518  11.813  19.445  0.00  0.00    +0.000 A 
ATOM     16 CL   UNL     1      11.535  13.045  20.079  0.00  0.00    +0.000 Cl
ATOM     17  C   UNL     1      10.341  11.700  18.068  0.00  0.00    +0.000 A 
ATOM     18  C   UNL     1       9.491  10.721  17.552  0.00  0.00    +0.000 A 
ENDBRANCH  11  12
ENDBRANCH   9  11
ENDBRANCH   2   9
BRANCH   5  19
ATOM     19  N   UNL     1       4.778   3.122  17.582  0.00  0.00    +0.000 NA
ATOM     20  H   UNL     1       5.031   3.258  18.556  0.00  0.00    +0.000 HD
BRANCH  19  21
ATOM     21  C   UNL     1       3.376   2.753  17.547  0.00  0.00    +0.000 C 
BRANCH  21  22
ATOM     22  C   UNL     1       2.683   2.924  18.883  0.00  0.00    +0.000 A 
ATOM     23  C   UNL     1       3.335   2.519  20.061  0.00  0.00    +0.000 A 
ATOM     24  C   UNL     1       2.735   2.703  21.308  0.00  0.00    +0.000 A 
ATOM     25  C   UNL     1       1.478   3.294  21.395  0.00  0.00    +0.000 A 
ATOM     26  C   UNL     1       0.820   3.703  20.237  0.00  0.00    +0.000 A 
ATOM     27  C   UNL     1       1.421   3.526  18.990  0.00  0.00    +0.000 A 
ENDBRANCH  21  22
ENDBRANCH  19  21
ENDBRANCH   5  19
TORSDOF 6
ENDMDL
MODEL 6
REMARK VINA RESULT:      -7.5      0.609      1.167
REMARK  Name = 
REMARK  7 active torsions:
REMARK  status: ('A' for Active; 'I' for Inactive)
REMARK    1  A    between atoms: C_1  and  C_2
REMARK    2  A    between atoms: C_2  and  N_3
REMARK    3  A    between atoms: N_3  and  C_4
REMARK    4  A    between atoms: C_4  and  C_5
REMARK    5  A    between atoms: P_14  and  N_16
REMARK    6  A    between atoms: N_16  and  C_17
REMARK    7  A    between atoms: C_17  and  C_18
REMARK                            x       y       z     vdW  Elec       q    Type
REMARK                         _______ _______ _______ _____ _____    ______ ____
ROOT
ATOM      1  C   UNL     1       3.817   7.232  17.532  0.00  0.00    +0.000 C 
ATOM      2  C   UNL     1       3.007   6.415  18.571  0.00  0.00    +0.000 C 
ATOM      3  C   UNL     1       2.226   5.279  17.875  0.00  0.00    +0.000 C 
ATOM      4  O   UNL     1       3.073   4.370  17.215  0.00  0.00    +0.000 OA
ATOM      5  P   UNL     1       4.336   3.721  17.969  0.00  0.00    +0.000 P 
ATOM      6  O   UNL     1       3.961   2.554  18.831  0.00  0.00    +0.000 OA
ATOM      7  O   UNL     1       4.927   4.957  18.822  0.00  0.00    +0.000 OA
ATOM      8  C   UNL     1       3.996   5.749  19.553  0.00  0.00    +0.000 C 
ENDROOT
BRANCH   2   9
ATOM      9  N   UNL     1       2.124   7.417  19.176  0.00  0.00    +0.000 NA
ATOM     10  H   UNL     1       1.248   7.461  18.651  0.00  0.00    +0.000 HD
BRANCH   9  11
ATOM     11  C   UNL     1       1.807   7.296  20.590  0.00  0.00    +0.000 C 
BRANCH  11  12
ATOM     12  C   UNL     1       1.087   8.563  20.994  0.00  0.00    +0.000 A 
ATOM     13  C   UNL     1       0.735   8.788  22.335  0.00  0.00    +0.000 A 
ATOM     14  C   UNL     1      -0.056   9.885  22.682  0.00  0.00    +0.000 A 
ATOM     15  C   UNL     1      -0.502  10.759  21.690  0.00  0.00    +0.000 A 
ATOM     16 CL   UNL     1      -1.507  12.088  22.113  0.00  0.00    +0.000 Cl
ATOM     17  C   UNL     1      -0.158  10.546  20.358  0.00  0.00    +0.000 A 
ATOM     18  C   UNL     1       0.631   9.450  20.007  0.00  0.00    +0.000 A 
ENDBRANCH  11  12
ENDBRANCH   9  11
ENDBRANCH   2   9
BRANCH   5  19
ATOM     19  N   UNL     1       5.300   3.467  16.685  0.00  0.00    +0.000 NA
ATOM     20  H   UNL     1       4.679   3.175  15.937  0.00  0.00    +0.000 HD
BRANCH  19  21
ATOM     21  C   UNL     1       6.122   4.544  16.168  0.00  0.00    +0.000 C 
BRANCH  21  22
ATOM     22  C   UNL     1       6.392   4.424  14.682  0.00  0.00    +0.000 A 
ATOM     23  C   UNL     1       7.448   5.153  14.107  0.00  0.00    +0.000 A 
ATOM     24  C   UNL     1       7.744   5.030  12.748  0.00  0.00    +0.000 A 
ATOM     25  C   UNL     1       6.990   4.177  11.947  0.00  0.00    +0.000 A 
ATOM     26  C   UNL     1       5.943   3.446  12.502  0.00  0.00    +0.000 A 
ATOM     27  C   UNL     1       5.649   3.563  13.862  0.00  0.00    +0.000 A 
ENDBRANCH  21  22
ENDBRANCH  19  21
ENDBRANCH   5  19
TORSDOF 6
ENDMDL
MODEL 7
REMARK VINA RESULT:      -7.5      1.947      2.922
REMARK  Name = 
REMARK  7 active torsions:
REMARK  status: ('A' for Active; 'I' for Inactive)
REMARK    1  A    between atoms: C_1  and  C_2
REMARK    2  A    between atoms: C_2  and  N_3
REMARK    3  A    between atoms: N_3  and  C_4
REMARK    4  A    between atoms: C_4  and  C_5
REMARK    5  A    between atoms: P_14  and  N_16
REMARK    6  A    between atoms: N_16  and  C_17
REMARK    7  A    between atoms: C_17  and  C_18
REMARK                            x       y       z     vdW  Elec       q    Type
REMARK                         _______ _______ _______ _____ _____    ______ ____
ROOT
ATOM      1  C   UNL     1       3.617   4.426  17.946  0.00  0.00    +0.000 C 
ATOM      2  C   UNL     1       4.513   5.567  18.493  0.00  0.00    +0.000 C 
ATOM      3  C   UNL     1       5.944   5.049  18.759  0.00  0.00    +0.000 C 
ATOM      4  O   UNL     1       6.566   4.569  17.592  0.00  0.00    +0.000 OA
ATOM      5  P   UNL     1       6.593   5.449  16.247  0.00  0.00    +0.000 P 
ATOM      6  O   UNL     1       7.678   6.482  16.250  0.00  0.00    +0.000 OA
ATOM      7  O   UNL     1       5.116   6.099  16.207  0.00  0.00    +0.000 OA
ATOM      8  C   UNL     1       4.621   6.668  17.415  0.00  0.00    +0.000 C 
ENDROOT
BRANCH   2   9
ATOM      9  N   UNL     1       3.826   5.977  19.721  0.00  0.00    +0.000 NA
ATOM     10  H   UNL     1       4.142   6.911  19.993  0.00  0.00    +0.000 HD
BRANCH   9  11
ATOM     11  C   UNL     1       2.372   5.962  19.739  0.00  0.00    +0.000 C 
BRANCH  11  12
ATOM     12  C   UNL     1       1.913   7.397  19.876  0.00  0.00    +0.000 A 
ATOM     13  C   UNL     1       1.374   7.860  21.087  0.00  0.00    +0.000 A 
ATOM     14  C   UNL     1       0.818   9.139  21.168  0.00  0.00    +0.000 A 
ATOM     15  C   UNL     1       0.795   9.957  20.037  0.00  0.00    +0.000 A 
ATOM     16 CL   UNL     1       0.078  11.516  20.127  0.00  0.00    +0.000 Cl
ATOM     17  C   UNL     1       1.329   9.507  18.832  0.00  0.00    +0.000 A 
ATOM     18  C   UNL     1       1.883   8.229  18.748  0.00  0.00    +0.000 A 
ENDBRANCH  11  12
ENDBRANCH   9  11
ENDBRANCH   2   9
BRANCH   5  19
ATOM     19  N   UNL     1       6.661   4.246  15.154  0.00  0.00    +0.000 NA
ATOM     20  H   UNL     1       5.726   3.852  15.130  0.00  0.00    +0.000 HD
BRANCH  19  21
ATOM     21  C   UNL     1       7.047   4.529  13.785  0.00  0.00    +0.000 C 
BRANCH  21  22
ATOM     22  C   UNL     1       6.261   3.727  12.769  0.00  0.00    +0.000 A 
ATOM     23  C   UNL     1       6.882   2.660  12.096  0.00  0.00    +0.000 A 
ATOM     24  C   UNL     1       6.169   1.879  11.184  0.00  0.00    +0.000 A 
ATOM     25  C   UNL     1       4.827   2.153  10.934  0.00  0.00    +0.000 A 
ATOM     26  C   UNL     1       4.197   3.205  11.595  0.00  0.00    +0.000 A 
ATOM     27  C   UNL     1       4.906   3.982  12.511  0.00  0.00    +0.000 A 
ENDBRANCH  21  22
ENDBRANCH  19  21
ENDBRANCH   5  19
TORSDOF 6
ENDMDL
MODEL 8
REMARK VINA RESULT:      -7.5      1.038      1.881
REMARK  Name = 
REMARK  7 active torsions:
REMARK  status: ('A' for Active; 'I' for Inactive)
REMARK    1  A    between atoms: C_1  and  C_2
REMARK    2  A    between atoms: C_2  and  N_3
REMARK    3  A    between atoms: N_3  and  C_4
REMARK    4  A    between atoms: C_4  and  C_5
REMARK    5  A    between atoms: P_14  and  N_16
REMARK    6  A    between atoms: N_16  and  C_17
REMARK    7  A    between atoms: C_17  and  C_18
REMARK                            x       y       z     vdW  Elec       q    Type
REMARK                         _______ _______ _______ _____ _____    ______ ____
ROOT
ATOM      1  C   UNL     1       2.476   5.460  17.743  0.00  0.00    +0.000 C 
ATOM      2  C   UNL     1       3.311   6.357  18.692  0.00  0.00    +0.000 C 
ATOM      3  C   UNL     1       4.207   5.490  19.603  0.00  0.00    +0.000 C 
ATOM      4  O   UNL     1       5.122   4.709  18.872  0.00  0.00    +0.000 OA
ATOM      5  P   UNL     1       6.050   5.370  17.737  0.00  0.00    +0.000 P 
ATOM      6  O   UNL     1       7.265   6.042  18.299  0.00  0.00    +0.000 OA
ATOM      7  O   UNL     1       5.051   6.404  17.005  0.00  0.00    +0.000 OA
ATOM      8  C   UNL     1       4.250   7.237  17.837  0.00  0.00    +0.000 C 
ENDROOT
BRANCH   2   9
ATOM      9  N   UNL     1       2.293   7.097  19.443  0.00  0.00    +0.000 NA
ATOM     10  H   UNL     1       2.613   7.237  20.404  0.00  0.00    +0.000 HD
BRANCH   9  11
ATOM     11  C   UNL     1       1.839   8.375  18.918  0.00  0.00    +0.000 C 
BRANCH  11  12
ATOM     12  C   UNL     1       1.133   9.093  20.047  0.00  0.00    +0.000 A 
ATOM     13  C   UNL     1       1.245   8.629  21.368  0.00  0.00    +0.000 A 
ATOM     14  C   UNL     1       0.478   9.204  22.384  0.00  0.00    +0.000 A 
ATOM     15  C   UNL     1      -0.406  10.240  22.083  0.00  0.00    +0.000 A 
ATOM     16 CL   UNL     1      -1.377  10.922  23.327  0.00  0.00    +0.000 Cl
ATOM     17  C   UNL     1      -0.523  10.708  20.777  0.00  0.00    +0.000 A 
ATOM     18  C   UNL     1       0.240  10.135  19.759  0.00  0.00    +0.000 A 
ENDBRANCH  11  12
ENDBRANCH   9  11
ENDBRANCH   2   9
BRANCH   5  19
ATOM     19  N   UNL     1       6.248   4.071  16.780  0.00  0.00    +0.000 NA
ATOM     20  H   UNL     1       6.158   3.268  17.394  0.00  0.00    +0.000 HD
BRANCH  19  21
ATOM     21  C   UNL     1       5.359   3.855  15.654  0.00  0.00    +0.000 C 
BRANCH  21  22
ATOM     22  C   UNL     1       6.031   4.078  14.315  0.00  0.00    +0.000 A 
ATOM     23  C   UNL     1       7.095   4.991  14.215  0.00  0.00    +0.000 A 
ATOM     24  C   UNL     1       7.757   5.186  13.002  0.00  0.00    +0.000 A 
ATOM     25  C   UNL     1       7.368   4.469  11.873  0.00  0.00    +0.000 A 
ATOM     26  C   UNL     1       6.317   3.558  11.957  0.00  0.00    +0.000 A 
ATOM     27  C   UNL     1       5.658   3.358  13.170  0.00  0.00    +0.000 A 
ENDBRANCH  21  22
ENDBRANCH  19  21
ENDBRANCH   5  19
TORSDOF 6
ENDMDL
MODEL 9
REMARK VINA RESULT:      -7.4      2.034      2.980
REMARK  Name = 
REMARK  7 active torsions:
REMARK  status: ('A' for Active; 'I' for Inactive)
REMARK    1  A    between atoms: C_1  and  C_2
REMARK    2  A    between atoms: C_2  and  N_3
REMARK    3  A    between atoms: N_3  and  C_4
REMARK    4  A    between atoms: C_4  and  C_5
REMARK    5  A    between atoms: P_14  and  N_16
REMARK    6  A    between atoms: N_16  and  C_17
REMARK    7  A    between atoms: C_17  and  C_18
REMARK                            x       y       z     vdW  Elec       q    Type
REMARK                         _______ _______ _______ _____ _____    ______ ____
ROOT
ATOM      1  C   UNL     1       3.588   6.440  19.095  0.00  0.00    +0.000 C 
ATOM      2  C   UNL     1       2.419   5.457  19.358  0.00  0.00    +0.000 C 
ATOM      3  C   UNL     1       1.873   4.899  18.026  0.00  0.00    +0.000 C 
ATOM      4  O   UNL     1       2.847   4.187  17.302  0.00  0.00    +0.000 OA
ATOM      5  P   UNL     1       3.724   3.038  18.006  0.00  0.00    +0.000 P 
ATOM      6  O   UNL     1       3.005   1.725  18.087  0.00  0.00    +0.000 OA
ATOM      7  O   UNL     1       4.043   3.660  19.460  0.00  0.00    +0.000 OA
ATOM      8  C   UNL     1       2.959   4.257  20.166  0.00  0.00    +0.000 C 
ENDROOT
BRANCH   2   9
ATOM      9  N   UNL     1       1.437   6.281  20.068  0.00  0.00    +0.000 NA
ATOM     10  H   UNL     1       0.748   5.677  20.521  0.00  0.00    +0.000 HD
BRANCH   9  11
ATOM     11  C   UNL     1       1.918   7.244  21.046  0.00  0.00    +0.000 C 
BRANCH  11  12
ATOM     12  C   UNL     1       1.021   8.458  20.955  0.00  0.00    +0.000 A 
ATOM     13  C   UNL     1       1.004   9.246  19.793  0.00  0.00    +0.000 A 
ATOM     14  C   UNL     1       0.288  10.445  19.764  0.00  0.00    +0.000 A 
ATOM     15  C   UNL     1      -0.410  10.862  20.898  0.00  0.00    +0.000 A 
ATOM     16 CL   UNL     1      -1.260  12.355  20.875  0.00  0.00    +0.000 Cl
ATOM     17  C   UNL     1      -0.400  10.087  22.055  0.00  0.00    +0.000 A 
ATOM     18  C   UNL     1       0.316   8.890  22.087  0.00  0.00    +0.000 A 
ENDBRANCH  11  12
ENDBRANCH   9  11
ENDBRANCH   2   9
BRANCH   5  19
ATOM     19  N   UNL     1       5.064   3.139  17.091  0.00  0.00    +0.000 NA
ATOM     20  H   UNL     1       4.986   2.385  16.416  0.00  0.00    +0.000 HD
BRANCH  19  21
ATOM     21  C   UNL     1       5.349   4.354  16.350  0.00  0.00    +0.000 C 
BRANCH  21  22
ATOM     22  C   UNL     1       6.253   5.309  17.100  0.00  0.00    +0.000 A 
ATOM     23  C   UNL     1       7.073   4.824  18.134  0.00  0.00    +0.000 A 
ATOM     24  C   UNL     1       7.944   5.676  18.814  0.00  0.00    +0.000 A 
ATOM     25  C   UNL     1       8.010   7.023  18.470  0.00  0.00    +0.000 A 
ATOM     26  C   UNL     1       7.205   7.519  17.447  0.00  0.00    +0.000 A 
ATOM     27  C   UNL     1       6.337   6.668  16.762  0.00  0.00    +0.000 A 
ENDBRANCH  21  22
ENDBRANCH  19  21
ENDBRANCH   5  19
TORSDOF 6
ENDMDL
