MODEL 1
REMARK VINA RESULT:      -7.0      0.000      0.000
REMARK  Name = 
REMARK  6 active torsions:
REMARK  status: ('A' for Active; 'I' for Inactive)
REMARK    1  A    between atoms: C_1  and  C_2
REMARK    2  A    between atoms: C_2  and  C_3
REMARK    3  A    between atoms: C_5  and  N_6
REMARK    4  A    between atoms: N_7  and  C_8
REMARK    5  A    between atoms: C_11  and  O_12
REMARK    6  A    between atoms: C_17  and  O_18
REMARK                            x       y       z     vdW  Elec       q    Type
REMARK                         _______ _______ _______ _____ _____    ______ ____
ROOT
ATOM      1  C   UNL     1       5.778   4.310  14.311  0.00  0.00    +0.000 A 
ATOM      2  C   UNL     1       5.119   3.916  15.490  0.00  0.00    +0.000 A 
ATOM      3  C   UNL     1       5.652   4.187  16.760  0.00  0.00    +0.000 A 
ATOM      4  C   UNL     1       6.871   4.875  16.835  0.00  0.00    +0.000 A 
ATOM      5  C   UNL     1       7.550   5.260  15.675  0.00  0.00    +0.000 A 
ATOM      6  C   UNL     1       7.002   4.974  14.426  0.00  0.00    +0.000 A 
ENDROOT
BRANCH   1   8
ATOM      7  C   UNL     1       5.872   2.900  12.221  0.00  0.00    +0.000 C 
ATOM      8  C   UNL     1       5.157   4.017  12.966  0.00  0.00    +0.000 C 
ENDBRANCH   1   8
BRANCH   3   9
ATOM      9  N   UNL     1       4.899   3.812  17.893  0.00  0.00    +0.000 NA
ATOM     10  N   UNL     1       3.689   4.114  17.790  0.00  0.00    +0.000 NA
BRANCH  10  11
ATOM     11  C   UNL     1       2.946   3.764  18.939  0.00  0.00    +0.000 A 
ATOM     12  C   UNL     1       1.583   4.067  19.100  0.00  0.00    +0.000 A 
ATOM     13  C   UNL     1       0.880   3.657  20.239  0.00  0.00    +0.000 A 
ATOM     14  C   UNL     1       1.540   2.925  21.220  0.00  0.00    +0.000 A 
ATOM     15  C   UNL     1       2.885   2.604  21.081  0.00  0.00    +0.000 A 
ATOM     16  C   UNL     1       3.583   3.022  19.943  0.00  0.00    +0.000 A 
BRANCH  14  17
ATOM     17  O   UNL     1       0.894   2.497  22.340  0.00  0.00    +0.000 OA
ATOM     18  H   UNL     1       1.342   1.702  22.672  0.00  0.00    +0.000 HD
ENDBRANCH  14  17
ENDBRANCH  10  11
ENDBRANCH   3   9
BRANCH   6  19
ATOM     19  O   UNL     1       7.655   5.356  13.289  0.00  0.00    +0.000 OA
ATOM     20  H   UNL     1       8.437   4.791  13.170  0.00  0.00    +0.000 HD
ENDBRANCH   6  19
TORSDOF 5
ENDMDL
MODEL 2
REMARK VINA RESULT:      -6.8      0.775      1.357
REMARK  Name = 
REMARK  6 active torsions:
REMARK  status: ('A' for Active; 'I' for Inactive)
REMARK    1  A    between atoms: C_1  and  C_2
REMARK    2  A    between atoms: C_2  and  C_3
REMARK    3  A    between atoms: C_5  and  N_6
REMARK    4  A    between atoms: N_7  and  C_8
REMARK    5  A    between atoms: C_11  and  O_12
REMARK    6  A    between atoms: C_17  and  O_18
REMARK                            x       y       z     vdW  Elec       q    Type
REMARK                         _______ _______ _______ _____ _____    ______ ____
ROOT
ATOM      1  C   UNL     1       6.313   4.044  13.824  0.00  0.00    +0.000 A 
ATOM      2  C   UNL     1       5.522   3.573  14.887  0.00  0.00    +0.000 A 
ATOM      3  C   UNL     1       5.597   4.138  16.170  0.00  0.00    +0.000 A 
ATOM      4  C   UNL     1       6.486   5.202  16.376  0.00  0.00    +0.000 A 
ATOM      5  C   UNL     1       7.293   5.674  15.337  0.00  0.00    +0.000 A 
ATOM      6  C   UNL     1       7.204   5.093  14.073  0.00  0.00    +0.000 A 
ENDROOT
BRANCH   1   8
ATOM      7  C   UNL     1       4.745   3.370  11.967  0.00  0.00    +0.000 C 
ATOM      8  C   UNL     1       6.184   3.422  12.454  0.00  0.00    +0.000 C 
ENDBRANCH   1   8
BRANCH   3   9
ATOM      9  N   UNL     1       4.725   3.649  17.166  0.00  0.00    +0.000 NA
ATOM     10  N   UNL     1       4.634   4.419  18.148  0.00  0.00    +0.000 NA
BRANCH  10  11
ATOM     11  C   UNL     1       3.784   3.909  19.155  0.00  0.00    +0.000 A 
ATOM     12  C   UNL     1       4.081   2.760  19.907  0.00  0.00    +0.000 A 
ATOM     13  C   UNL     1       3.227   2.321  20.927  0.00  0.00    +0.000 A 
ATOM     14  C   UNL     1       2.074   3.045  21.207  0.00  0.00    +0.000 A 
ATOM     15  C   UNL     1       1.761   4.190  20.484  0.00  0.00    +0.000 A 
ATOM     16  C   UNL     1       2.616   4.619  19.463  0.00  0.00    +0.000 A 
BRANCH  14  17
ATOM     17  O   UNL     1       1.219   2.662  22.196  0.00  0.00    +0.000 OA
ATOM     18  H   UNL     1       0.512   3.325  22.270  0.00  0.00    +0.000 HD
ENDBRANCH  14  17
ENDBRANCH  10  11
ENDBRANCH   3   9
BRANCH   6  19
ATOM     19  O   UNL     1       7.983   5.554  13.051  0.00  0.00    +0.000 OA
ATOM     20  H   UNL     1       8.731   4.948  12.927  0.00  0.00    +0.000 HD
ENDBRANCH   6  19
TORSDOF 5
ENDMDL
MODEL 3
REMARK VINA RESULT:      -6.8      1.128      1.361
REMARK  Name = 
REMARK  6 active torsions:
REMARK  status: ('A' for Active; 'I' for Inactive)
REMARK    1  A    between atoms: C_1  and  C_2
REMARK    2  A    between atoms: C_2  and  C_3
REMARK    3  A    between atoms: C_5  and  N_6
REMARK    4  A    between atoms: N_7  and  C_8
REMARK    5  A    between atoms: C_11  and  O_12
REMARK    6  A    between atoms: C_17  and  O_18
REMARK                            x       y       z     vdW  Elec       q    Type
REMARK                         _______ _______ _______ _____ _____    ______ ____
ROOT
ATOM      1  C   UNL     1       6.140   3.785  13.313  0.00  0.00    +0.000 A 
ATOM      2  C   UNL     1       5.437   3.439  14.481  0.00  0.00    +0.000 A 
ATOM      3  C   UNL     1       5.706   4.053  15.715  0.00  0.00    +0.000 A 
ATOM      4  C   UNL     1       6.703   5.037  15.763  0.00  0.00    +0.000 A 
ATOM      5  C   UNL     1       7.425   5.384  14.617  0.00  0.00    +0.000 A 
ATOM      6  C   UNL     1       7.142   4.757  13.405  0.00  0.00    +0.000 A 
ENDROOT
BRANCH   1   8
ATOM      7  C   UNL     1       4.361   3.353  11.577  0.00  0.00    +0.000 C 
ATOM      8  C   UNL     1       5.802   3.117  12.003  0.00  0.00    +0.000 C 
ENDBRANCH   1   8
BRANCH   3   9
ATOM      9  N   UNL     1       4.915   3.692  16.826  0.00  0.00    +0.000 NA
ATOM     10  N   UNL     1       3.834   4.321  16.873  0.00  0.00    +0.000 NA
BRANCH  10  11
ATOM     11  C   UNL     1       3.060   3.978  18.003  0.00  0.00    +0.000 A 
ATOM     12  C   UNL     1       2.767   4.880  19.041  0.00  0.00    +0.000 A 
ATOM     13  C   UNL     1       1.955   4.504  20.119  0.00  0.00    +0.000 A 
ATOM     14  C   UNL     1       1.420   3.222  20.153  0.00  0.00    +0.000 A 
ATOM     15  C   UNL     1       1.687   2.314  19.135  0.00  0.00    +0.000 A 
ATOM     16  C   UNL     1       2.503   2.695  18.064  0.00  0.00    +0.000 A 
BRANCH  14  17
ATOM     17  O   UNL     1       0.618   2.815  21.176  0.00  0.00    +0.000 OA
ATOM     18  H   UNL     1       0.516   3.551  21.802  0.00  0.00    +0.000 HD
ENDBRANCH  14  17
ENDBRANCH  10  11
ENDBRANCH   3   9
BRANCH   6  19
ATOM     19  O   UNL     1       7.837   5.097  12.280  0.00  0.00    +0.000 OA
ATOM     20  H   UNL     1       8.311   5.929  12.442  0.00  0.00    +0.000 HD
ENDBRANCH   6  19
TORSDOF 5
ENDMDL
MODEL 4
REMARK VINA RESULT:      -6.7      5.977      8.636
REMARK  Name = 
REMARK  6 active torsions:
REMARK  status: ('A' for Active; 'I' for Inactive)
REMARK    1  A    between atoms: C_1  and  C_2
REMARK    2  A    between atoms: C_2  and  C_3
REMARK    3  A    between atoms: C_5  and  N_6
REMARK    4  A    between atoms: N_7  and  C_8
REMARK    5  A    between atoms: C_11  and  O_12
REMARK    6  A    between atoms: C_17  and  O_18
REMARK                            x       y       z     vdW  Elec       q    Type
REMARK                         _______ _______ _______ _____ _____    ______ ____
ROOT
ATOM      1  C   UNL     1       6.417   5.943  16.994  0.00  0.00    +0.000 A 
ATOM      2  C   UNL     1       6.904   7.262  16.978  0.00  0.00    +0.000 A 
ATOM      3  C   UNL     1       7.806   7.728  17.948  0.00  0.00    +0.000 A 
ATOM      4  C   UNL     1       8.224   6.839  18.948  0.00  0.00    +0.000 A 
ATOM      5  C   UNL     1       7.738   5.529  18.992  0.00  0.00    +0.000 A 
ATOM      6  C   UNL     1       6.840   5.092  18.020  0.00  0.00    +0.000 A 
ENDROOT
BRANCH   1   8
ATOM      7  C   UNL     1       6.184   4.875  14.721  0.00  0.00    +0.000 C 
ATOM      8  C   UNL     1       5.466   5.477  15.919  0.00  0.00    +0.000 C 
ENDBRANCH   1   8
BRANCH   3   9
ATOM      9  N   UNL     1       8.294   9.047  17.826  0.00  0.00    +0.000 NA
ATOM     10  N   UNL     1       8.894   9.436  18.852  0.00  0.00    +0.000 NA
BRANCH  10  11
ATOM     11  C   UNL     1       9.354  10.766  18.736  0.00  0.00    +0.000 A 
ATOM     12  C   UNL     1      10.518  11.239  19.367  0.00  0.00    +0.000 A 
ATOM     13  C   UNL     1      10.958  12.556  19.183  0.00  0.00    +0.000 A 
ATOM     14  C   UNL     1      10.236  13.404  18.351  0.00  0.00    +0.000 A 
ATOM     15  C   UNL     1       9.087  12.959  17.708  0.00  0.00    +0.000 A 
ATOM     16  C   UNL     1       8.651  11.644  17.901  0.00  0.00    +0.000 A 
BRANCH  14  17
ATOM     17  O   UNL     1      10.630  14.690  18.135  0.00  0.00    +0.000 OA
ATOM     18  H   UNL     1       9.869  15.276  18.276  0.00  0.00    +0.000 HD
ENDBRANCH  14  17
ENDBRANCH  10  11
ENDBRANCH   3   9
BRANCH   6  19
ATOM     19  O   UNL     1       6.369   3.811  18.051  0.00  0.00    +0.000 OA
ATOM     20  H   UNL     1       5.679   3.712  17.373  0.00  0.00    +0.000 HD
ENDBRANCH   6  19
TORSDOF 5
ENDMDL
MODEL 5
REMARK VINA RESULT:      -6.6      6.052      8.534
REMARK  Name = 
REMARK  6 active torsions:
REMARK  status: ('A' for Active; 'I' for Inactive)
REMARK    1  A    between atoms: C_1  and  C_2
REMARK    2  A    between atoms: C_2  and  C_3
REMARK    3  A    between atoms: C_5  and  N_6
REMARK    4  A    between atoms: N_7  and  C_8
REMARK    5  A    between atoms: C_11  and  O_12
REMARK    6  A    between atoms: C_17  and  O_18
REMARK                            x       y       z     vdW  Elec       q    Type
REMARK                         _______ _______ _______ _____ _____    ______ ____
ROOT
ATOM      1  C   UNL     1       6.229   6.024  17.104  0.00  0.00    +0.000 A 
ATOM      2  C   UNL     1       6.736   7.336  17.136  0.00  0.00    +0.000 A 
ATOM      3  C   UNL     1       7.724   7.724  18.055  0.00  0.00    +0.000 A 
ATOM      4  C   UNL     1       8.209   6.764  18.953  0.00  0.00    +0.000 A 
ATOM      5  C   UNL     1       7.707   5.459  18.949  0.00  0.00    +0.000 A 
ATOM      6  C   UNL     1       6.723   5.100  18.030  0.00  0.00    +0.000 A 
ENDROOT
BRANCH   1   8
ATOM      7  C   UNL     1       5.785   5.051  14.819  0.00  0.00    +0.000 C 
ATOM      8  C   UNL     1       5.184   5.643  16.084  0.00  0.00    +0.000 C 
ENDBRANCH   1   8
BRANCH   3   9
ATOM      9  N   UNL     1       8.222   9.042  17.981  0.00  0.00    +0.000 NA
ATOM     10  N   UNL     1       8.959   9.334  18.948  0.00  0.00    +0.000 NA
BRANCH  10  11
ATOM     11  C   UNL     1       9.431  10.665  18.885  0.00  0.00    +0.000 A 
ATOM     12  C   UNL     1       9.133  11.540  17.826  0.00  0.00    +0.000 A 
ATOM     13  C   UNL     1       9.586  12.865  17.832  0.00  0.00    +0.000 A 
ATOM     14  C   UNL     1      10.332  13.323  18.912  0.00  0.00    +0.000 A 
ATOM     15  C   UNL     1      10.633  12.481  19.976  0.00  0.00    +0.000 A 
ATOM     16  C   UNL     1      10.181  11.157  19.960  0.00  0.00    +0.000 A 
BRANCH  14  17
ATOM     17  O   UNL     1      10.786  14.606  18.966  0.00  0.00    +0.000 OA
ATOM     18  H   UNL     1      10.936  14.921  18.059  0.00  0.00    +0.000 HD
ENDBRANCH  14  17
ENDBRANCH  10  11
ENDBRANCH   3   9
BRANCH   6  19
ATOM     19  O   UNL     1       6.235   3.825  18.014  0.00  0.00    +0.000 OA
ATOM     20  H   UNL     1       6.597   3.339  18.774  0.00  0.00    +0.000 HD
ENDBRANCH   6  19
TORSDOF 5
ENDMDL
MODEL 6
REMARK VINA RESULT:      -6.6      4.757      7.121
REMARK  Name = 
REMARK  6 active torsions:
REMARK  status: ('A' for Active; 'I' for Inactive)
REMARK    1  A    between atoms: C_1  and  C_2
REMARK    2  A    between atoms: C_2  and  C_3
REMARK    3  A    between atoms: C_5  and  N_6
REMARK    4  A    between atoms: N_7  and  C_8
REMARK    5  A    between atoms: C_11  and  O_12
REMARK    6  A    between atoms: C_17  and  O_18
REMARK                            x       y       z     vdW  Elec       q    Type
REMARK                         _______ _______ _______ _____ _____    ______ ____
ROOT
ATOM      1  C   UNL     1       0.856   9.717  20.278  0.00  0.00    +0.000 A 
ATOM      2  C   UNL     1       1.361   8.404  20.247  0.00  0.00    +0.000 A 
ATOM      3  C   UNL     1       2.050   7.904  19.131  0.00  0.00    +0.000 A 
ATOM      4  C   UNL     1       2.234   8.752  18.030  0.00  0.00    +0.000 A 
ATOM      5  C   UNL     1       1.725  10.054  18.034  0.00  0.00    +0.000 A 
ATOM      6  C   UNL     1       1.040  10.525  19.152  0.00  0.00    +0.000 A 
ENDROOT
BRANCH   1   8
ATOM      7  C   UNL     1       0.285   9.284  22.697  0.00  0.00    +0.000 C 
ATOM      8  C   UNL     1       0.141  10.221  21.508  0.00  0.00    +0.000 C 
ENDBRANCH   1   8
BRANCH   3   9
ATOM      9  N   UNL     1       2.577   6.598  19.203  0.00  0.00    +0.000 NA
ATOM     10  N   UNL     1       2.279   5.901  18.208  0.00  0.00    +0.000 NA
BRANCH  10  11
ATOM     11  C   UNL     1       2.784   4.585  18.300  0.00  0.00    +0.000 A 
ATOM     12  C   UNL     1       3.826   4.217  19.168  0.00  0.00    +0.000 A 
ATOM     13  C   UNL     1       4.260   2.888  19.256  0.00  0.00    +0.000 A 
ATOM     14  C   UNL     1       3.639   1.917  18.479  0.00  0.00    +0.000 A 
ATOM     15  C   UNL     1       2.600   2.253  17.618  0.00  0.00    +0.000 A 
ATOM     16  C   UNL     1       2.176   3.583  17.533  0.00  0.00    +0.000 A 
BRANCH  14  17
ATOM     17  O   UNL     1       4.021   0.611  18.537  0.00  0.00    +0.000 OA
ATOM     18  H   UNL     1       4.959   0.572  18.789  0.00  0.00    +0.000 HD
ENDBRANCH  14  17
ENDBRANCH  10  11
ENDBRANCH   3   9
BRANCH   6  19
ATOM     19  O   UNL     1       0.549  11.799  19.167  0.00  0.00    +0.000 OA
ATOM     20  H   UNL     1       1.264  12.410  19.410  0.00  0.00    +0.000 HD
ENDBRANCH   6  19
TORSDOF 5
ENDMDL
MODEL 7
REMARK VINA RESULT:      -6.6      1.079      1.408
REMARK  Name = 
REMARK  6 active torsions:
REMARK  status: ('A' for Active; 'I' for Inactive)
REMARK    1  A    between atoms: C_1  and  C_2
REMARK    2  A    between atoms: C_2  and  C_3
REMARK    3  A    between atoms: C_5  and  N_6
REMARK    4  A    between atoms: N_7  and  C_8
REMARK    5  A    between atoms: C_11  and  O_12
REMARK    6  A    between atoms: C_17  and  O_18
REMARK                            x       y       z     vdW  Elec       q    Type
REMARK                         _______ _______ _______ _____ _____    ______ ____
ROOT
ATOM      1  C   UNL     1       5.837   3.935  13.366  0.00  0.00    +0.000 A 
ATOM      2  C   UNL     1       5.159   3.644  14.564  0.00  0.00    +0.000 A 
ATOM      3  C   UNL     1       5.640   4.080  15.809  0.00  0.00    +0.000 A 
ATOM      4  C   UNL     1       6.825   4.827  15.838  0.00  0.00    +0.000 A 
ATOM      5  C   UNL     1       7.523   5.112  14.661  0.00  0.00    +0.000 A 
ATOM      6  C   UNL     1       7.027   4.664  13.438  0.00  0.00    +0.000 A 
ENDROOT
BRANCH   1   8
ATOM      7  C   UNL     1       5.776   2.087  11.650  0.00  0.00    +0.000 C 
ATOM      8  C   UNL     1       5.272   3.466  12.047  0.00  0.00    +0.000 C 
ENDBRANCH   1   8
BRANCH   3   9
ATOM      9  N   UNL     1       4.869   3.798  16.957  0.00  0.00    +0.000 NA
ATOM     10  N   UNL     1       3.649   3.690  16.704  0.00  0.00    +0.000 NA
BRANCH  10  11
ATOM     11  C   UNL     1       2.879   3.438  17.862  0.00  0.00    +0.000 A 
ATOM     12  C   UNL     1       2.554   2.144  18.307  0.00  0.00    +0.000 A 
ATOM     13  C   UNL     1       1.827   1.946  19.487  0.00  0.00    +0.000 A 
ATOM     14  C   UNL     1       1.431   3.048  20.235  0.00  0.00    +0.000 A 
ATOM     15  C   UNL     1       1.746   4.338  19.822  0.00  0.00    +0.000 A 
ATOM     16  C   UNL     1       2.469   4.528  18.639  0.00  0.00    +0.000 A 
BRANCH  14  17
ATOM     17  O   UNL     1       0.730   2.904  21.394  0.00  0.00    +0.000 OA
ATOM     18  H   UNL     1       0.866   3.695  21.940  0.00  0.00    +0.000 HD
ENDBRANCH  14  17
ENDBRANCH  10  11
ENDBRANCH   3   9
BRANCH   6  19
ATOM     19  O   UNL     1       7.698   4.947  12.283  0.00  0.00    +0.000 OA
ATOM     20  H   UNL     1       8.625   4.675  12.383  0.00  0.00    +0.000 HD
ENDBRANCH   6  19
TORSDOF 5
ENDMDL
MODEL 8
REMARK VINA RESULT:      -6.6      4.772      7.063
REMARK  Name = 
REMARK  6 active torsions:
REMARK  status: ('A' for Active; 'I' for Inactive)
REMARK    1  A    between atoms: C_1  and  C_2
REMARK    2  A    between atoms: C_2  and  C_3
REMARK    3  A    between atoms: C_5  and  N_6
REMARK    4  A    between atoms: N_7  and  C_8
REMARK    5  A    between atoms: C_11  and  O_12
REMARK    6  A    between atoms: C_17  and  O_18
REMARK                            x       y       z     vdW  Elec       q    Type
REMARK                         _______ _______ _______ _____ _____    ______ ____
ROOT
ATOM      1  C   UNL     1       0.894   9.749  20.294  0.00  0.00    +0.000 A 
ATOM      2  C   UNL     1       1.348   8.417  20.277  0.00  0.00    +0.000 A 
ATOM      3  C   UNL     1       2.007   7.876  19.161  0.00  0.00    +0.000 A 
ATOM      4  C   UNL     1       2.213   8.701  18.047  0.00  0.00    +0.000 A 
ATOM      5  C   UNL     1       1.754  10.022  18.038  0.00  0.00    +0.000 A 
ATOM      6  C   UNL     1       1.099  10.534  19.156  0.00  0.00    +0.000 A 
ENDROOT
BRANCH   1   8
ATOM      7  C   UNL     1       0.353   9.383  22.731  0.00  0.00    +0.000 C 
ATOM      8  C   UNL     1       0.210  10.297  21.523  0.00  0.00    +0.000 C 
ENDBRANCH   1   8
BRANCH   3   9
ATOM      9  N   UNL     1       2.484   6.551  19.247  0.00  0.00    +0.000 NA
ATOM     10  N   UNL     1       2.242   5.883  18.218  0.00  0.00    +0.000 NA
BRANCH  10  11
ATOM     11  C   UNL     1       2.695   4.549  18.321  0.00  0.00    +0.000 A 
ATOM     12  C   UNL     1       2.125   3.482  17.605  0.00  0.00    +0.000 A 
ATOM     13  C   UNL     1       2.641   2.184  17.707  0.00  0.00    +0.000 A 
ATOM     14  C   UNL     1       3.744   1.953  18.520  0.00  0.00    +0.000 A 
ATOM     15  C   UNL     1       4.332   2.992  19.233  0.00  0.00    +0.000 A 
ATOM     16  C   UNL     1       3.808   4.285  19.129  0.00  0.00    +0.000 A 
BRANCH  14  17
ATOM     17  O   UNL     1       4.285   0.709  18.643  0.00  0.00    +0.000 OA
ATOM     18  H   UNL     1       3.896   0.276  19.422  0.00  0.00    +0.000 HD
ENDBRANCH  14  17
ENDBRANCH  10  11
ENDBRANCH   3   9
BRANCH   6  19
ATOM     19  O   UNL     1       0.657  11.826  19.157  0.00  0.00    +0.000 OA
ATOM     20  H   UNL     1       0.724  12.183  18.256  0.00  0.00    +0.000 HD
ENDBRANCH   6  19
TORSDOF 5
ENDMDL
MODEL 9
REMARK VINA RESULT:      -6.5      0.995      1.010
REMARK  Name = 
REMARK  6 active torsions:
REMARK  status: ('A' for Active; 'I' for Inactive)
REMARK    1  A    between atoms: C_1  and  C_2
REMARK    2  A    between atoms: C_2  and  C_3
REMARK    3  A    between atoms: C_5  and  N_6
REMARK    4  A    between atoms: N_7  and  C_8
REMARK    5  A    between atoms: C_11  and  O_12
REMARK    6  A    between atoms: C_17  and  O_18
REMARK                            x       y       z     vdW  Elec       q    Type
REMARK                         _______ _______ _______ _____ _____    ______ ____
ROOT
ATOM      1  C   UNL     1       5.816   4.050  13.556  0.00  0.00    +0.000 A 
ATOM      2  C   UNL     1       5.069   3.712  14.698  0.00  0.00    +0.000 A 
ATOM      3  C   UNL     1       5.483   4.081  15.988  0.00  0.00    +0.000 A 
ATOM      4  C   UNL     1       6.673   4.810  16.119  0.00  0.00    +0.000 A 
ATOM      5  C   UNL     1       7.439   5.142  14.998  0.00  0.00    +0.000 A 
ATOM      6  C   UNL     1       7.008   4.760  13.729  0.00  0.00    +0.000 A 
ENDROOT
BRANCH   1   8
ATOM      7  C   UNL     1       5.830   2.287  11.752  0.00  0.00    +0.000 C 
ATOM      8  C   UNL     1       5.322   3.653  12.186  0.00  0.00    +0.000 C 
ENDBRANCH   1   8
BRANCH   3   9
ATOM      9  N   UNL     1       4.646   3.754  17.076  0.00  0.00    +0.000 NA
ATOM     10  N   UNL     1       4.863   4.467  18.082  0.00  0.00    +0.000 NA
BRANCH  10  11
ATOM     11  C   UNL     1       4.043   4.116  19.177  0.00  0.00    +0.000 A 
ATOM     12  C   UNL     1       3.142   5.008  19.784  0.00  0.00    +0.000 A 
ATOM     13  C   UNL     1       2.317   4.597  20.839  0.00  0.00    +0.000 A 
ATOM     14  C   UNL     1       2.384   3.282  21.283  0.00  0.00    +0.000 A 
ATOM     15  C   UNL     1       3.260   2.377  20.694  0.00  0.00    +0.000 A 
ATOM     16  C   UNL     1       4.084   2.796  19.644  0.00  0.00    +0.000 A 
BRANCH  14  17
ATOM     17  O   UNL     1       1.594   2.836  22.300  0.00  0.00    +0.000 OA
ATOM     18  H   UNL     1       0.676   3.096  22.117  0.00  0.00    +0.000 HD
ENDBRANCH  14  17
ENDBRANCH  10  11
ENDBRANCH   3   9
BRANCH   6  19
ATOM     19  O   UNL     1       7.746   5.089  12.628  0.00  0.00    +0.000 OA
ATOM     20  H   UNL     1       7.180   5.570  12.002  0.00  0.00    +0.000 HD
ENDBRANCH   6  19
TORSDOF 5
ENDMDL
