MODEL 1
REMARK VINA RESULT:      -8.7      0.000      0.000
REMARK  Name = 
REMARK  8 active torsions:
REMARK  status: ('A' for Active; 'I' for Inactive)
REMARK    1  A    between atoms: C_1  and  N_2
REMARK    2  A    between atoms: N_2  and  C_3
REMARK    3  A    between atoms: C_4  and  C_6
REMARK    4  A    between atoms: C_6  and  C_7
REMARK    5  A    between atoms: C_6  and  C_22
REMARK    6  A    between atoms: C_10  and  C_11
REMARK    7  A    between atoms: C_22  and  N_23
REMARK    8  A    between atoms: C_22  and  C_24
REMARK                            x       y       z     vdW  Elec       q    Type
REMARK                         _______ _______ _______ _____ _____    ______ ____
ROOT
ATOM      1  C   UNL     1       2.584   5.393  19.214  0.00  0.00    +0.000 C 
ENDROOT
BRANCH   1   2
ATOM      2  C   UNL     1       2.163   6.859  19.158  0.00  0.00    +0.000 A 
ATOM      3  C   UNL     1       2.198   7.531  17.924  0.00  0.00    +0.000 A 
ATOM      4  C   UNL     1       1.823   8.870  17.835  0.00  0.00    +0.000 A 
ATOM      5  C   UNL     1       1.367   9.549  18.969  0.00  0.00    +0.000 A 
ATOM      6  C   UNL     1       1.342   8.901  20.204  0.00  0.00    +0.000 A 
ATOM      7  C   UNL     1       1.740   7.565  20.296  0.00  0.00    +0.000 A 
BRANCH   5   8
ATOM      8  C   UNL     1       0.838  10.906  18.817  0.00  0.00    +0.000 A 
ATOM      9  C   UNL     1      -0.586  11.236  18.715  0.00  0.00    +0.000 A 
ATOM     10  C   UNL     1      -1.011  12.514  18.661  0.00  0.00    +0.000 A 
ATOM     11  C   UNL     1      -0.060  13.569  18.713  0.00  0.00    +0.000 A 
ATOM     12  N   UNL     1      -0.166  14.882  18.702  0.00  0.00    +0.000 NA
ATOM     13  N   UNL     1       1.108  15.406  18.785  0.00  0.00    +0.000 NA
ATOM     14  C   UNL     1       1.956  14.404  18.845  0.00  0.00    +0.000 A 
ATOM     15  N   UNL     1       1.275  13.219  18.797  0.00  0.00    +0.000 N 
ATOM     16  C   UNL     1       1.732  11.916  18.848  0.00  0.00    +0.000 A 
ENDBRANCH   5   8
ENDBRANCH   1   2
BRANCH   1  20
ATOM     17  C   UNL     1       1.730   2.489  21.648  0.00  0.00    +0.000 C 
ATOM     18  N   UNL     1       2.562   3.358  20.826  0.00  0.00    +0.000 N 
ATOM     19  C   UNL     1       3.951   2.950  20.682  0.00  0.00    +0.000 C 
ATOM     20  C   UNL     1       1.937   4.475  20.272  0.00  0.00    +0.000 C 
ATOM     21  O   UNL     1       0.738   4.664  20.530  0.00  0.00    +0.000 OA
ENDBRANCH   1  20
BRANCH   1  22
ATOM     22  C   UNL     1       2.600   4.783  17.772  0.00  0.00    +0.000 C 
BRANCH  22  23
ATOM     23  C   UNL     1       3.855   3.955  17.370  0.00  0.00    +0.000 C 
ATOM     24  O   UNL     1       3.799   2.719  17.313  0.00  0.00    +0.000 OA
ATOM     25  N   UNL     1       4.964   4.621  16.897  0.00  0.00    +0.000 N 
ATOM     26  C   UNL     1       6.030   3.891  16.225  0.00  0.00    +0.000 C 
ATOM     27  C   UNL     1       6.917   4.963  15.605  0.00  0.00    +0.000 C 
ATOM     28  C   UNL     1       6.740   6.130  16.556  0.00  0.00    +0.000 C 
ATOM     29  F   UNL     1       7.508   5.914  17.661  0.00  0.00    +0.000 F 
ATOM     30  C   UNL     1       5.269   6.045  16.950  0.00  0.00    +0.000 C 
ENDBRANCH  22  23
BRANCH  22  31
ATOM     31  N   UNL     1       1.390   3.972  17.425  0.00  0.00    +0.000 NA
ATOM     32  H   UNL     1       0.836   4.546  16.777  0.00  0.00    +0.000 HD
ATOM     33  H   UNL     1       0.794   3.961  18.260  0.00  0.00    +0.000 HD
ENDBRANCH  22  31
ENDBRANCH   1  22
TORSDOF 6
ENDMDL
MODEL 2
REMARK VINA RESULT:      -8.6      3.934      9.115
REMARK  Name = 
REMARK  8 active torsions:
REMARK  status: ('A' for Active; 'I' for Inactive)
REMARK    1  A    between atoms: C_1  and  N_2
REMARK    2  A    between atoms: N_2  and  C_3
REMARK    3  A    between atoms: C_4  and  C_6
REMARK    4  A    between atoms: C_6  and  C_7
REMARK    5  A    between atoms: C_6  and  C_22
REMARK    6  A    between atoms: C_10  and  C_11
REMARK    7  A    between atoms: C_22  and  N_23
REMARK    8  A    between atoms: C_22  and  C_24
REMARK                            x       y       z     vdW  Elec       q    Type
REMARK                         _______ _______ _______ _____ _____    ______ ____
ROOT
ATOM      1  C   UNL     1      -1.048  11.460  20.465  0.00  0.00    +0.000 C 
ENDROOT
BRANCH   1   2
ATOM      2  C   UNL     1      -0.044  10.411  19.996  0.00  0.00    +0.000 A 
ATOM      3  C   UNL     1       0.364   9.410  20.893  0.00  0.00    +0.000 A 
ATOM      4  C   UNL     1       1.281   8.437  20.500  0.00  0.00    +0.000 A 
ATOM      5  C   UNL     1       1.776   8.423  19.193  0.00  0.00    +0.000 A 
ATOM      6  C   UNL     1       1.394   9.421  18.295  0.00  0.00    +0.000 A 
ATOM      7  C   UNL     1       0.492  10.409  18.697  0.00  0.00    +0.000 A 
BRANCH   5   8
ATOM      8  C   UNL     1       2.618   7.305  18.765  0.00  0.00    +0.000 A 
ATOM      9  C   UNL     1       3.561   7.355  17.645  0.00  0.00    +0.000 A 
ATOM     10  C   UNL     1       4.368   6.315  17.356  0.00  0.00    +0.000 A 
ATOM     11  C   UNL     1       4.313   5.144  18.159  0.00  0.00    +0.000 A 
ATOM     12  N   UNL     1       4.972   4.004  18.141  0.00  0.00    +0.000 NA
ATOM     13  N   UNL     1       4.499   3.228  19.180  0.00  0.00    +0.000 NA
ATOM     14  C   UNL     1       3.568   3.913  19.805  0.00  0.00    +0.000 A 
ATOM     15  N   UNL     1       3.403   5.128  19.200  0.00  0.00    +0.000 N 
ATOM     16  C   UNL     1       2.563   6.181  19.511  0.00  0.00    +0.000 A 
ENDBRANCH   5   8
ENDBRANCH   1   2
BRANCH   1  20
ATOM     17  C   UNL     1      -1.130  13.787  23.575  0.00  0.00    +0.000 C 
ATOM     18  N   UNL     1      -1.608  12.794  22.622  0.00  0.00    +0.000 N 
ATOM     19  C   UNL     1      -2.998  12.393  22.771  0.00  0.00    +0.000 C 
ATOM     20  C   UNL     1      -0.685  12.343  21.678  0.00  0.00    +0.000 C 
ATOM     21  O   UNL     1       0.470  12.795  21.726  0.00  0.00    +0.000 OA
ENDBRANCH   1  20
BRANCH   1  22
ATOM     22  C   UNL     1      -1.598  12.264  19.239  0.00  0.00    +0.000 C 
BRANCH  22  23
ATOM     23  C   UNL     1      -3.013  11.877  18.720  0.00  0.00    +0.000 C 
ATOM     24  O   UNL     1      -4.021  12.144  19.387  0.00  0.00    +0.000 OA
ATOM     25  N   UNL     1      -3.139  11.412  17.429  0.00  0.00    +0.000 N 
ATOM     26  C   UNL     1      -4.449  11.335  16.800  0.00  0.00    +0.000 C 
ATOM     27  C   UNL     1      -4.169  11.060  15.327  0.00  0.00    +0.000 C 
ATOM     28  C   UNL     1      -2.866  10.287  15.377  0.00  0.00    +0.000 C 
ATOM     29  F   UNL     1      -3.135   8.998  15.726  0.00  0.00    +0.000 F 
ATOM     30  C   UNL     1      -2.100  10.958  16.513  0.00  0.00    +0.000 C 
ENDBRANCH  22  23
BRANCH  22  31
ATOM     31  N   UNL     1      -1.566  13.753  19.405  0.00  0.00    +0.000 NA
ATOM     32  H   UNL     1      -0.713  14.075  18.931  0.00  0.00    +0.000 HD
ATOM     33  H   UNL     1      -1.341  13.934  20.389  0.00  0.00    +0.000 HD
ENDBRANCH  22  31
ENDBRANCH   1  22
TORSDOF 6
ENDMDL
MODEL 3
REMARK VINA RESULT:      -8.4      3.687      9.303
REMARK  Name = 
REMARK  8 active torsions:
REMARK  status: ('A' for Active; 'I' for Inactive)
REMARK    1  A    between atoms: C_1  and  N_2
REMARK    2  A    between atoms: N_2  and  C_3
REMARK    3  A    between atoms: C_4  and  C_6
REMARK    4  A    between atoms: C_6  and  C_7
REMARK    5  A    between atoms: C_6  and  C_22
REMARK    6  A    between atoms: C_10  and  C_11
REMARK    7  A    between atoms: C_22  and  N_23
REMARK    8  A    between atoms: C_22  and  C_24
REMARK                            x       y       z     vdW  Elec       q    Type
REMARK                         _______ _______ _______ _____ _____    ______ ____
ROOT
ATOM      1  C   UNL     1       0.326  11.983  20.040  0.00  0.00    +0.000 C 
ENDROOT
BRANCH   1   2
ATOM      2  C   UNL     1       0.877  10.584  19.780  0.00  0.00    +0.000 A 
ATOM      3  C   UNL     1       1.318  10.257  18.486  0.00  0.00    +0.000 A 
ATOM      4  C   UNL     1       1.825   8.988  18.210  0.00  0.00    +0.000 A 
ATOM      5  C   UNL     1       1.937   8.038  19.230  0.00  0.00    +0.000 A 
ATOM      6  C   UNL     1       1.487   8.343  20.516  0.00  0.00    +0.000 A 
ATOM      7  C   UNL     1       0.958   9.607  20.786  0.00  0.00    +0.000 A 
BRANCH   5   8
ATOM      8  C   UNL     1       2.611   6.770  18.946  0.00  0.00    +0.000 A 
ATOM      9  C   UNL     1       3.586   6.569  17.872  0.00  0.00    +0.000 A 
ATOM     10  C   UNL     1       4.233   5.396  17.717  0.00  0.00    +0.000 A 
ATOM     11  C   UNL     1       3.972   4.331  18.621  0.00  0.00    +0.000 A 
ATOM     12  N   UNL     1       4.448   3.108  18.738  0.00  0.00    +0.000 NA
ATOM     13  N   UNL     1       3.829   2.518  19.820  0.00  0.00    +0.000 NA
ATOM     14  C   UNL     1       2.994   3.392  20.336  0.00  0.00    +0.000 A 
ATOM     15  N   UNL     1       3.037   4.553  19.615  0.00  0.00    +0.000 N 
ATOM     16  C   UNL     1       2.360   5.745  19.788  0.00  0.00    +0.000 A 
ENDBRANCH   5   8
ENDBRANCH   1   2
BRANCH   1  20
ATOM     17  C   UNL     1       1.950  15.138  21.622  0.00  0.00    +0.000 C 
ATOM     18  N   UNL     1       0.999  14.045  21.469  0.00  0.00    +0.000 N 
ATOM     19  C   UNL     1      -0.157  14.085  22.352  0.00  0.00    +0.000 C 
ATOM     20  C   UNL     1       1.300  13.090  20.497  0.00  0.00    +0.000 C 
ATOM     21  O   UNL     1       2.353  13.221  19.854  0.00  0.00    +0.000 OA
ENDBRANCH   1  20
BRANCH   1  22
ATOM     22  C   UNL     1      -0.619  12.416  18.870  0.00  0.00    +0.000 C 
BRANCH  22  23
ATOM     23  C   UNL     1      -2.123  12.039  19.002  0.00  0.00    +0.000 C 
ATOM     24  O   UNL     1      -2.743  12.289  20.044  0.00  0.00    +0.000 OA
ATOM     25  N   UNL     1      -2.797  11.604  17.881  0.00  0.00    +0.000 N 
ATOM     26  C   UNL     1      -4.251  11.540  17.877  0.00  0.00    +0.000 C 
ATOM     27  C   UNL     1      -4.635  11.300  16.421  0.00  0.00    +0.000 C 
ATOM     28  C   UNL     1      -3.444  10.528  15.889  0.00  0.00    +0.000 C 
ATOM     29  F   UNL     1      -3.548   9.230  16.292  0.00  0.00    +0.000 F 
ATOM     30  C   UNL     1      -2.258  11.173  16.598  0.00  0.00    +0.000 C 
ENDBRANCH  22  23
BRANCH  22  31
ATOM     31  N   UNL     1      -0.544  13.868  18.511  0.00  0.00    +0.000 NA
ATOM     32  H   UNL     1      -0.502  14.381  19.401  0.00  0.00    +0.000 HD
ATOM     33  H   UNL     1      -1.471  14.132  18.160  0.00  0.00    +0.000 HD
ENDBRANCH  22  31
ENDBRANCH   1  22
TORSDOF 6
ENDMDL
MODEL 4
REMARK VINA RESULT:      -8.4      2.667      4.544
REMARK  Name = 
REMARK  8 active torsions:
REMARK  status: ('A' for Active; 'I' for Inactive)
REMARK    1  A    between atoms: C_1  and  N_2
REMARK    2  A    between atoms: N_2  and  C_3
REMARK    3  A    between atoms: C_4  and  C_6
REMARK    4  A    between atoms: C_6  and  C_7
REMARK    5  A    between atoms: C_6  and  C_22
REMARK    6  A    between atoms: C_10  and  C_11
REMARK    7  A    between atoms: C_22  and  N_23
REMARK    8  A    between atoms: C_22  and  C_24
REMARK                            x       y       z     vdW  Elec       q    Type
REMARK                         _______ _______ _______ _____ _____    ______ ____
ROOT
ATOM      1  C   UNL     1       4.063   6.200  17.254  0.00  0.00    +0.000 C 
ENDROOT
BRANCH   1   2
ATOM      2  C   UNL     1       3.135   7.040  18.127  0.00  0.00    +0.000 A 
ATOM      3  C   UNL     1       2.901   6.639  19.454  0.00  0.00    +0.000 A 
ATOM      4  C   UNL     1       2.057   7.379  20.279  0.00  0.00    +0.000 A 
ATOM      5  C   UNL     1       1.463   8.554  19.808  0.00  0.00    +0.000 A 
ATOM      6  C   UNL     1       1.672   8.955  18.487  0.00  0.00    +0.000 A 
ATOM      7  C   UNL     1       2.500   8.200  17.654  0.00  0.00    +0.000 A 
BRANCH   5   8
ATOM      8  C   UNL     1       0.705   9.389  20.740  0.00  0.00    +0.000 A 
ATOM      9  C   UNL     1       0.044   8.895  21.951  0.00  0.00    +0.000 A 
ATOM     10  C   UNL     1      -0.568   9.732  22.812  0.00  0.00    +0.000 A 
ATOM     11  C   UNL     1      -0.566  11.129  22.548  0.00  0.00    +0.000 A 
ATOM     12  N   UNL     1      -1.047  12.171  23.194  0.00  0.00    +0.000 NA
ATOM     13  N   UNL     1      -0.736  13.299  22.462  0.00  0.00    +0.000 NA
ATOM     14  C   UNL     1      -0.074  12.918  21.393  0.00  0.00    +0.000 A 
ATOM     15  N   UNL     1       0.058  11.558  21.391  0.00  0.00    +0.000 N 
ATOM     16  C   UNL     1       0.686  10.716  20.492  0.00  0.00    +0.000 A 
ENDBRANCH   5   8
ENDBRANCH   1   2
BRANCH   1  20
ATOM     17  C   UNL     1       7.801   6.882  18.063  0.00  0.00    +0.000 C 
ATOM     18  N   UNL     1       6.485   6.271  18.190  0.00  0.00    +0.000 N 
ATOM     19  C   UNL     1       6.295   5.415  19.350  0.00  0.00    +0.000 C 
ATOM     20  C   UNL     1       5.559   6.575  17.191  0.00  0.00    +0.000 C 
ATOM     21  O   UNL     1       5.920   7.316  16.263  0.00  0.00    +0.000 OA
ENDBRANCH   1  20
BRANCH   1  22
ATOM     22  C   UNL     1       3.802   4.677  17.502  0.00  0.00    +0.000 C 
BRANCH  22  23
ATOM     23  C   UNL     1       2.385   4.276  18.003  0.00  0.00    +0.000 C 
ATOM     24  O   UNL     1       1.396   4.422  17.272  0.00  0.00    +0.000 OA
ATOM     25  N   UNL     1       2.273   3.585  19.190  0.00  0.00    +0.000 N 
ATOM     26  C   UNL     1       1.025   2.924  19.542  0.00  0.00    +0.000 C 
ATOM     27  C   UNL     1       1.362   2.049  20.743  0.00  0.00    +0.000 C 
ATOM     28  C   UNL     1       2.488   2.817  21.406  0.00  0.00    +0.000 C 
ATOM     29  F   UNL     1       1.953   3.852  22.114  0.00  0.00    +0.000 F 
ATOM     30  C   UNL     1       3.276   3.379  20.228  0.00  0.00    +0.000 C 
ENDBRANCH  22  23
BRANCH  22  31
ATOM     31  N   UNL     1       4.142   3.790  16.344  0.00  0.00    +0.000 NA
ATOM     32  H   UNL     1       4.000   4.356  15.498  0.00  0.00    +0.000 HD
ATOM     33  H   UNL     1       3.382   3.104  16.268  0.00  0.00    +0.000 HD
ENDBRANCH  22  31
ENDBRANCH   1  22
TORSDOF 6
ENDMDL
MODEL 5
REMARK VINA RESULT:      -8.4      0.662      1.476
REMARK  Name = 
REMARK  8 active torsions:
REMARK  status: ('A' for Active; 'I' for Inactive)
REMARK    1  A    between atoms: C_1  and  N_2
REMARK    2  A    between atoms: N_2  and  C_3
REMARK    3  A    between atoms: C_4  and  C_6
REMARK    4  A    between atoms: C_6  and  C_7
REMARK    5  A    between atoms: C_6  and  C_22
REMARK    6  A    between atoms: C_10  and  C_11
REMARK    7  A    between atoms: C_22  and  N_23
REMARK    8  A    between atoms: C_22  and  C_24
REMARK                            x       y       z     vdW  Elec       q    Type
REMARK                         _______ _______ _______ _____ _____    ______ ____
ROOT
ATOM      1  C   UNL     1       2.574   5.356  19.174  0.00  0.00    +0.000 C 
ENDROOT
BRANCH   1   2
ATOM      2  C   UNL     1       2.181   6.828  19.099  0.00  0.00    +0.000 A 
ATOM      3  C   UNL     1       1.786   7.489  20.275  0.00  0.00    +0.000 A 
ATOM      4  C   UNL     1       1.418   8.832  20.245  0.00  0.00    +0.000 A 
ATOM      5  C   UNL     1       1.478   9.551  19.047  0.00  0.00    +0.000 A 
ATOM      6  C   UNL     1       1.852   8.905  17.867  0.00  0.00    +0.000 A 
ATOM      7  C   UNL     1       2.198   7.553  17.895  0.00  0.00    +0.000 A 
BRANCH   5   8
ATOM      8  C   UNL     1       1.233  10.994  19.073  0.00  0.00    +0.000 A 
ATOM      9  C   UNL     1       2.063  11.991  18.392  0.00  0.00    +0.000 A 
ATOM     10  C   UNL     1       1.733  13.298  18.387  0.00  0.00    +0.000 A 
ATOM     11  C   UNL     1       0.550  13.722  19.050  0.00  0.00    +0.000 A 
ATOM     12  N   UNL     1      -0.032  14.894  19.198  0.00  0.00    +0.000 NA
ATOM     13  N   UNL     1      -1.181  14.703  19.939  0.00  0.00    +0.000 NA
ATOM     14  C   UNL     1      -1.271  13.422  20.223  0.00  0.00    +0.000 A 
ATOM     15  N   UNL     1      -0.202  12.755  19.692  0.00  0.00    +0.000 N 
ATOM     16  C   UNL     1       0.120  11.411  19.714  0.00  0.00    +0.000 A 
ENDBRANCH   5   8
ENDBRANCH   1   2
BRANCH   1  20
ATOM     17  C   UNL     1       1.636   2.496  21.630  0.00  0.00    +0.000 C 
ATOM     18  N   UNL     1       2.494   3.343  20.814  0.00  0.00    +0.000 N 
ATOM     19  C   UNL     1       3.881   2.917  20.702  0.00  0.00    +0.000 C 
ATOM     20  C   UNL     1       1.894   4.461  20.232  0.00  0.00    +0.000 C 
ATOM     21  O   UNL     1       0.693   4.667  20.464  0.00  0.00    +0.000 OA
ENDBRANCH   1  20
BRANCH   1  22
ATOM     22  C   UNL     1       2.596   4.732  17.738  0.00  0.00    +0.000 C 
BRANCH  22  23
ATOM     23  C   UNL     1       3.853   3.901  17.350  0.00  0.00    +0.000 C 
ATOM     24  O   UNL     1       3.800   2.665  17.310  0.00  0.00    +0.000 OA
ATOM     25  N   UNL     1       4.962   4.564  16.868  0.00  0.00    +0.000 N 
ATOM     26  C   UNL     1       6.030   3.827  16.208  0.00  0.00    +0.000 C 
ATOM     27  C   UNL     1       6.916   4.893  15.574  0.00  0.00    +0.000 C 
ATOM     28  C   UNL     1       6.735   6.072  16.509  0.00  0.00    +0.000 C 
ATOM     29  F   UNL     1       7.501   5.873  17.618  0.00  0.00    +0.000 F 
ATOM     30  C   UNL     1       5.263   5.989  16.902  0.00  0.00    +0.000 C 
ENDBRANCH  22  23
BRANCH  22  31
ATOM     31  N   UNL     1       1.388   3.916  17.393  0.00  0.00    +0.000 NA
ATOM     32  H   UNL     1       1.472   3.688  16.395  0.00  0.00    +0.000 HD
ATOM     33  H   UNL     1       0.589   4.560  17.396  0.00  0.00    +0.000 HD
ENDBRANCH  22  31
ENDBRANCH   1  22
TORSDOF 6
ENDMDL
MODEL 6
REMARK VINA RESULT:      -8.4      3.752      9.107
REMARK  Name = 
REMARK  8 active torsions:
REMARK  status: ('A' for Active; 'I' for Inactive)
REMARK    1  A    between atoms: C_1  and  N_2
REMARK    2  A    between atoms: N_2  and  C_3
REMARK    3  A    between atoms: C_4  and  C_6
REMARK    4  A    between atoms: C_6  and  C_7
REMARK    5  A    between atoms: C_6  and  C_22
REMARK    6  A    between atoms: C_10  and  C_11
REMARK    7  A    between atoms: C_22  and  N_23
REMARK    8  A    between atoms: C_22  and  C_24
REMARK                            x       y       z     vdW  Elec       q    Type
REMARK                         _______ _______ _______ _____ _____    ______ ____
ROOT
ATOM      1  C   UNL     1       0.294  11.800  19.961  0.00  0.00    +0.000 C 
ENDROOT
BRANCH   1   2
ATOM      2  C   UNL     1       0.901  10.469  19.529  0.00  0.00    +0.000 A 
ATOM      3  C   UNL     1       1.248  10.284  18.179  0.00  0.00    +0.000 A 
ATOM      4  C   UNL     1       1.803   9.082  17.748  0.00  0.00    +0.000 A 
ATOM      5  C   UNL     1       2.059   8.056  18.663  0.00  0.00    +0.000 A 
ATOM      6  C   UNL     1       1.704   8.217  20.004  0.00  0.00    +0.000 A 
ATOM      7  C   UNL     1       1.127   9.415  20.431  0.00  0.00    +0.000 A 
BRANCH   5   8
ATOM      8  C   UNL     1       2.779   6.865  18.210  0.00  0.00    +0.000 A 
ATOM      9  C   UNL     1       2.281   5.493  18.338  0.00  0.00    +0.000 A 
ATOM     10  C   UNL     1       2.958   4.447  17.824  0.00  0.00    +0.000 A 
ATOM     11  C   UNL     1       4.179   4.676  17.134  0.00  0.00    +0.000 A 
ATOM     12  N   UNL     1       5.033   3.883  16.521  0.00  0.00    +0.000 NA
ATOM     13  N   UNL     1       6.048   4.668  16.015  0.00  0.00    +0.000 NA
ATOM     14  C   UNL     1       5.789   5.917  16.331  0.00  0.00    +0.000 A 
ATOM     15  N   UNL     1       4.624   5.982  17.043  0.00  0.00    +0.000 N 
ATOM     16  C   UNL     1       3.949   7.068  17.567  0.00  0.00    +0.000 A 
ENDBRANCH   5   8
ENDBRANCH   1   2
BRANCH   1  20
ATOM     17  C   UNL     1       1.765  14.852  21.861  0.00  0.00    +0.000 C 
ATOM     18  N   UNL     1       0.836  13.770  21.564  0.00  0.00    +0.000 N 
ATOM     19  C   UNL     1      -0.387  13.753  22.352  0.00  0.00    +0.000 C 
ATOM     20  C   UNL     1       1.221  12.878  20.562  0.00  0.00    +0.000 C 
ATOM     21  O   UNL     1       2.321  13.050  20.015  0.00  0.00    +0.000 OA
ENDBRANCH   1  20
BRANCH   1  22
ATOM     22  C   UNL     1      -0.665  12.339  18.848  0.00  0.00    +0.000 C 
BRANCH  22  23
ATOM     23  C   UNL     1      -2.170  11.962  18.968  0.00  0.00    +0.000 C 
ATOM     24  O   UNL     1      -2.788  12.174  20.020  0.00  0.00    +0.000 OA
ATOM     25  N   UNL     1      -2.846  11.569  17.834  0.00  0.00    +0.000 N 
ATOM     26  C   UNL     1      -4.301  11.508  17.829  0.00  0.00    +0.000 C 
ATOM     27  C   UNL     1      -4.687  11.322  16.366  0.00  0.00    +0.000 C 
ATOM     28  C   UNL     1      -3.499  10.568  15.804  0.00  0.00    +0.000 C 
ATOM     29  F   UNL     1      -3.605   9.257  16.159  0.00  0.00    +0.000 F 
ATOM     30  C   UNL     1      -2.310  11.184  16.535  0.00  0.00    +0.000 C 
ENDBRANCH  22  23
BRANCH  22  31
ATOM     31  N   UNL     1      -0.585  13.818  18.619  0.00  0.00    +0.000 NA
ATOM     32  H   UNL     1      -0.407  14.241  19.538  0.00  0.00    +0.000 HD
ATOM     33  H   UNL     1      -1.541  14.136  18.422  0.00  0.00    +0.000 HD
ENDBRANCH  22  31
ENDBRANCH   1  22
TORSDOF 6
ENDMDL
MODEL 7
REMARK VINA RESULT:      -8.4      0.506      1.022
REMARK  Name = 
REMARK  8 active torsions:
REMARK  status: ('A' for Active; 'I' for Inactive)
REMARK    1  A    between atoms: C_1  and  N_2
REMARK    2  A    between atoms: N_2  and  C_3
REMARK    3  A    between atoms: C_4  and  C_6
REMARK    4  A    between atoms: C_6  and  C_7
REMARK    5  A    between atoms: C_6  and  C_22
REMARK    6  A    between atoms: C_10  and  C_11
REMARK    7  A    between atoms: C_22  and  N_23
REMARK    8  A    between atoms: C_22  and  C_24
REMARK                            x       y       z     vdW  Elec       q    Type
REMARK                         _______ _______ _______ _____ _____    ______ ____
ROOT
ATOM      1  C   UNL     1       2.578   5.373  19.153  0.00  0.00    +0.000 C 
ENDROOT
BRANCH   1   2
ATOM      2  C   UNL     1       2.159   6.837  19.070  0.00  0.00    +0.000 A 
ATOM      3  C   UNL     1       1.787   7.507  20.249  0.00  0.00    +0.000 A 
ATOM      4  C   UNL     1       1.395   8.844  20.211  0.00  0.00    +0.000 A 
ATOM      5  C   UNL     1       1.408   9.547  19.003  0.00  0.00    +0.000 A 
ATOM      6  C   UNL     1       1.759   8.891  17.821  0.00  0.00    +0.000 A 
ATOM      7  C   UNL     1       2.128   7.545  17.857  0.00  0.00    +0.000 A 
BRANCH   5   8
ATOM      8  C   UNL     1       1.139  10.986  19.016  0.00  0.00    +0.000 A 
ATOM      9  C   UNL     1      -0.048  11.604  19.612  0.00  0.00    +0.000 A 
ATOM     10  C   UNL     1      -0.194  12.943  19.665  0.00  0.00    +0.000 A 
ATOM     11  C   UNL     1       0.829  13.778  19.140  0.00  0.00    +0.000 A 
ATOM     12  N   UNL     1       0.981  15.084  19.067  0.00  0.00    +0.000 NA
ATOM     13  N   UNL     1       2.192  15.334  18.454  0.00  0.00    +0.000 NA
ATOM     14  C   UNL     1       2.748  14.177  18.170  0.00  0.00    +0.000 A 
ATOM     15  N   UNL     1       1.930  13.159  18.575  0.00  0.00    +0.000 N 
ATOM     16  C   UNL     1       2.096  11.789  18.506  0.00  0.00    +0.000 A 
ENDBRANCH   5   8
ENDBRANCH   1   2
BRANCH   1  20
ATOM     17  C   UNL     1       1.711   2.512  21.635  0.00  0.00    +0.000 C 
ATOM     18  N   UNL     1       2.547   3.364  20.800  0.00  0.00    +0.000 N 
ATOM     19  C   UNL     1       3.934   2.949  20.662  0.00  0.00    +0.000 C 
ATOM     20  C   UNL     1       1.926   4.475  20.227  0.00  0.00    +0.000 C 
ATOM     21  O   UNL     1       0.728   4.672  20.481  0.00  0.00    +0.000 OA
ENDBRANCH   1  20
BRANCH   1  22
ATOM     22  C   UNL     1       2.595   4.737  17.723  0.00  0.00    +0.000 C 
BRANCH  22  23
ATOM     23  C   UNL     1       3.866   3.932  17.324  0.00  0.00    +0.000 C 
ATOM     24  O   UNL     1       3.838   2.695  17.281  0.00  0.00    +0.000 OA
ATOM     25  N   UNL     1       4.958   4.617  16.837  0.00  0.00    +0.000 N 
ATOM     26  C   UNL     1       6.036   3.904  16.168  0.00  0.00    +0.000 C 
ATOM     27  C   UNL     1       6.897   4.988  15.531  0.00  0.00    +0.000 C 
ATOM     28  C   UNL     1       6.698   6.162  16.470  0.00  0.00    +0.000 C 
ATOM     29  F   UNL     1       7.476   5.976  17.573  0.00  0.00    +0.000 F 
ATOM     30  C   UNL     1       5.231   6.048  16.873  0.00  0.00    +0.000 C 
ENDBRANCH  22  23
BRANCH  22  31
ATOM     31  N   UNL     1       1.402   3.890  17.402  0.00  0.00    +0.000 NA
ATOM     32  H   UNL     1       1.730   2.916  17.417  0.00  0.00    +0.000 HD
ATOM     33  H   UNL     1       1.204   4.030  16.405  0.00  0.00    +0.000 HD
ENDBRANCH  22  31
ENDBRANCH   1  22
TORSDOF 6
ENDMDL
MODEL 8
REMARK VINA RESULT:      -8.4      3.462      9.143
REMARK  Name = 
REMARK  8 active torsions:
REMARK  status: ('A' for Active; 'I' for Inactive)
REMARK    1  A    between atoms: C_1  and  N_2
REMARK    2  A    between atoms: N_2  and  C_3
REMARK    3  A    between atoms: C_4  and  C_6
REMARK    4  A    between atoms: C_6  and  C_7
REMARK    5  A    between atoms: C_6  and  C_22
REMARK    6  A    between atoms: C_10  and  C_11
REMARK    7  A    between atoms: C_22  and  N_23
REMARK    8  A    between atoms: C_22  and  C_24
REMARK                            x       y       z     vdW  Elec       q    Type
REMARK                         _______ _______ _______ _____ _____    ______ ____
ROOT
ATOM      1  C   UNL     1       0.189  11.453  19.004  0.00  0.00    +0.000 C 
ENDROOT
BRANCH   1   2
ATOM      2  C   UNL     1       0.877  10.091  19.033  0.00  0.00    +0.000 A 
ATOM      3  C   UNL     1       1.496   9.616  17.864  0.00  0.00    +0.000 A 
ATOM      4  C   UNL     1       2.131   8.375  17.852  0.00  0.00    +0.000 A 
ATOM      5  C   UNL     1       2.193   7.606  19.018  0.00  0.00    +0.000 A 
ATOM      6  C   UNL     1       1.568   8.056  20.182  0.00  0.00    +0.000 A 
ATOM      7  C   UNL     1       0.912   9.289  20.186  0.00  0.00    +0.000 A 
BRANCH   5   8
ATOM      8  C   UNL     1       2.994   6.381  19.017  0.00  0.00    +0.000 A 
ATOM      9  C   UNL     1       4.277   6.226  18.325  0.00  0.00    +0.000 A 
ATOM     10  C   UNL     1       5.005   5.097  18.433  0.00  0.00    +0.000 A 
ATOM     11  C   UNL     1       4.526   4.033  19.244  0.00  0.00    +0.000 A 
ATOM     12  N   UNL     1       5.007   2.847  19.556  0.00  0.00    +0.000 NA
ATOM     13  N   UNL     1       4.104   2.235  20.401  0.00  0.00    +0.000 NA
ATOM     14  C   UNL     1       3.098   3.061  20.584  0.00  0.00    +0.000 A 
ATOM     15  N   UNL     1       3.306   4.209  19.873  0.00  0.00    +0.000 N 
ATOM     16  C   UNL     1       2.542   5.356  19.771  0.00  0.00    +0.000 A 
ENDBRANCH   5   8
ENDBRANCH   1   2
BRANCH   1  20
ATOM     17  C   UNL     1      -3.673  11.869  19.063  0.00  0.00    +0.000 C 
ATOM     18  N   UNL     1      -2.358  11.569  18.512  0.00  0.00    +0.000 N 
ATOM     19  C   UNL     1      -2.314  11.334  17.077  0.00  0.00    +0.000 C 
ATOM     20  C   UNL     1      -1.295  11.543  19.416  0.00  0.00    +0.000 C 
ATOM     21  O   UNL     1      -1.540  11.751  20.614  0.00  0.00    +0.000 OA
ENDBRANCH   1  20
BRANCH   1  22
ATOM     22  C   UNL     1       1.101  12.529  19.683  0.00  0.00    +0.000 C 
BRANCH  22  23
ATOM     23  C   UNL     1       0.861  14.013  19.279  0.00  0.00    +0.000 C 
ATOM     24  O   UNL     1      -0.233  14.552  19.489  0.00  0.00    +0.000 OA
ATOM     25  N   UNL     1       1.937  14.767  18.863  0.00  0.00    +0.000 N 
ATOM     26  C   UNL     1       1.829  16.216  18.775  0.00  0.00    +0.000 C 
ATOM     27  C   UNL     1       3.256  16.710  18.570  0.00  0.00    +0.000 C 
ATOM     28  C   UNL     1       3.903  15.555  17.832  0.00  0.00    +0.000 C 
ATOM     29  F   UNL     1       3.531  15.608  16.522  0.00  0.00    +0.000 F 
ATOM     30  C   UNL     1       3.271  14.325  18.477  0.00  0.00    +0.000 C 
ENDBRANCH  22  23
BRANCH  22  31
ATOM     31  N   UNL     1       1.132  12.466  21.179  0.00  0.00    +0.000 NA
ATOM     32  H   UNL     1       2.120  12.543  21.448  0.00  0.00    +0.000 HD
ATOM     33  H   UNL     1       0.918  11.495  21.436  0.00  0.00    +0.000 HD
ENDBRANCH  22  31
ENDBRANCH   1  22
TORSDOF 6
ENDMDL
MODEL 9
REMARK VINA RESULT:      -8.4      4.053      9.847
REMARK  Name = 
REMARK  8 active torsions:
REMARK  status: ('A' for Active; 'I' for Inactive)
REMARK    1  A    between atoms: C_1  and  N_2
REMARK    2  A    between atoms: N_2  and  C_3
REMARK    3  A    between atoms: C_4  and  C_6
REMARK    4  A    between atoms: C_6  and  C_7
REMARK    5  A    between atoms: C_6  and  C_22
REMARK    6  A    between atoms: C_10  and  C_11
REMARK    7  A    between atoms: C_22  and  N_23
REMARK    8  A    between atoms: C_22  and  C_24
REMARK                            x       y       z     vdW  Elec       q    Type
REMARK                         _______ _______ _______ _____ _____    ______ ____
ROOT
ATOM      1  C   UNL     1       0.115  11.847  19.577  0.00  0.00    +0.000 C 
ENDROOT
BRANCH   1   2
ATOM      2  C   UNL     1       0.754  10.462  19.552  0.00  0.00    +0.000 A 
ATOM      3  C   UNL     1       0.772   9.698  20.732  0.00  0.00    +0.000 A 
ATOM      4  C   UNL     1       1.350   8.431  20.748  0.00  0.00    +0.000 A 
ATOM      5  C   UNL     1       1.884   7.886  19.576  0.00  0.00    +0.000 A 
ATOM      6  C   UNL     1       1.890   8.639  18.400  0.00  0.00    +0.000 A 
ATOM      7  C   UNL     1       1.331   9.919  18.391  0.00  0.00    +0.000 A 
BRANCH   5   8
ATOM      8  C   UNL     1       2.346   6.498  19.586  0.00  0.00    +0.000 A 
ATOM      9  C   UNL     1       3.289   5.928  18.620  0.00  0.00    +0.000 A 
ATOM     10  C   UNL     1       3.739   4.663  18.735  0.00  0.00    +0.000 A 
ATOM     11  C   UNL     1       3.298   3.861  19.823  0.00  0.00    +0.000 A 
ATOM     12  N   UNL     1       3.568   2.631  20.207  0.00  0.00    +0.000 NA
ATOM     13  N   UNL     1       2.847   2.382  21.358  0.00  0.00    +0.000 NA
ATOM     14  C   UNL     1       2.160   3.463  21.647  0.00  0.00    +0.000 A 
ATOM     15  N   UNL     1       2.399   4.429  20.709  0.00  0.00    +0.000 N 
ATOM     16  C   UNL     1       1.922   5.721  20.606  0.00  0.00    +0.000 A 
ENDBRANCH   5   8
ENDBRANCH   1   2
BRANCH   1  20
ATOM     17  C   UNL     1       1.868  15.312  19.680  0.00  0.00    +0.000 C 
ATOM     18  N   UNL     1       1.168  14.140  20.189  0.00  0.00    +0.000 N 
ATOM     19  C   UNL     1       0.722  14.223  21.572  0.00  0.00    +0.000 C 
ATOM     20  C   UNL     1       1.003  13.078  19.299  0.00  0.00    +0.000 C 
ATOM     21  O   UNL     1       1.476  13.192  18.158  0.00  0.00    +0.000 OA
ENDBRANCH   1  20
BRANCH   1  22
ATOM     22  C   UNL     1      -1.223  11.836  18.764  0.00  0.00    +0.000 C 
BRANCH  22  23
ATOM     23  C   UNL     1      -2.515  12.247  19.527  0.00  0.00    +0.000 C 
ATOM     24  O   UNL     1      -2.449  12.973  20.528  0.00  0.00    +0.000 OA
ATOM     25  N   UNL     1      -3.738  11.953  18.963  0.00  0.00    +0.000 N 
ATOM     26  C   UNL     1      -4.951  12.580  19.469  0.00  0.00    +0.000 C 
ATOM     27  C   UNL     1      -6.029  12.247  18.445  0.00  0.00    +0.000 C 
ATOM     28  C   UNL     1      -5.562  10.913  17.896  0.00  0.00    +0.000 C 
ATOM     29  F   UNL     1      -5.888   9.935  18.787  0.00  0.00    +0.000 F 
ATOM     30  C   UNL     1      -4.044  11.059  17.854  0.00  0.00    +0.000 C 
ENDBRANCH  22  23
BRANCH  22  31
ATOM     31  N   UNL     1      -1.183  12.615  17.485  0.00  0.00    +0.000 NA
ATOM     32  H   UNL     1      -0.787  13.534  17.723  0.00  0.00    +0.000 HD
ATOM     33  H   UNL     1      -2.154  12.856  17.259  0.00  0.00    +0.000 HD
ENDBRANCH  22  31
ENDBRANCH   1  22
TORSDOF 6
ENDMDL
