MODEL 1
REMARK VINA RESULT:      -7.2      0.000      0.000
REMARK  Name = 
REMARK  6 active torsions:
REMARK  status: ('A' for Active; 'I' for Inactive)
REMARK    1  A    between atoms: C_1  and  N_2
REMARK    2  A    between atoms: C_5  and  C_6
REMARK    3  A    between atoms: N_8  and  C_9
REMARK    4  A    between atoms: C_12  and  C_13
REMARK    5  A    between atoms: C_13  and  O_15
REMARK    6  A    between atoms: N_20  and  C_21
REMARK                            x       y       z     vdW  Elec       q    Type
REMARK                         _______ _______ _______ _____ _____    ______ ____
ROOT
ATOM      1  C   UNL     1       3.188   5.376  18.328  0.00  0.00    +0.000 C 
ATOM      2  O   UNL     1       2.072   4.856  18.335  0.00  0.00    +0.000 OA
ATOM      3  N   UNL     1       3.435   6.740  18.417  0.00  0.00    +0.000 N 
ATOM      4  H   UNL     1       4.342   7.069  18.099  0.00  0.00    +0.000 HD
ENDROOT
BRANCH   1   9
ATOM      5  C   UNL     1       7.747   6.287  18.577  0.00  0.00    +0.000 C 
ATOM      6  N   UNL     1       6.606   5.622  17.974  0.00  0.00    +0.000 N 
ATOM      7  C   UNL     1       5.590   5.173  18.792  0.00  0.00    +0.000 C 
ATOM      8  O   UNL     1       5.598   5.309  20.019  0.00  0.00    +0.000 OA
ATOM      9  C   UNL     1       4.417   4.515  18.148  0.00  0.00    +0.000 C 
ATOM     10  C   UNL     1       4.592   4.164  16.705  0.00  0.00    +0.000 C 
ATOM     11  O   UNL     1       3.878   3.297  16.193  0.00  0.00    +0.000 OA
ATOM     12  N   UNL     1       5.555   4.858  16.002  0.00  0.00    +0.000 N 
ATOM     13  C   UNL     1       5.593   4.723  14.555  0.00  0.00    +0.000 C 
ATOM     14  C   UNL     1       6.606   5.542  16.587  0.00  0.00    +0.000 C 
ATOM     15  O   UNL     1       7.521   6.024  15.914  0.00  0.00    +0.000 OA
ENDBRANCH   1   9
BRANCH   3  16
ATOM     16  C   UNL     1       2.472   7.731  18.714  0.00  0.00    +0.000 A 
ATOM     17  C   UNL     1       1.958   8.598  17.747  0.00  0.00    +0.000 A 
ATOM     18  C   UNL     1       1.007   9.564  18.084  0.00  0.00    +0.000 A 
ATOM     19  C   UNL     1       0.549   9.681  19.397  0.00  0.00    +0.000 A 
ATOM     20  C   UNL     1       1.033   8.796  20.370  0.00  0.00    +0.000 A 
ATOM     21  C   UNL     1       1.988   7.825  20.026  0.00  0.00    +0.000 A 
BRANCH  19  22
ATOM     22  C   UNL     1      -0.487  10.712  19.674  0.00  0.00    +0.000 C 
ATOM     23  O   UNL     1      -0.848  10.992  20.804  0.00  0.00    +0.000 OA
BRANCH  22  24
ATOM     24  O   UNL     1      -1.019  11.279  18.573  0.00  0.00    +0.000 OA
ATOM     25  H   UNL     1      -1.184  10.670  17.831  0.00  0.00    +0.000 HD
ENDBRANCH  22  24
ENDBRANCH  19  22
ENDBRANCH   3  16
TORSDOF 4
ENDMDL
MODEL 2
REMARK VINA RESULT:      -7.1      3.572      8.059
REMARK  Name = 
REMARK  6 active torsions:
REMARK  status: ('A' for Active; 'I' for Inactive)
REMARK    1  A    between atoms: C_1  and  N_2
REMARK    2  A    between atoms: C_5  and  C_6
REMARK    3  A    between atoms: N_8  and  C_9
REMARK    4  A    between atoms: C_12  and  C_13
REMARK    5  A    between atoms: C_13  and  O_15
REMARK    6  A    between atoms: N_20  and  C_21
REMARK                            x       y       z     vdW  Elec       q    Type
REMARK                         _______ _______ _______ _____ _____    ______ ____
ROOT
ATOM      1  C   UNL     1       0.804   8.416  20.968  0.00  0.00    +0.000 C 
ATOM      2  O   UNL     1      -0.253   7.853  21.253  0.00  0.00    +0.000 OA
ATOM      3  N   UNL     1       1.934   7.787  20.461  0.00  0.00    +0.000 N 
ATOM      4  H   UNL     1       2.819   8.276  20.552  0.00  0.00    +0.000 HD
ENDROOT
BRANCH   1   9
ATOM      5  C   UNL     1      -1.824  11.527  23.225  0.00  0.00    +0.000 C 
ATOM      6  N   UNL     1      -0.960  11.140  22.124  0.00  0.00    +0.000 N 
ATOM      7  C   UNL     1       0.104  10.300  22.378  0.00  0.00    +0.000 C 
ATOM      8  O   UNL     1       0.362   9.854  23.500  0.00  0.00    +0.000 OA
ATOM      9  C   UNL     1       0.962   9.896  21.228  0.00  0.00    +0.000 C 
ATOM     10  C   UNL     1       0.744  10.666  19.965  0.00  0.00    +0.000 C 
ATOM     11  O   UNL     1       1.627  10.695  19.103  0.00  0.00    +0.000 OA
ATOM     12  N   UNL     1      -0.471  11.303  19.819  0.00  0.00    +0.000 N 
ATOM     13  C   UNL     1      -0.817  11.855  18.520  0.00  0.00    +0.000 C 
ATOM     14  C   UNL     1      -1.319  11.614  20.868  0.00  0.00    +0.000 C 
ATOM     15  O   UNL     1      -2.323  12.311  20.705  0.00  0.00    +0.000 OA
ENDBRANCH   1   9
BRANCH   3  16
ATOM     16  C   UNL     1       1.998   6.446  20.018  0.00  0.00    +0.000 A 
ATOM     17  C   UNL     1       1.808   5.358  20.873  0.00  0.00    +0.000 A 
ATOM     18  C   UNL     1       1.879   4.048  20.393  0.00  0.00    +0.000 A 
ATOM     19  C   UNL     1       2.141   3.800  19.044  0.00  0.00    +0.000 A 
ATOM     20  C   UNL     1       2.301   4.883  18.169  0.00  0.00    +0.000 A 
ATOM     21  C   UNL     1       2.227   6.198  18.657  0.00  0.00    +0.000 A 
BRANCH  19  22
ATOM     22  C   UNL     1       2.171   2.380  18.600  0.00  0.00    +0.000 C 
ATOM     23  O   UNL     1       3.200   1.818  18.270  0.00  0.00    +0.000 OA
BRANCH  22  24
ATOM     24  O   UNL     1       0.962   1.783  18.557  0.00  0.00    +0.000 OA
ATOM     25  H   UNL     1       0.200   2.387  18.605  0.00  0.00    +0.000 HD
ENDBRANCH  22  24
ENDBRANCH  19  22
ENDBRANCH   3  16
TORSDOF 4
ENDMDL
MODEL 3
REMARK VINA RESULT:      -7.1      0.217      1.205
REMARK  Name = 
REMARK  6 active torsions:
REMARK  status: ('A' for Active; 'I' for Inactive)
REMARK    1  A    between atoms: C_1  and  N_2
REMARK    2  A    between atoms: C_5  and  C_6
REMARK    3  A    between atoms: N_8  and  C_9
REMARK    4  A    between atoms: C_12  and  C_13
REMARK    5  A    between atoms: C_13  and  O_15
REMARK    6  A    between atoms: N_20  and  C_21
REMARK                            x       y       z     vdW  Elec       q    Type
REMARK                         _______ _______ _______ _____ _____    ______ ____
ROOT
ATOM      1  C   UNL     1       3.263   5.311  18.480  0.00  0.00    +0.000 C 
ATOM      2  O   UNL     1       2.174   4.758  18.631  0.00  0.00    +0.000 OA
ATOM      3  N   UNL     1       3.465   6.686  18.449  0.00  0.00    +0.000 N 
ATOM      4  H   UNL     1       4.324   7.020  18.023  0.00  0.00    +0.000 HD
ENDROOT
BRANCH   1   9
ATOM      5  C   UNL     1       7.803   6.347  18.435  0.00  0.00    +0.000 C 
ATOM      6  N   UNL     1       6.646   5.639  17.914  0.00  0.00    +0.000 N 
ATOM      7  C   UNL     1       5.694   5.181  18.801  0.00  0.00    +0.000 C 
ATOM      8  O   UNL     1       5.772   5.342  20.022  0.00  0.00    +0.000 OA
ATOM      9  C   UNL     1       4.503   4.480  18.242  0.00  0.00    +0.000 C 
ATOM     10  C   UNL     1       4.600   4.103  16.798  0.00  0.00    +0.000 C 
ATOM     11  O   UNL     1       3.880   3.208  16.347  0.00  0.00    +0.000 OA
ATOM     12  N   UNL     1       5.499   4.808  16.025  0.00  0.00    +0.000 N 
ATOM     13  C   UNL     1       5.454   4.644  14.581  0.00  0.00    +0.000 C 
ATOM     14  C   UNL     1       6.565   5.531  16.532  0.00  0.00    +0.000 C 
ATOM     15  O   UNL     1       7.424   6.023  15.796  0.00  0.00    +0.000 OA
ENDBRANCH   1   9
BRANCH   3  16
ATOM     16  C   UNL     1       2.497   7.664  18.768  0.00  0.00    +0.000 A 
ATOM     17  C   UNL     1       1.969   7.815  20.052  0.00  0.00    +0.000 A 
ATOM     18  C   UNL     1       1.013   8.797  20.324  0.00  0.00    +0.000 A 
ATOM     19  C   UNL     1       0.566   9.650  19.314  0.00  0.00    +0.000 A 
ATOM     20  C   UNL     1       1.110   9.531  18.028  0.00  0.00    +0.000 A 
ATOM     21  C   UNL     1       2.073   8.543  17.761  0.00  0.00    +0.000 A 
BRANCH  19  22
ATOM     22  C   UNL     1      -0.431  10.691  19.686  0.00  0.00    +0.000 C 
ATOM     23  O   UNL     1      -1.313  11.054  18.928  0.00  0.00    +0.000 OA
BRANCH  22  24
ATOM     24  O   UNL     1      -0.252  11.223  20.911  0.00  0.00    +0.000 OA
ATOM     25  H   UNL     1      -0.839  10.874  21.605  0.00  0.00    +0.000 HD
ENDBRANCH  22  24
ENDBRANCH  19  22
ENDBRANCH   3  16
TORSDOF 4
ENDMDL
MODEL 4
REMARK VINA RESULT:      -7.1      3.556      8.011
REMARK  Name = 
REMARK  6 active torsions:
REMARK  status: ('A' for Active; 'I' for Inactive)
REMARK    1  A    between atoms: C_1  and  N_2
REMARK    2  A    between atoms: C_5  and  C_6
REMARK    3  A    between atoms: N_8  and  C_9
REMARK    4  A    between atoms: C_12  and  C_13
REMARK    5  A    between atoms: C_13  and  O_15
REMARK    6  A    between atoms: N_20  and  C_21
REMARK                            x       y       z     vdW  Elec       q    Type
REMARK                         _______ _______ _______ _____ _____    ______ ____
ROOT
ATOM      1  C   UNL     1       0.806   8.423  20.951  0.00  0.00    +0.000 C 
ATOM      2  O   UNL     1      -0.243   7.851  21.246  0.00  0.00    +0.000 OA
ATOM      3  N   UNL     1       1.935   7.805  20.427  0.00  0.00    +0.000 N 
ATOM      4  H   UNL     1       2.817   8.302  20.510  0.00  0.00    +0.000 HD
ENDROOT
BRANCH   1   9
ATOM      5  C   UNL     1      -1.820  11.503  23.254  0.00  0.00    +0.000 C 
ATOM      6  N   UNL     1      -0.966  11.128  22.140  0.00  0.00    +0.000 N 
ATOM      7  C   UNL     1       0.108  10.295  22.378  0.00  0.00    +0.000 C 
ATOM      8  O   UNL     1       0.382   9.846  23.494  0.00  0.00    +0.000 OA
ATOM      9  C   UNL     1       0.955   9.904  21.216  0.00  0.00    +0.000 C 
ATOM     10  C   UNL     1       0.716  10.677  19.959  0.00  0.00    +0.000 C 
ATOM     11  O   UNL     1       1.589  10.718  19.087  0.00  0.00    +0.000 OA
ATOM     12  N   UNL     1      -0.506  11.305  19.831  0.00  0.00    +0.000 N 
ATOM     13  C   UNL     1      -0.872  11.860  18.538  0.00  0.00    +0.000 C 
ATOM     14  C   UNL     1      -1.344  11.605  20.891  0.00  0.00    +0.000 C 
ATOM     15  O   UNL     1      -2.355  12.295  20.744  0.00  0.00    +0.000 OA
ENDBRANCH   1   9
BRANCH   3  16
ATOM     16  C   UNL     1       2.004   6.467  19.977  0.00  0.00    +0.000 A 
ATOM     17  C   UNL     1       2.288   6.130  18.652  0.00  0.00    +0.000 A 
ATOM     18  C   UNL     1       2.346   4.793  18.249  0.00  0.00    +0.000 A 
ATOM     19  C   UNL     1       2.122   3.766  19.167  0.00  0.00    +0.000 A 
ATOM     20  C   UNL     1       1.868   4.090  20.507  0.00  0.00    +0.000 A 
ATOM     21  C   UNL     1       1.812   5.436  20.907  0.00  0.00    +0.000 A 
BRANCH  19  22
ATOM     22  C   UNL     1       2.232   2.367  18.672  0.00  0.00    +0.000 C 
ATOM     23  O   UNL     1       3.296   1.862  18.361  0.00  0.00    +0.000 OA
BRANCH  22  24
ATOM     24  O   UNL     1       1.054   1.720  18.561  0.00  0.00    +0.000 OA
ATOM     25  H   UNL     1       0.348   2.219  18.112  0.00  0.00    +0.000 HD
ENDBRANCH  22  24
ENDBRANCH  19  22
ENDBRANCH   3  16
TORSDOF 4
ENDMDL
MODEL 5
REMARK VINA RESULT:      -6.9      1.775      3.188
REMARK  Name = 
REMARK  6 active torsions:
REMARK  status: ('A' for Active; 'I' for Inactive)
REMARK    1  A    between atoms: C_1  and  N_2
REMARK    2  A    between atoms: C_5  and  C_6
REMARK    3  A    between atoms: N_8  and  C_9
REMARK    4  A    between atoms: C_12  and  C_13
REMARK    5  A    between atoms: C_13  and  O_15
REMARK    6  A    between atoms: N_20  and  C_21
REMARK                            x       y       z     vdW  Elec       q    Type
REMARK                         _______ _______ _______ _____ _____    ______ ____
ROOT
ATOM      1  C   UNL     1       2.900   7.380  17.955  0.00  0.00    +0.000 C 
ATOM      2  O   UNL     1       2.886   8.419  17.297  0.00  0.00    +0.000 OA
ATOM      3  N   UNL     1       2.411   7.244  19.248  0.00  0.00    +0.000 N 
ATOM      4  H   UNL     1       2.744   6.452  19.790  0.00  0.00    +0.000 HD
ENDROOT
BRANCH   1   9
ATOM      5  C   UNL     1       2.891   2.917  19.285  0.00  0.00    +0.000 C 
ATOM      6  N   UNL     1       3.555   4.091  18.746  0.00  0.00    +0.000 N 
ATOM      7  C   UNL     1       2.850   4.925  17.904  0.00  0.00    +0.000 C 
ATOM      8  O   UNL     1       1.675   4.727  17.583  0.00  0.00    +0.000 OA
ATOM      9  C   UNL     1       3.544   6.137  17.384  0.00  0.00    +0.000 C 
ATOM     10  C   UNL     1       5.022   6.175  17.608  0.00  0.00    +0.000 C 
ATOM     11  O   UNL     1       5.732   6.900  16.906  0.00  0.00    +0.000 OA
ATOM     12  N   UNL     1       5.522   5.391  18.628  0.00  0.00    +0.000 N 
ATOM     13  C   UNL     1       6.905   5.580  19.037  0.00  0.00    +0.000 C 
ATOM     14  C   UNL     1       4.857   4.311  19.180  0.00  0.00    +0.000 C 
ATOM     15  O   UNL     1       5.404   3.554  19.986  0.00  0.00    +0.000 OA
ENDBRANCH   1   9
BRANCH   3  16
ATOM     16  C   UNL     1       1.658   8.214  19.947  0.00  0.00    +0.000 A 
ATOM     17  C   UNL     1       1.127   9.347  19.327  0.00  0.00    +0.000 A 
ATOM     18  C   UNL     1       0.387  10.283  20.056  0.00  0.00    +0.000 A 
ATOM     19  C   UNL     1       0.163  10.100  21.421  0.00  0.00    +0.000 A 
ATOM     20  C   UNL     1       0.662   8.951  22.049  0.00  0.00    +0.000 A 
ATOM     21  C   UNL     1       1.404   8.013  21.311  0.00  0.00    +0.000 A 
BRANCH  19  22
ATOM     22  C   UNL     1      -0.660  11.122  22.124  0.00  0.00    +0.000 C 
ATOM     23  O   UNL     1      -0.627  11.272  23.333  0.00  0.00    +0.000 OA
BRANCH  22  24
ATOM     24  O   UNL     1      -1.470  11.837  21.318  0.00  0.00    +0.000 OA
ATOM     25  H   UNL     1      -1.373  11.656  20.367  0.00  0.00    +0.000 HD
ENDBRANCH  22  24
ENDBRANCH  19  22
ENDBRANCH   3  16
TORSDOF 4
ENDMDL
MODEL 6
REMARK VINA RESULT:      -6.8      2.053      3.408
REMARK  Name = 
REMARK  6 active torsions:
REMARK  status: ('A' for Active; 'I' for Inactive)
REMARK    1  A    between atoms: C_1  and  N_2
REMARK    2  A    between atoms: C_5  and  C_6
REMARK    3  A    between atoms: N_8  and  C_9
REMARK    4  A    between atoms: C_12  and  C_13
REMARK    5  A    between atoms: C_13  and  O_15
REMARK    6  A    between atoms: N_20  and  C_21
REMARK                            x       y       z     vdW  Elec       q    Type
REMARK                         _______ _______ _______ _____ _____    ______ ____
ROOT
ATOM      1  C   UNL     1       2.546   7.277  18.346  0.00  0.00    +0.000 C 
ATOM      2  O   UNL     1       2.425   7.234  19.570  0.00  0.00    +0.000 OA
ATOM      3  N   UNL     1       2.036   8.277  17.526  0.00  0.00    +0.000 N 
ATOM      4  H   UNL     1       1.929   8.060  16.540  0.00  0.00    +0.000 HD
ENDROOT
BRANCH   1   9
ATOM      5  C   UNL     1       2.666   2.673  19.034  0.00  0.00    +0.000 C 
ATOM      6  N   UNL     1       3.299   3.932  18.679  0.00  0.00    +0.000 N 
ATOM      7  C   UNL     1       2.579   4.854  17.949  0.00  0.00    +0.000 C 
ATOM      8  O   UNL     1       1.416   4.667  17.581  0.00  0.00    +0.000 OA
ATOM      9  C   UNL     1       3.240   6.149  17.618  0.00  0.00    +0.000 C 
ATOM     10  C   UNL     1       4.712   6.201  17.874  0.00  0.00    +0.000 C 
ATOM     11  O   UNL     1       5.408   7.039  17.294  0.00  0.00    +0.000 OA
ATOM     12  N   UNL     1       5.223   5.297  18.783  0.00  0.00    +0.000 N 
ATOM     13  C   UNL     1       6.592   5.468  19.240  0.00  0.00    +0.000 C 
ATOM     14  C   UNL     1       4.586   4.129  19.164  0.00  0.00    +0.000 C 
ATOM     15  O   UNL     1       5.146   3.284  19.866  0.00  0.00    +0.000 OA
ENDBRANCH   1   9
BRANCH   3  16
ATOM     16  C   UNL     1       1.464   9.490  17.971  0.00  0.00    +0.000 A 
ATOM     17  C   UNL     1       2.225  10.629  18.244  0.00  0.00    +0.000 A 
ATOM     18  C   UNL     1       1.618  11.809  18.682  0.00  0.00    +0.000 A 
ATOM     19  C   UNL     1       0.234  11.873  18.854  0.00  0.00    +0.000 A 
ATOM     20  C   UNL     1      -0.545  10.747  18.553  0.00  0.00    +0.000 A 
ATOM     21  C   UNL     1       0.071   9.564  18.111  0.00  0.00    +0.000 A 
BRANCH  19  22
ATOM     22  C   UNL     1      -0.344  13.172  19.293  0.00  0.00    +0.000 C 
ATOM     23  O   UNL     1       0.343  14.089  19.705  0.00  0.00    +0.000 OA
BRANCH  22  24
ATOM     24  O   UNL     1      -1.690  13.233  19.232  0.00  0.00    +0.000 OA
ATOM     25  H   UNL     1      -2.105  12.613  18.607  0.00  0.00    +0.000 HD
ENDBRANCH  22  24
ENDBRANCH  19  22
ENDBRANCH   3  16
TORSDOF 4
ENDMDL
MODEL 7
REMARK VINA RESULT:      -6.8      2.045      3.426
REMARK  Name = 
REMARK  6 active torsions:
REMARK  status: ('A' for Active; 'I' for Inactive)
REMARK    1  A    between atoms: C_1  and  N_2
REMARK    2  A    between atoms: C_5  and  C_6
REMARK    3  A    between atoms: N_8  and  C_9
REMARK    4  A    between atoms: C_12  and  C_13
REMARK    5  A    between atoms: C_13  and  O_15
REMARK    6  A    between atoms: N_20  and  C_21
REMARK                            x       y       z     vdW  Elec       q    Type
REMARK                         _______ _______ _______ _____ _____    ______ ____
ROOT
ATOM      1  C   UNL     1       2.541   7.282  18.349  0.00  0.00    +0.000 C 
ATOM      2  O   UNL     1       2.433   7.240  19.574  0.00  0.00    +0.000 OA
ATOM      3  N   UNL     1       2.022   8.280  17.534  0.00  0.00    +0.000 N 
ATOM      4  H   UNL     1       1.904   8.061  16.549  0.00  0.00    +0.000 HD
ENDROOT
BRANCH   1   9
ATOM      5  C   UNL     1       2.654   2.677  19.028  0.00  0.00    +0.000 C 
ATOM      6  N   UNL     1       3.288   3.934  18.672  0.00  0.00    +0.000 N 
ATOM      7  C   UNL     1       2.566   4.860  17.948  0.00  0.00    +0.000 C 
ATOM      8  O   UNL     1       1.401   4.676  17.584  0.00  0.00    +0.000 OA
ATOM      9  C   UNL     1       3.228   6.153  17.616  0.00  0.00    +0.000 C 
ATOM     10  C   UNL     1       4.702   6.201  17.865  0.00  0.00    +0.000 C 
ATOM     11  O   UNL     1       5.397   7.039  17.283  0.00  0.00    +0.000 OA
ATOM     12  N   UNL     1       5.215   5.294  18.769  0.00  0.00    +0.000 N 
ATOM     13  C   UNL     1       6.587   5.462  19.220  0.00  0.00    +0.000 C 
ATOM     14  C   UNL     1       4.577   4.127  19.151  0.00  0.00    +0.000 C 
ATOM     15  O   UNL     1       5.139   3.279  19.849  0.00  0.00    +0.000 OA
ENDBRANCH   1   9
BRANCH   3  16
ATOM     16  C   UNL     1       1.452   9.493  17.983  0.00  0.00    +0.000 A 
ATOM     17  C   UNL     1       0.096   9.622  18.292  0.00  0.00    +0.000 A 
ATOM     18  C   UNL     1      -0.425  10.841  18.734  0.00  0.00    +0.000 A 
ATOM     19  C   UNL     1       0.402  11.957  18.875  0.00  0.00    +0.000 A 
ATOM     20  C   UNL     1       1.770  11.833  18.598  0.00  0.00    +0.000 A 
ATOM     21  C   UNL     1       2.290  10.604  18.157  0.00  0.00    +0.000 A 
BRANCH  19  22
ATOM     22  C   UNL     1      -0.219  13.212  19.379  0.00  0.00    +0.000 C 
ATOM     23  O   UNL     1       0.409  14.048  20.005  0.00  0.00    +0.000 OA
BRANCH  22  24
ATOM     24  O   UNL     1      -1.537  13.327  19.119  0.00  0.00    +0.000 OA
ATOM     25  H   UNL     1      -1.795  14.130  18.633  0.00  0.00    +0.000 HD
ENDBRANCH  22  24
ENDBRANCH  19  22
ENDBRANCH   3  16
TORSDOF 4
ENDMDL
MODEL 8
REMARK VINA RESULT:      -6.8      1.829      3.433
REMARK  Name = 
REMARK  6 active torsions:
REMARK  status: ('A' for Active; 'I' for Inactive)
REMARK    1  A    between atoms: C_1  and  N_2
REMARK    2  A    between atoms: C_5  and  C_6
REMARK    3  A    between atoms: N_8  and  C_9
REMARK    4  A    between atoms: C_12  and  C_13
REMARK    5  A    between atoms: C_13  and  O_15
REMARK    6  A    between atoms: N_20  and  C_21
REMARK                            x       y       z     vdW  Elec       q    Type
REMARK                         _______ _______ _______ _____ _____    ______ ____
ROOT
ATOM      1  C   UNL     1       2.879   7.415  18.021  0.00  0.00    +0.000 C 
ATOM      2  O   UNL     1       2.902   8.479  17.404  0.00  0.00    +0.000 OA
ATOM      3  N   UNL     1       2.376   7.244  19.305  0.00  0.00    +0.000 N 
ATOM      4  H   UNL     1       2.680   6.422  19.818  0.00  0.00    +0.000 HD
ENDROOT
BRANCH   1   9
ATOM      5  C   UNL     1       2.811   2.920  19.239  0.00  0.00    +0.000 C 
ATOM      6  N   UNL     1       3.487   4.095  18.717  0.00  0.00    +0.000 N 
ATOM      7  C   UNL     1       2.782   4.963  17.910  0.00  0.00    +0.000 C 
ATOM      8  O   UNL     1       1.597   4.795  17.607  0.00  0.00    +0.000 OA
ATOM      9  C   UNL     1       3.488   6.175  17.406  0.00  0.00    +0.000 C 
ATOM     10  C   UNL     1       4.971   6.181  17.602  0.00  0.00    +0.000 C 
ATOM     11  O   UNL     1       5.681   6.910  16.904  0.00  0.00    +0.000 OA
ATOM     12  N   UNL     1       5.476   5.362  18.592  0.00  0.00    +0.000 N 
ATOM     13  C   UNL     1       6.869   5.515  18.977  0.00  0.00    +0.000 C 
ATOM     14  C   UNL     1       4.801   4.280  19.129  0.00  0.00    +0.000 C 
ATOM     15  O   UNL     1       5.349   3.494  19.905  0.00  0.00    +0.000 OA
ENDBRANCH   1   9
BRANCH   3  16
ATOM     16  C   UNL     1       1.648   8.210  20.036  0.00  0.00    +0.000 A 
ATOM     17  C   UNL     1       1.470   8.134  21.420  0.00  0.00    +0.000 A 
ATOM     18  C   UNL     1       0.742   9.112  22.103  0.00  0.00    +0.000 A 
ATOM     19  C   UNL     1       0.179  10.187  21.415  0.00  0.00    +0.000 A 
ATOM     20  C   UNL     1       0.378  10.293  20.032  0.00  0.00    +0.000 A 
ATOM     21  C   UNL     1       1.112   9.308  19.349  0.00  0.00    +0.000 A 
BRANCH  19  22
ATOM     22  C   UNL     1      -0.555  11.205  22.214  0.00  0.00    +0.000 C 
ATOM     23  O   UNL     1      -0.784  12.327  21.796  0.00  0.00    +0.000 OA
BRANCH  22  24
ATOM     24  O   UNL     1      -0.910  10.796  23.449  0.00  0.00    +0.000 OA
ATOM     25  H   UNL     1      -0.695   9.869  23.656  0.00  0.00    +0.000 HD
ENDBRANCH  22  24
ENDBRANCH  19  22
ENDBRANCH   3  16
TORSDOF 4
ENDMDL
MODEL 9
REMARK VINA RESULT:      -6.8      4.162      6.455
REMARK  Name = 
REMARK  6 active torsions:
REMARK  status: ('A' for Active; 'I' for Inactive)
REMARK    1  A    between atoms: C_1  and  N_2
REMARK    2  A    between atoms: C_5  and  C_6
REMARK    3  A    between atoms: N_8  and  C_9
REMARK    4  A    between atoms: C_12  and  C_13
REMARK    5  A    between atoms: C_13  and  O_15
REMARK    6  A    between atoms: N_20  and  C_21
REMARK                            x       y       z     vdW  Elec       q    Type
REMARK                         _______ _______ _______ _____ _____    ______ ____
ROOT
ATOM      1  C   UNL     1       7.418   7.497  17.610  0.00  0.00    +0.000 C 
ATOM      2  O   UNL     1       6.565   8.132  16.990  0.00  0.00    +0.000 OA
ATOM      3  N   UNL     1       8.504   8.052  18.275  0.00  0.00    +0.000 N 
ATOM      4  H   UNL     1       9.286   7.439  18.481  0.00  0.00    +0.000 HD
ENDROOT
BRANCH   1   9
ATOM      5  C   UNL     1       5.294   4.374  14.885  0.00  0.00    +0.000 C 
ATOM      6  N   UNL     1       5.727   4.854  16.186  0.00  0.00    +0.000 N 
ATOM      7  C   UNL     1       6.952   5.480  16.290  0.00  0.00    +0.000 C 
ATOM      8  O   UNL     1       7.705   5.657  15.328  0.00  0.00    +0.000 OA
ATOM      9  C   UNL     1       7.364   5.987  17.630  0.00  0.00    +0.000 C 
ATOM     10  C   UNL     1       6.527   5.517  18.777  0.00  0.00    +0.000 C 
ATOM     11  O   UNL     1       6.986   5.543  19.923  0.00  0.00    +0.000 OA
ATOM     12  N   UNL     1       5.248   5.087  18.487  0.00  0.00    +0.000 N 
ATOM     13  C   UNL     1       4.326   4.854  19.586  0.00  0.00    +0.000 C 
ATOM     14  C   UNL     1       4.825   4.690  17.231  0.00  0.00    +0.000 C 
ATOM     15  O   UNL     1       3.718   4.177  17.051  0.00  0.00    +0.000 OA
ENDBRANCH   1   9
BRANCH   3  16
ATOM     16  C   UNL     1       8.706   9.432  18.507  0.00  0.00    +0.000 A 
ATOM     17  C   UNL     1       8.381  10.411  17.565  0.00  0.00    +0.000 A 
ATOM     18  C   UNL     1       8.598  11.765  17.835  0.00  0.00    +0.000 A 
ATOM     19  C   UNL     1       9.144  12.166  19.056  0.00  0.00    +0.000 A 
ATOM     20  C   UNL     1       9.444  11.196  20.022  0.00  0.00    +0.000 A 
ATOM     21  C   UNL     1       9.223   9.836  19.746  0.00  0.00    +0.000 A 
BRANCH  19  22
ATOM     22  C   UNL     1       9.316  13.626  19.284  0.00  0.00    +0.000 C 
ATOM     23  O   UNL     1       9.985  14.331  18.548  0.00  0.00    +0.000 OA
BRANCH  22  24
ATOM     24  O   UNL     1       8.706  14.094  20.391  0.00  0.00    +0.000 OA
ATOM     25  H   UNL     1       8.189  14.910  20.267  0.00  0.00    +0.000 HD
ENDBRANCH  22  24
ENDBRANCH  19  22
ENDBRANCH   3  16
TORSDOF 4
ENDMDL
