MODEL 1
REMARK VINA RESULT:      -6.7      0.000      0.000
REMARK  Name = 
REMARK  6 active torsions:
REMARK  status: ('A' for Active; 'I' for Inactive)
REMARK    1  A    between atoms: C_2  and  N_3
REMARK    2  A    between atoms: C_2  and  N_12
REMARK    3  A    between atoms: N_3  and  C_4
REMARK    4  A    between atoms: C_4  and  C_5
REMARK    5  A    between atoms: C_5  and  C_6
REMARK    6  A    between atoms: N_12  and  C_13
REMARK                            x       y       z     vdW  Elec       q    Type
REMARK                         _______ _______ _______ _____ _____    ______ ____
ROOT
ATOM      1  S   UNL     1       3.800   7.482  17.448  0.00  0.00    +0.000 S 
ATOM      2  C   UNL     1       3.822   5.821  17.590  0.00  0.00    +0.000 C 
ENDROOT
BRANCH   2   3
ATOM      3  N   UNL     1       4.297   5.103  16.536  0.00  0.00    +0.000 N 
ATOM      4  H   UNL     1       3.918   5.393  15.641  0.00  0.00    +0.000 HD
BRANCH   3   5
ATOM      5  C   UNL     1       5.164   3.929  16.539  0.00  0.00    +0.000 C 
BRANCH   5   6
ATOM      6  C   UNL     1       6.579   4.310  16.111  0.00  0.00    +0.000 C 
BRANCH   6   7
ATOM      7  C   UNL     1       7.171   5.374  16.994  0.00  0.00    +0.000 A 
ATOM      8  C   UNL     1       7.546   5.078  18.303  0.00  0.00    +0.000 A 
ATOM      9  C   UNL     1       8.044   6.101  19.106  0.00  0.00    +0.000 A 
ATOM     10  C   UNL     1       8.151   7.384  18.587  0.00  0.00    +0.000 A 
ATOM     11  C   UNL     1       7.754   7.593  17.275  0.00  0.00    +0.000 A 
ATOM     12  N   UNL     1       7.266   6.621  16.475  0.00  0.00    +0.000 NA
ENDBRANCH   6   7
ENDBRANCH   5   6
ENDBRANCH   3   5
ENDBRANCH   2   3
BRANCH   2  13
ATOM     13  N   UNL     1       3.448   5.102  18.686  0.00  0.00    +0.000 N 
ATOM     14  H   UNL     1       4.106   5.042  19.450  0.00  0.00    +0.000 HD
BRANCH  13  15
ATOM     15  C   UNL     1       2.137   4.525  18.929  0.00  0.00    +0.000 C 
ATOM     16  C   UNL     1       1.597   4.898  20.326  0.00  0.00    +0.000 C 
ATOM     17  C   UNL     1       1.227   3.533  20.927  0.00  0.00    +0.000 C 
ATOM     18  C   UNL     1       2.521   2.783  21.289  0.00  0.00    +0.000 C 
ATOM     19  C   UNL     1       3.079   2.373  19.918  0.00  0.00    +0.000 C 
ATOM     20  C   UNL     1       2.063   2.980  18.935  0.00  0.00    +0.000 C 
ATOM     21  C   UNL     1       0.750   2.763  19.696  0.00  0.00    +0.000 C 
ENDBRANCH  13  15
ENDBRANCH   2  13
TORSDOF 6
ENDMDL
MODEL 2
REMARK VINA RESULT:      -6.7      1.021      1.470
REMARK  Name = 
REMARK  6 active torsions:
REMARK  status: ('A' for Active; 'I' for Inactive)
REMARK    1  A    between atoms: C_2  and  N_3
REMARK    2  A    between atoms: C_2  and  N_12
REMARK    3  A    between atoms: N_3  and  C_4
REMARK    4  A    between atoms: C_4  and  C_5
REMARK    5  A    between atoms: C_5  and  C_6
REMARK    6  A    between atoms: N_12  and  C_13
REMARK                            x       y       z     vdW  Elec       q    Type
REMARK                         _______ _______ _______ _____ _____    ______ ____
ROOT
ATOM      1  S   UNL     1       3.620   6.806  17.895  0.00  0.00    +0.000 S 
ATOM      2  C   UNL     1       3.129   5.220  17.752  0.00  0.00    +0.000 C 
ENDROOT
BRANCH   2   3
ATOM      3  N   UNL     1       4.039   4.315  17.296  0.00  0.00    +0.000 N 
ATOM      4  H   UNL     1       4.331   3.642  17.996  0.00  0.00    +0.000 HD
BRANCH   3   5
ATOM      5  C   UNL     1       4.714   4.262  16.003  0.00  0.00    +0.000 C 
BRANCH   5   6
ATOM      6  C   UNL     1       6.214   4.050  16.194  0.00  0.00    +0.000 C 
BRANCH   6   7
ATOM      7  C   UNL     1       6.825   5.095  17.086  0.00  0.00    +0.000 A 
ATOM      8  C   UNL     1       7.050   6.385  16.611  0.00  0.00    +0.000 A 
ATOM      9  C   UNL     1       7.663   7.313  17.451  0.00  0.00    +0.000 A 
ATOM     10  C   UNL     1       8.036   6.929  18.731  0.00  0.00    +0.000 A 
ATOM     11  C   UNL     1       7.778   5.625  19.125  0.00  0.00    +0.000 A 
ATOM     12  N   UNL     1       7.188   4.705  18.332  0.00  0.00    +0.000 NA
ENDBRANCH   6   7
ENDBRANCH   5   6
ENDBRANCH   3   5
ENDBRANCH   2   3
BRANCH   2  13
ATOM     13  N   UNL     1       1.906   4.722  18.089  0.00  0.00    +0.000 N 
ATOM     14  H   UNL     1       1.297   4.434  17.338  0.00  0.00    +0.000 HD
BRANCH  13  15
ATOM     15  C   UNL     1       1.439   4.429  19.434  0.00  0.00    +0.000 C 
ATOM     16  C   UNL     1       2.517   4.738  20.495  0.00  0.00    +0.000 C 
ATOM     17  C   UNL     1       2.599   3.427  21.293  0.00  0.00    +0.000 C 
ATOM     18  C   UNL     1       3.311   2.368  20.434  0.00  0.00    +0.000 C 
ATOM     19  C   UNL     1       2.256   2.015  19.374  0.00  0.00    +0.000 C 
ATOM     20  C   UNL     1       1.086   2.951  19.725  0.00  0.00    +0.000 C 
ATOM     21  C   UNL     1       1.150   2.942  21.257  0.00  0.00    +0.000 C 
ENDBRANCH  13  15
ENDBRANCH   2  13
TORSDOF 6
ENDMDL
MODEL 3
REMARK VINA RESULT:      -6.6      2.399      3.750
REMARK  Name = 
REMARK  6 active torsions:
REMARK  status: ('A' for Active; 'I' for Inactive)
REMARK    1  A    between atoms: C_2  and  N_3
REMARK    2  A    between atoms: C_2  and  N_12
REMARK    3  A    between atoms: N_3  and  C_4
REMARK    4  A    between atoms: C_4  and  C_5
REMARK    5  A    between atoms: C_5  and  C_6
REMARK    6  A    between atoms: N_12  and  C_13
REMARK                            x       y       z     vdW  Elec       q    Type
REMARK                         _______ _______ _______ _____ _____    ______ ____
ROOT
ATOM      1  S   UNL     1       5.004   5.729  19.161  0.00  0.00    +0.000 S 
ATOM      2  C   UNL     1       5.390   4.148  18.800  0.00  0.00    +0.000 C 
ENDROOT
BRANCH   2   3
ATOM      3  N   UNL     1       6.448   3.930  17.970  0.00  0.00    +0.000 N 
ATOM      4  H   UNL     1       7.049   3.169  18.267  0.00  0.00    +0.000 HD
BRANCH   3   5
ATOM      5  C   UNL     1       6.880   4.701  16.809  0.00  0.00    +0.000 C 
BRANCH   5   6
ATOM      6  C   UNL     1       5.787   4.719  15.744  0.00  0.00    +0.000 C 
BRANCH   6   7
ATOM      7  C   UNL     1       6.340   4.514  14.361  0.00  0.00    +0.000 A 
ATOM      8  C   UNL     1       7.398   5.296  13.900  0.00  0.00    +0.000 A 
ATOM      9  C   UNL     1       7.850   5.111  12.596  0.00  0.00    +0.000 A 
ATOM     10  C   UNL     1       7.238   4.161  11.790  0.00  0.00    +0.000 A 
ATOM     11  C   UNL     1       6.191   3.428  12.325  0.00  0.00    +0.000 A 
ATOM     12  N   UNL     1       5.729   3.587  13.585  0.00  0.00    +0.000 NA
ENDBRANCH   6   7
ENDBRANCH   5   6
ENDBRANCH   3   5
ENDBRANCH   2   3
BRANCH   2  13
ATOM     13  N   UNL     1       4.774   3.035  19.290  0.00  0.00    +0.000 N 
ATOM     14  H   UNL     1       5.132   2.646  20.150  0.00  0.00    +0.000 HD
BRANCH  13  15
ATOM     15  C   UNL     1       3.558   2.428  18.775  0.00  0.00    +0.000 C 
ATOM     16  C   UNL     1       2.969   3.237  17.599  0.00  0.00    +0.000 C 
ATOM     17  C   UNL     1       1.510   3.456  18.031  0.00  0.00    +0.000 C 
ATOM     18  C   UNL     1       1.478   4.497  19.163  0.00  0.00    +0.000 C 
ATOM     19  C   UNL     1       2.039   3.719  20.363  0.00  0.00    +0.000 C 
ATOM     20  C   UNL     1       2.370   2.343  19.761  0.00  0.00    +0.000 C 
ATOM     21  C   UNL     1       1.203   2.160  18.782  0.00  0.00    +0.000 C 
ENDBRANCH  13  15
ENDBRANCH   2  13
TORSDOF 6
ENDMDL
MODEL 4
REMARK VINA RESULT:      -6.6      1.615      5.604
REMARK  Name = 
REMARK  6 active torsions:
REMARK  status: ('A' for Active; 'I' for Inactive)
REMARK    1  A    between atoms: C_2  and  N_3
REMARK    2  A    between atoms: C_2  and  N_12
REMARK    3  A    between atoms: N_3  and  C_4
REMARK    4  A    between atoms: C_4  and  C_5
REMARK    5  A    between atoms: C_5  and  C_6
REMARK    6  A    between atoms: N_12  and  C_13
REMARK                            x       y       z     vdW  Elec       q    Type
REMARK                         _______ _______ _______ _____ _____    ______ ____
ROOT
ATOM      1  S   UNL     1       2.486   7.975  18.022  0.00  0.00    +0.000 S 
ATOM      2  C   UNL     1       3.070   6.517  18.582  0.00  0.00    +0.000 C 
ENDROOT
BRANCH   2   3
ATOM      3  N   UNL     1       2.919   6.243  19.907  0.00  0.00    +0.000 N 
ATOM      4  H   UNL     1       3.764   6.379  20.450  0.00  0.00    +0.000 HD
BRANCH   3   5
ATOM      5  C   UNL     1       1.765   5.683  20.604  0.00  0.00    +0.000 C 
BRANCH   5   6
ATOM      6  C   UNL     1       2.105   4.311  21.179  0.00  0.00    +0.000 C 
BRANCH   6   7
ATOM      7  C   UNL     1       2.563   3.349  20.118  0.00  0.00    +0.000 A 
ATOM      8  C   UNL     1       3.807   2.729  20.217  0.00  0.00    +0.000 A 
ATOM      9  C   UNL     1       4.217   1.882  19.189  0.00  0.00    +0.000 A 
ATOM     10  C   UNL     1       3.385   1.682  18.097  0.00  0.00    +0.000 A 
ATOM     11  C   UNL     1       2.164   2.339  18.077  0.00  0.00    +0.000 A 
ATOM     12  N   UNL     1       1.741   3.166  19.057  0.00  0.00    +0.000 NA
ENDBRANCH   6   7
ENDBRANCH   5   6
ENDBRANCH   3   5
ENDBRANCH   2   3
BRANCH   2  13
ATOM     13  N   UNL     1       3.652   5.540  17.830  0.00  0.00    +0.000 N 
ATOM     14  H   UNL     1       3.268   4.609  17.899  0.00  0.00    +0.000 HD
BRANCH  13  15
ATOM     15  C   UNL     1       4.685   5.730  16.826  0.00  0.00    +0.000 C 
ATOM     16  C   UNL     1       5.240   4.383  16.314  0.00  0.00    +0.000 C 
ATOM     17  C   UNL     1       6.757   4.546  16.494  0.00  0.00    +0.000 C 
ATOM     18  C   UNL     1       7.091   4.463  17.993  0.00  0.00    +0.000 C 
ATOM     19  C   UNL     1       6.573   5.804  18.537  0.00  0.00    +0.000 C 
ATOM     20  C   UNL     1       5.961   6.470  17.293  0.00  0.00    +0.000 C 
ATOM     21  C   UNL     1       6.953   6.035  16.207  0.00  0.00    +0.000 C 
ENDBRANCH  13  15
ENDBRANCH   2  13
TORSDOF 6
ENDMDL
MODEL 5
REMARK VINA RESULT:      -6.5      0.902      1.247
REMARK  Name = 
REMARK  6 active torsions:
REMARK  status: ('A' for Active; 'I' for Inactive)
REMARK    1  A    between atoms: C_2  and  N_3
REMARK    2  A    between atoms: C_2  and  N_12
REMARK    3  A    between atoms: N_3  and  C_4
REMARK    4  A    between atoms: C_4  and  C_5
REMARK    5  A    between atoms: C_5  and  C_6
REMARK    6  A    between atoms: N_12  and  C_13
REMARK                            x       y       z     vdW  Elec       q    Type
REMARK                         _______ _______ _______ _____ _____    ______ ____
ROOT
ATOM      1  S   UNL     1       2.641   7.704  18.107  0.00  0.00    +0.000 S 
ATOM      2  C   UNL     1       3.525   6.296  17.987  0.00  0.00    +0.000 C 
ENDROOT
BRANCH   2   3
ATOM      3  N   UNL     1       4.426   6.200  16.971  0.00  0.00    +0.000 N 
ATOM      4  H   UNL     1       4.884   7.077  16.747  0.00  0.00    +0.000 HD
BRANCH   3   5
ATOM      5  C   UNL     1       4.723   5.059  16.111  0.00  0.00    +0.000 C 
BRANCH   5   6
ATOM      6  C   UNL     1       6.213   4.730  16.157  0.00  0.00    +0.000 C 
BRANCH   6   7
ATOM      7  C   UNL     1       6.973   5.668  17.055  0.00  0.00    +0.000 A 
ATOM      8  C   UNL     1       7.443   5.233  18.292  0.00  0.00    +0.000 A 
ATOM      9  C   UNL     1       8.099   6.144  19.117  0.00  0.00    +0.000 A 
ATOM     10  C   UNL     1       8.263   7.455  18.691  0.00  0.00    +0.000 A 
ATOM     11  C   UNL     1       7.763   7.804  17.447  0.00  0.00    +0.000 A 
ATOM     12  N   UNL     1       7.121   6.944  16.627  0.00  0.00    +0.000 NA
ENDBRANCH   6   7
ENDBRANCH   5   6
ENDBRANCH   3   5
ENDBRANCH   2   3
BRANCH   2  13
ATOM     13  N   UNL     1       3.468   5.234  18.840  0.00  0.00    +0.000 N 
ATOM     14  H   UNL     1       4.318   4.974  19.316  0.00  0.00    +0.000 HD
BRANCH  13  15
ATOM     15  C   UNL     1       2.268   4.520  19.244  0.00  0.00    +0.000 C 
ATOM     16  C   UNL     1       2.566   3.473  20.338  0.00  0.00    +0.000 C 
ATOM     17  C   UNL     1       1.954   2.187  19.759  0.00  0.00    +0.000 C 
ATOM     18  C   UNL     1       2.845   1.688  18.609  0.00  0.00    +0.000 C 
ATOM     19  C   UNL     1       2.557   2.697  17.486  0.00  0.00    +0.000 C 
ATOM     20  C   UNL     1       1.574   3.679  18.146  0.00  0.00    +0.000 C 
ATOM     21  C   UNL     1       0.737   2.726  19.007  0.00  0.00    +0.000 C 
ENDBRANCH  13  15
ENDBRANCH   2  13
TORSDOF 6
ENDMDL
MODEL 6
REMARK VINA RESULT:      -6.5      1.860      3.279
REMARK  Name = 
REMARK  6 active torsions:
REMARK  status: ('A' for Active; 'I' for Inactive)
REMARK    1  A    between atoms: C_2  and  N_3
REMARK    2  A    between atoms: C_2  and  N_12
REMARK    3  A    between atoms: N_3  and  C_4
REMARK    4  A    between atoms: C_4  and  C_5
REMARK    5  A    between atoms: C_5  and  C_6
REMARK    6  A    between atoms: N_12  and  C_13
REMARK                            x       y       z     vdW  Elec       q    Type
REMARK                         _______ _______ _______ _____ _____    ______ ____
ROOT
ATOM      1  S   UNL     1       2.999   7.281  18.187  0.00  0.00    +0.000 S 
ATOM      2  C   UNL     1       3.602   5.789  17.750  0.00  0.00    +0.000 C 
ENDROOT
BRANCH   2   3
ATOM      3  N   UNL     1       4.770   5.759  17.052  0.00  0.00    +0.000 N 
ATOM      4  H   UNL     1       4.890   6.546  16.423  0.00  0.00    +0.000 HD
BRANCH   3   5
ATOM      5  C   UNL     1       5.788   4.714  17.006  0.00  0.00    +0.000 C 
BRANCH   5   6
ATOM      6  C   UNL     1       7.022   5.205  16.253  0.00  0.00    +0.000 C 
BRANCH   6   7
ATOM      7  C   UNL     1       6.965   4.866  14.789  0.00  0.00    +0.000 A 
ATOM      8  C   UNL     1       6.085   3.891  14.324  0.00  0.00    +0.000 A 
ATOM      9  C   UNL     1       6.095   3.570  12.969  0.00  0.00    +0.000 A 
ATOM     10  C   UNL     1       6.980   4.221  12.121  0.00  0.00    +0.000 A 
ATOM     11  C   UNL     1       7.823   5.177  12.665  0.00  0.00    +0.000 A 
ATOM     12  N   UNL     1       7.837   5.507  13.975  0.00  0.00    +0.000 NA
ENDBRANCH   6   7
ENDBRANCH   5   6
ENDBRANCH   3   5
ENDBRANCH   2   3
BRANCH   2  13
ATOM     13  N   UNL     1       3.060   4.578  18.062  0.00  0.00    +0.000 N 
ATOM     14  H   UNL     1       2.550   4.096  17.336  0.00  0.00    +0.000 HD
BRANCH  13  15
ATOM     15  C   UNL     1       3.259   3.839  19.298  0.00  0.00    +0.000 C 
ATOM     16  C   UNL     1       2.669   2.415  19.215  0.00  0.00    +0.000 C 
ATOM     17  C   UNL     1       1.776   2.341  20.463  0.00  0.00    +0.000 C 
ATOM     18  C   UNL     1       0.524   3.204  20.230  0.00  0.00    +0.000 C 
ATOM     19  C   UNL     1       1.069   4.638  20.328  0.00  0.00    +0.000 C 
ATOM     20  C   UNL     1       2.575   4.421  20.557  0.00  0.00    +0.000 C 
ATOM     21  C   UNL     1       2.561   3.187  21.466  0.00  0.00    +0.000 C 
ENDBRANCH  13  15
ENDBRANCH   2  13
TORSDOF 6
ENDMDL
MODEL 7
REMARK VINA RESULT:      -6.5      2.339      3.637
REMARK  Name = 
REMARK  6 active torsions:
REMARK  status: ('A' for Active; 'I' for Inactive)
REMARK    1  A    between atoms: C_2  and  N_3
REMARK    2  A    between atoms: C_2  and  N_12
REMARK    3  A    between atoms: N_3  and  C_4
REMARK    4  A    between atoms: C_4  and  C_5
REMARK    5  A    between atoms: C_5  and  C_6
REMARK    6  A    between atoms: N_12  and  C_13
REMARK                            x       y       z     vdW  Elec       q    Type
REMARK                         _______ _______ _______ _____ _____    ______ ____
ROOT
ATOM      1  S   UNL     1       7.070   5.481  19.526  0.00  0.00    +0.000 S 
ATOM      2  C   UNL     1       5.633   5.308  18.698  0.00  0.00    +0.000 C 
ENDROOT
BRANCH   2   3
ATOM      3  N   UNL     1       5.360   6.205  17.710  0.00  0.00    +0.000 N 
ATOM      4  H   UNL     1       4.890   7.042  18.037  0.00  0.00    +0.000 HD
BRANCH   3   5
ATOM      5  C   UNL     1       5.546   6.069  16.269  0.00  0.00    +0.000 C 
BRANCH   5   6
ATOM      6  C   UNL     1       6.715   5.135  15.968  0.00  0.00    +0.000 C 
BRANCH   6   7
ATOM      7  C   UNL     1       6.808   4.797  14.506  0.00  0.00    +0.000 A 
ATOM      8  C   UNL     1       6.062   3.747  13.975  0.00  0.00    +0.000 A 
ATOM      9  C   UNL     1       6.212   3.432  12.626  0.00  0.00    +0.000 A 
ATOM     10  C   UNL     1       7.099   4.164  11.850  0.00  0.00    +0.000 A 
ATOM     11  C   UNL     1       7.805   5.191  12.457  0.00  0.00    +0.000 A 
ATOM     12  N   UNL     1       7.681   5.517  13.762  0.00  0.00    +0.000 NA
ENDBRANCH   6   7
ENDBRANCH   5   6
ENDBRANCH   3   5
ENDBRANCH   2   3
BRANCH   2  13
ATOM     13  N   UNL     1       4.710   4.322  18.884  0.00  0.00    +0.000 N 
ATOM     14  H   UNL     1       4.854   3.452  18.393  0.00  0.00    +0.000 HD
BRANCH  13  15
ATOM     15  C   UNL     1       3.608   4.343  19.831  0.00  0.00    +0.000 C 
ATOM     16  C   UNL     1       3.065   2.925  20.110  0.00  0.00    +0.000 C 
ATOM     17  C   UNL     1       1.558   3.078  19.851  0.00  0.00    +0.000 C 
ATOM     18  C   UNL     1       1.325   3.201  18.335  0.00  0.00    +0.000 C 
ATOM     19  C   UNL     1       1.834   4.617  18.021  0.00  0.00    +0.000 C 
ATOM     20  C   UNL     1       2.342   5.113  19.386  0.00  0.00    +0.000 C 
ATOM     21  C   UNL     1       1.297   4.506  20.329  0.00  0.00    +0.000 C 
ENDBRANCH  13  15
ENDBRANCH   2  13
TORSDOF 6
ENDMDL
MODEL 8
REMARK VINA RESULT:      -6.5      2.311      3.673
REMARK  Name = 
REMARK  6 active torsions:
REMARK  status: ('A' for Active; 'I' for Inactive)
REMARK    1  A    between atoms: C_2  and  N_3
REMARK    2  A    between atoms: C_2  and  N_12
REMARK    3  A    between atoms: N_3  and  C_4
REMARK    4  A    between atoms: C_4  and  C_5
REMARK    5  A    between atoms: C_5  and  C_6
REMARK    6  A    between atoms: N_12  and  C_13
REMARK                            x       y       z     vdW  Elec       q    Type
REMARK                         _______ _______ _______ _____ _____    ______ ____
ROOT
ATOM      1  S   UNL     1       6.680   5.417  19.276  0.00  0.00    +0.000 S 
ATOM      2  C   UNL     1       5.401   4.489  18.745  0.00  0.00    +0.000 C 
ENDROOT
BRANCH   2   3
ATOM      3  N   UNL     1       5.627   3.633  17.710  0.00  0.00    +0.000 N 
ATOM      4  H   UNL     1       6.366   2.962  17.889  0.00  0.00    +0.000 HD
BRANCH   3   5
ATOM      5  C   UNL     1       5.041   3.634  16.373  0.00  0.00    +0.000 C 
BRANCH   5   6
ATOM      6  C   UNL     1       5.392   4.925  15.638  0.00  0.00    +0.000 C 
BRANCH   6   7
ATOM      7  C   UNL     1       6.047   4.662  14.311  0.00  0.00    +0.000 A 
ATOM      8  C   UNL     1       5.513   3.719  13.435  0.00  0.00    +0.000 A 
ATOM      9  C   UNL     1       6.176   3.467  12.235  0.00  0.00    +0.000 A 
ATOM     10  C   UNL     1       7.347   4.154  11.946  0.00  0.00    +0.000 A 
ATOM     11  C   UNL     1       7.810   5.074  12.874  0.00  0.00    +0.000 A 
ATOM     12  N   UNL     1       7.191   5.337  14.044  0.00  0.00    +0.000 NA
ENDBRANCH   6   7
ENDBRANCH   5   6
ENDBRANCH   3   5
ENDBRANCH   2   3
BRANCH   2  13
ATOM     13  N   UNL     1       4.146   4.467  19.278  0.00  0.00    +0.000 N 
ATOM     14  H   UNL     1       3.503   5.187  18.982  0.00  0.00    +0.000 HD
BRANCH  13  15
ATOM     15  C   UNL     1       3.590   3.426  20.126  0.00  0.00    +0.000 C 
ATOM     16  C   UNL     1       2.699   2.451  19.327  0.00  0.00    +0.000 C 
ATOM     17  C   UNL     1       1.390   2.445  20.132  0.00  0.00    +0.000 C 
ATOM     18  C   UNL     1       0.661   3.781  19.906  0.00  0.00    +0.000 C 
ATOM     19  C   UNL     1       1.510   4.778  20.710  0.00  0.00    +0.000 C 
ATOM     20  C   UNL     1       2.649   3.901  21.257  0.00  0.00    +0.000 C 
ATOM     21  C   UNL     1       1.898   2.600  21.565  0.00  0.00    +0.000 C 
ENDBRANCH  13  15
ENDBRANCH   2  13
TORSDOF 6
ENDMDL
MODEL 9
REMARK VINA RESULT:      -6.4      1.459      2.726
REMARK  Name = 
REMARK  6 active torsions:
REMARK  status: ('A' for Active; 'I' for Inactive)
REMARK    1  A    between atoms: C_2  and  N_3
REMARK    2  A    between atoms: C_2  and  N_12
REMARK    3  A    between atoms: N_3  and  C_4
REMARK    4  A    between atoms: C_4  and  C_5
REMARK    5  A    between atoms: C_5  and  C_6
REMARK    6  A    between atoms: N_12  and  C_13
REMARK                            x       y       z     vdW  Elec       q    Type
REMARK                         _______ _______ _______ _____ _____    ______ ____
ROOT
ATOM      1  S   UNL     1       3.368   7.403  17.644  0.00  0.00    +0.000 S 
ATOM      2  C   UNL     1       4.001   5.884  17.908  0.00  0.00    +0.000 C 
ENDROOT
BRANCH   2   3
ATOM      3  N   UNL     1       5.260   5.804  18.421  0.00  0.00    +0.000 N 
ATOM      4  H   UNL     1       5.284   5.604  19.415  0.00  0.00    +0.000 HD
BRANCH   3   5
ATOM      5  C   UNL     1       6.537   6.077  17.769  0.00  0.00    +0.000 C 
BRANCH   5   6
ATOM      6  C   UNL     1       7.148   4.785  17.232  0.00  0.00    +0.000 C 
BRANCH   6   7
ATOM      7  C   UNL     1       6.910   4.616  15.757  0.00  0.00    +0.000 A 
ATOM      8  C   UNL     1       5.965   3.703  15.294  0.00  0.00    +0.000 A 
ATOM      9  C   UNL     1       5.807   3.539  13.920  0.00  0.00    +0.000 A 
ATOM     10  C   UNL     1       6.594   4.281  13.050  0.00  0.00    +0.000 A 
ATOM     11  C   UNL     1       7.512   5.166  13.594  0.00  0.00    +0.000 A 
ATOM     12  N   UNL     1       7.688   5.344  14.921  0.00  0.00    +0.000 NA
ENDBRANCH   6   7
ENDBRANCH   5   6
ENDBRANCH   3   5
ENDBRANCH   2   3
BRANCH   2  13
ATOM     13  N   UNL     1       3.363   4.697  17.700  0.00  0.00    +0.000 N 
ATOM     14  H   UNL     1       3.877   3.969  17.226  0.00  0.00    +0.000 HD
BRANCH  13  15
ATOM     15  C   UNL     1       2.059   4.321  18.219  0.00  0.00    +0.000 C 
ATOM     16  C   UNL     1       1.902   4.702  19.707  0.00  0.00    +0.000 C 
ATOM     17  C   UNL     1       1.454   3.382  20.354  0.00  0.00    +0.000 C 
ATOM     18  C   UNL     1       2.655   2.423  20.410  0.00  0.00    +0.000 C 
ATOM     19  C   UNL     1       2.828   2.001  18.942  0.00  0.00    +0.000 C 
ATOM     20  C   UNL     1       1.737   2.808  18.218  0.00  0.00    +0.000 C 
ATOM     21  C   UNL     1       0.602   2.760  19.248  0.00  0.00    +0.000 C 
ENDBRANCH  13  15
ENDBRANCH   2  13
TORSDOF 6
ENDMDL
