MODEL 1
REMARK VINA RESULT:      -6.6      0.000      0.000
REMARK  Name = 
REMARK  8 active torsions:
REMARK  status: ('A' for Active; 'I' for Inactive)
REMARK    1  A    between atoms: C_1  and  N_2
REMARK    2  A    between atoms: C_3  and  C_5
REMARK    3  A    between atoms: C_8  and  N_9
REMARK    4  A    between atoms: N_12  and  C_13
REMARK    5  A    between atoms: N_12  and  C_14
REMARK    6  A    between atoms: C_14  and  C_15
REMARK    7  A    between atoms: C_16  and  C_17
REMARK    8  A    between atoms: C_20  and  C_21
REMARK                            x       y       z     vdW  Elec       q    Type
REMARK                         _______ _______ _______ _____ _____    ______ ____
ROOT
ATOM      1  N   UNL     1       1.250   8.900  19.582  0.00  0.00    +0.000 N 
ATOM      2  C   UNL     1       1.824   7.722  19.982  0.00  0.00    +0.000 C 
ATOM      3  O   UNL     1       1.494   7.159  21.022  0.00  0.00    +0.000 OA
ATOM      4  N   UNL     1       2.762   7.191  19.105  0.00  0.00    +0.000 N 
ATOM      5  C   UNL     1       3.069   7.743  17.792  0.00  0.00    +0.000 C 
ATOM      6  H   UNL     1       1.887   9.531  19.133  0.00  0.00    +0.000 HD
ENDROOT
BRANCH   1  10
ATOM      7  C   UNL     1       0.003  12.409  19.469  0.00  0.00    +0.000 C 
ATOM      8  C   UNL     1       1.166  11.903  20.337  0.00  0.00    +0.000 C 
ATOM      9  C   UNL     1       0.787  10.695  21.199  0.00  0.00    +0.000 C 
ATOM     10  C   UNL     1       0.192   9.541  20.376  0.00  0.00    +0.000 C 
ATOM     11  C   UNL     1      -0.963  10.048  19.497  0.00  0.00    +0.000 C 
ATOM     12  C   UNL     1      -0.579  11.257  18.639  0.00  0.00    +0.000 C 
BRANCH   7  15
ATOM     13  C   UNL     1      -3.432  13.653  20.544  0.00  0.00    +0.000 C 
ATOM     14  N   UNL     1      -2.333  13.074  19.812  0.00  0.00    +0.000 N 
ATOM     15  C   UNL     1      -1.054  13.128  20.316  0.00  0.00    +0.000 C 
ATOM     16  O   UNL     1      -0.786  13.735  21.348  0.00  0.00    +0.000 OA
ATOM     17  H   UNL     1      -2.521  12.597  18.941  0.00  0.00    +0.000 HD
ENDBRANCH   7  15
ENDBRANCH   1  10
BRANCH   4  18
ATOM     18  C   UNL     1       3.308   5.862  19.407  0.00  0.00    +0.000 C 
BRANCH  18  19
ATOM     19  C   UNL     1       2.679   4.759  18.627  0.00  0.00    +0.000 A 
ATOM     20  C   UNL     1       3.144   4.144  17.420  0.00  0.00    +0.000 A 
ATOM     21  C   UNL     1       4.347   4.434  16.608  0.00  0.00    +0.000 C 
ATOM     22  N   UNL     1       2.358   3.120  17.059  0.00  0.00    +0.000 NA
ATOM     23  O   UNL     1       1.405   3.010  18.042  0.00  0.00    +0.000 OA
ATOM     24  C   UNL     1       1.610   3.960  18.990  0.00  0.00    +0.000 A 
ATOM     25  C   UNL     1       0.731   3.878  20.169  0.00  0.00    +0.000 C 
ENDBRANCH  18  19
ENDBRANCH   4  18
TORSDOF 4
ENDMDL
MODEL 2
REMARK VINA RESULT:      -6.4      1.857      8.434
REMARK  Name = 
REMARK  8 active torsions:
REMARK  status: ('A' for Active; 'I' for Inactive)
REMARK    1  A    between atoms: C_1  and  N_2
REMARK    2  A    between atoms: C_3  and  C_5
REMARK    3  A    between atoms: C_8  and  N_9
REMARK    4  A    between atoms: N_12  and  C_13
REMARK    5  A    between atoms: N_12  and  C_14
REMARK    6  A    between atoms: C_14  and  C_15
REMARK    7  A    between atoms: C_16  and  C_17
REMARK    8  A    between atoms: C_20  and  C_21
REMARK                            x       y       z     vdW  Elec       q    Type
REMARK                         _______ _______ _______ _____ _____    ______ ____
ROOT
ATOM      1  N   UNL     1       2.354   7.087  19.277  0.00  0.00    +0.000 N 
ATOM      2  C   UNL     1       1.663   8.062  19.949  0.00  0.00    +0.000 C 
ATOM      3  O   UNL     1       1.344   7.937  21.128  0.00  0.00    +0.000 OA
ATOM      4  N   UNL     1       1.398   9.213  19.216  0.00  0.00    +0.000 N 
ATOM      5  C   UNL     1       1.891   9.466  17.868  0.00  0.00    +0.000 C 
ATOM      6  H   UNL     1       2.082   6.985  18.317  0.00  0.00    +0.000 HD
ENDROOT
BRANCH   1  10
ATOM      7  C   UNL     1       3.380   3.828  17.794  0.00  0.00    +0.000 C 
ATOM      8  C   UNL     1       1.940   4.236  18.141  0.00  0.00    +0.000 C 
ATOM      9  C   UNL     1       1.786   4.715  19.589  0.00  0.00    +0.000 C 
ATOM     10  C   UNL     1       2.765   5.846  19.947  0.00  0.00    +0.000 C 
ATOM     11  C   UNL     1       4.204   5.444  19.587  0.00  0.00    +0.000 C 
ATOM     12  C   UNL     1       4.351   4.965  18.140  0.00  0.00    +0.000 C 
BRANCH   7  15
ATOM     13  C   UNL     1       5.046   1.434  20.243  0.00  0.00    +0.000 C 
ATOM     14  N   UNL     1       4.657   2.601  19.492  0.00  0.00    +0.000 N 
ATOM     15  C   UNL     1       3.758   2.496  18.456  0.00  0.00    +0.000 C 
ATOM     16  O   UNL     1       3.322   1.413  18.079  0.00  0.00    +0.000 OA
ATOM     17  H   UNL     1       5.028   3.502  19.760  0.00  0.00    +0.000 HD
ENDBRANCH   7  15
ENDBRANCH   1  10
BRANCH   4  18
ATOM     18  C   UNL     1       0.787  10.348  19.919  0.00  0.00    +0.000 C 
BRANCH  18  19
ATOM     19  C   UNL     1       0.095  11.314  19.019  0.00  0.00    +0.000 A 
ATOM     20  C   UNL     1      -1.131  11.140  18.301  0.00  0.00    +0.000 A 
ATOM     21  C   UNL     1      -2.034   9.969  18.230  0.00  0.00    +0.000 C 
ATOM     22  N   UNL     1      -1.488  12.264  17.664  0.00  0.00    +0.000 NA
ATOM     23  O   UNL     1      -0.542  13.204  17.996  0.00  0.00    +0.000 OA
ATOM     24  C   UNL     1       0.381  12.653  18.824  0.00  0.00    +0.000 A 
ATOM     25  C   UNL     1       1.389  13.585  19.359  0.00  0.00    +0.000 C 
ENDBRANCH  18  19
ENDBRANCH   4  18
TORSDOF 4
ENDMDL
MODEL 3
REMARK VINA RESULT:      -6.3      1.846      8.325
REMARK  Name = 
REMARK  8 active torsions:
REMARK  status: ('A' for Active; 'I' for Inactive)
REMARK    1  A    between atoms: C_1  and  N_2
REMARK    2  A    between atoms: C_3  and  C_5
REMARK    3  A    between atoms: C_8  and  N_9
REMARK    4  A    between atoms: N_12  and  C_13
REMARK    5  A    between atoms: N_12  and  C_14
REMARK    6  A    between atoms: C_14  and  C_15
REMARK    7  A    between atoms: C_16  and  C_17
REMARK    8  A    between atoms: C_20  and  C_21
REMARK                            x       y       z     vdW  Elec       q    Type
REMARK                         _______ _______ _______ _____ _____    ______ ____
ROOT
ATOM      1  N   UNL     1       2.239   7.218  19.258  0.00  0.00    +0.000 N 
ATOM      2  C   UNL     1       1.590   8.182  19.984  0.00  0.00    +0.000 C 
ATOM      3  O   UNL     1       1.268   8.007  21.156  0.00  0.00    +0.000 OA
ATOM      4  N   UNL     1       1.371   9.381  19.315  0.00  0.00    +0.000 N 
ATOM      5  C   UNL     1       1.872   9.685  17.981  0.00  0.00    +0.000 C 
ATOM      6  H   UNL     1       1.963   7.178  18.295  0.00  0.00    +0.000 HD
ENDROOT
BRANCH   1  10
ATOM      7  C   UNL     1       3.245   4.037  17.601  0.00  0.00    +0.000 C 
ATOM      8  C   UNL     1       1.803   4.456  17.927  0.00  0.00    +0.000 C 
ATOM      9  C   UNL     1       1.610   4.844  19.396  0.00  0.00    +0.000 C 
ATOM     10  C   UNL     1       2.600   5.927  19.859  0.00  0.00    +0.000 C 
ATOM     11  C   UNL     1       4.042   5.514  19.522  0.00  0.00    +0.000 C 
ATOM     12  C   UNL     1       4.228   5.125  18.052  0.00  0.00    +0.000 C 
BRANCH   7  15
ATOM     13  C   UNL     1       4.832   1.446  19.897  0.00  0.00    +0.000 C 
ATOM     14  N   UNL     1       4.486   2.667  19.214  0.00  0.00    +0.000 N 
ATOM     15  C   UNL     1       3.571   2.657  18.187  0.00  0.00    +0.000 C 
ATOM     16  O   UNL     1       3.083   1.615  17.760  0.00  0.00    +0.000 OA
ATOM     17  H   UNL     1       4.900   3.536  19.523  0.00  0.00    +0.000 HD
ENDBRANCH   7  15
ENDBRANCH   1  10
BRANCH   4  18
ATOM     18  C   UNL     1       0.808  10.500  20.080  0.00  0.00    +0.000 C 
BRANCH  18  19
ATOM     19  C   UNL     1       0.057  11.483  19.248  0.00  0.00    +0.000 A 
ATOM     20  C   UNL     1       0.434  12.818  18.891  0.00  0.00    +0.000 A 
ATOM     21  C   UNL     1       1.642  13.594  19.250  0.00  0.00    +0.000 C 
ATOM     22  N   UNL     1      -0.456  13.368  18.053  0.00  0.00    +0.000 NA
ATOM     23  O   UNL     1      -1.395  12.396  17.805  0.00  0.00    +0.000 OA
ATOM     24  C   UNL     1      -1.077  11.266  18.487  0.00  0.00    +0.000 A 
ATOM     25  C   UNL     1      -1.934  10.100  18.215  0.00  0.00    +0.000 C 
ENDBRANCH  18  19
ENDBRANCH   4  18
TORSDOF 4
ENDMDL
MODEL 4
REMARK VINA RESULT:      -6.1      1.974      2.752
REMARK  Name = 
REMARK  8 active torsions:
REMARK  status: ('A' for Active; 'I' for Inactive)
REMARK    1  A    between atoms: C_1  and  N_2
REMARK    2  A    between atoms: C_3  and  C_5
REMARK    3  A    between atoms: C_8  and  N_9
REMARK    4  A    between atoms: N_12  and  C_13
REMARK    5  A    between atoms: N_12  and  C_14
REMARK    6  A    between atoms: C_14  and  C_15
REMARK    7  A    between atoms: C_16  and  C_17
REMARK    8  A    between atoms: C_20  and  C_21
REMARK                            x       y       z     vdW  Elec       q    Type
REMARK                         _______ _______ _______ _____ _____    ______ ____
ROOT
ATOM      1  N   UNL     1       1.112   9.185  18.982  0.00  0.00    +0.000 N 
ATOM      2  C   UNL     1       2.028   8.537  18.196  0.00  0.00    +0.000 C 
ATOM      3  O   UNL     1       2.375   8.979  17.104  0.00  0.00    +0.000 OA
ATOM      4  N   UNL     1       2.567   7.379  18.744  0.00  0.00    +0.000 N 
ATOM      5  C   UNL     1       2.301   6.904  20.095  0.00  0.00    +0.000 C 
ATOM      6  H   UNL     1       0.500   8.570  19.484  0.00  0.00    +0.000 HD
ENDROOT
BRANCH   1  10
ATOM      7  C   UNL     1      -0.066  12.044  21.059  0.00  0.00    +0.000 C 
ATOM      8  C   UNL     1      -0.914  10.829  20.650  0.00  0.00    +0.000 C 
ATOM      9  C   UNL     1      -0.908  10.578  19.139  0.00  0.00    +0.000 C 
ATOM     10  C   UNL     1       0.512  10.458  18.562  0.00  0.00    +0.000 C 
ATOM     11  C   UNL     1       1.365  11.666  18.982  0.00  0.00    +0.000 C 
ATOM     12  C   UNL     1       1.354  11.914  20.493  0.00  0.00    +0.000 C 
BRANCH   7  15
ATOM     13  C   UNL     1      -0.406  15.724  20.143  0.00  0.00    +0.000 C 
ATOM     14  N   UNL     1       0.095  14.442  20.570  0.00  0.00    +0.000 N 
ATOM     15  C   UNL     1      -0.749  13.360  20.664  0.00  0.00    +0.000 C 
ATOM     16  O   UNL     1      -1.957  13.458  20.476  0.00  0.00    +0.000 OA
ATOM     17  H   UNL     1       1.082  14.342  20.765  0.00  0.00    +0.000 HD
ENDBRANCH   7  15
ENDBRANCH   1  10
BRANCH   4  18
ATOM     18  C   UNL     1       3.655   6.716  18.014  0.00  0.00    +0.000 C 
BRANCH  18  19
ATOM     19  C   UNL     1       3.964   5.343  18.504  0.00  0.00    +0.000 A 
ATOM     20  C   UNL     1       3.176   4.154  18.375  0.00  0.00    +0.000 A 
ATOM     21  C   UNL     1       1.850   3.955  17.748  0.00  0.00    +0.000 C 
ATOM     22  N   UNL     1       3.822   3.086  18.863  0.00  0.00    +0.000 NA
ATOM     23  O   UNL     1       5.055   3.540  19.267  0.00  0.00    +0.000 OA
ATOM     24  C   UNL     1       5.154   4.872  19.027  0.00  0.00    +0.000 A 
ATOM     25  C   UNL     1       6.474   5.467  19.298  0.00  0.00    +0.000 C 
ENDBRANCH  18  19
ENDBRANCH   4  18
TORSDOF 4
ENDMDL
MODEL 5
REMARK VINA RESULT:      -6.1      0.426      1.694
REMARK  Name = 
REMARK  8 active torsions:
REMARK  status: ('A' for Active; 'I' for Inactive)
REMARK    1  A    between atoms: C_1  and  N_2
REMARK    2  A    between atoms: C_3  and  C_5
REMARK    3  A    between atoms: C_8  and  N_9
REMARK    4  A    between atoms: N_12  and  C_13
REMARK    5  A    between atoms: N_12  and  C_14
REMARK    6  A    between atoms: C_14  and  C_15
REMARK    7  A    between atoms: C_16  and  C_17
REMARK    8  A    between atoms: C_20  and  C_21
REMARK                            x       y       z     vdW  Elec       q    Type
REMARK                         _______ _______ _______ _____ _____    ______ ____
ROOT
ATOM      1  N   UNL     1       1.273   8.873  19.546  0.00  0.00    +0.000 N 
ATOM      2  C   UNL     1       1.897   7.737  19.989  0.00  0.00    +0.000 C 
ATOM      3  O   UNL     1       1.617   7.220  21.068  0.00  0.00    +0.000 OA
ATOM      4  N   UNL     1       2.826   7.190  19.112  0.00  0.00    +0.000 N 
ATOM      5  C   UNL     1       3.076   7.680  17.763  0.00  0.00    +0.000 C 
ATOM      6  H   UNL     1       1.875   9.499  19.045  0.00  0.00    +0.000 HD
ENDROOT
BRANCH   1  10
ATOM      7  C   UNL     1       0.107  12.411  19.489  0.00  0.00    +0.000 C 
ATOM      8  C   UNL     1       1.245  11.861  20.362  0.00  0.00    +0.000 C 
ATOM      9  C   UNL     1       0.826  10.644  21.194  0.00  0.00    +0.000 C 
ATOM     10  C   UNL     1       0.218   9.521  20.337  0.00  0.00    +0.000 C 
ATOM     11  C   UNL     1      -0.912  10.073  19.453  0.00  0.00    +0.000 C 
ATOM     12  C   UNL     1      -0.488  11.290  18.626  0.00  0.00    +0.000 C 
BRANCH   7  15
ATOM     13  C   UNL     1      -3.315  13.706  20.542  0.00  0.00    +0.000 C 
ATOM     14  N   UNL     1      -2.219  13.119  19.814  0.00  0.00    +0.000 N 
ATOM     15  C   UNL     1      -0.946  13.136  20.336  0.00  0.00    +0.000 C 
ATOM     16  O   UNL     1      -0.680  13.718  21.383  0.00  0.00    +0.000 OA
ATOM     17  H   UNL     1      -2.405  12.662  18.932  0.00  0.00    +0.000 HD
ENDBRANCH   7  15
ENDBRANCH   1  10
BRANCH   4  18
ATOM     18  C   UNL     1       3.425   5.897  19.466  0.00  0.00    +0.000 C 
BRANCH  18  19
ATOM     19  C   UNL     1       2.871   4.744  18.702  0.00  0.00    +0.000 A 
ATOM     20  C   UNL     1       1.685   3.988  18.968  0.00  0.00    +0.000 A 
ATOM     21  C   UNL     1       0.700   4.118  20.065  0.00  0.00    +0.000 C 
ATOM     22  N   UNL     1       1.459   3.080  18.008  0.00  0.00    +0.000 NA
ATOM     23  O   UNL     1       2.452   3.260  17.075  0.00  0.00    +0.000 OA
ATOM     24  C   UNL     1       3.273   4.267  17.468  0.00  0.00    +0.000 A 
ATOM     25  C   UNL     1       4.313   4.650  16.498  0.00  0.00    +0.000 C 
ENDBRANCH  18  19
ENDBRANCH   4  18
TORSDOF 4
ENDMDL
MODEL 6
REMARK VINA RESULT:      -6.1      1.870      2.383
REMARK  Name = 
REMARK  8 active torsions:
REMARK  status: ('A' for Active; 'I' for Inactive)
REMARK    1  A    between atoms: C_1  and  N_2
REMARK    2  A    between atoms: C_3  and  C_5
REMARK    3  A    between atoms: C_8  and  N_9
REMARK    4  A    between atoms: N_12  and  C_13
REMARK    5  A    between atoms: N_12  and  C_14
REMARK    6  A    between atoms: C_14  and  C_15
REMARK    7  A    between atoms: C_16  and  C_17
REMARK    8  A    between atoms: C_20  and  C_21
REMARK                            x       y       z     vdW  Elec       q    Type
REMARK                         _______ _______ _______ _____ _____    ______ ____
ROOT
ATOM      1  N   UNL     1       1.483   8.334  18.954  0.00  0.00    +0.000 N 
ATOM      2  C   UNL     1       2.523   7.465  18.748  0.00  0.00    +0.000 C 
ATOM      3  O   UNL     1       3.372   7.661  17.883  0.00  0.00    +0.000 OA
ATOM      4  N   UNL     1       2.573   6.383  19.619  0.00  0.00    +0.000 N 
ATOM      5  C   UNL     1       1.680   6.195  20.755  0.00  0.00    +0.000 C 
ATOM      6  H   UNL     1       0.621   7.885  19.200  0.00  0.00    +0.000 HD
ENDROOT
BRANCH   1  10
ATOM      7  C   UNL     1      -0.395  11.458  19.720  0.00  0.00    +0.000 C 
ATOM      8  C   UNL     1      -0.971  10.222  19.010  0.00  0.00    +0.000 C 
ATOM      9  C   UNL     1      -0.135   9.784  17.803  0.00  0.00    +0.000 C 
ATOM     10  C   UNL     1       1.345   9.559  18.155  0.00  0.00    +0.000 C 
ATOM     11  C   UNL     1       1.918  10.789  18.877  0.00  0.00    +0.000 C 
ATOM     12  C   UNL     1       1.077  11.223  20.082  0.00  0.00    +0.000 C 
BRANCH   7  15
ATOM     13  C   UNL     1      -0.132  15.121  18.716  0.00  0.00    +0.000 C 
ATOM     14  N   UNL     1      -0.058  13.870  19.427  0.00  0.00    +0.000 N 
ATOM     15  C   UNL     1      -0.613  12.730  18.891  0.00  0.00    +0.000 C 
ATOM     16  O   UNL     1      -1.256  12.748  17.846  0.00  0.00    +0.000 OA
ATOM     17  H   UNL     1       0.437  13.834  20.307  0.00  0.00    +0.000 HD
ENDBRANCH   7  15
ENDBRANCH   1  10
BRANCH   4  18
ATOM     18  C   UNL     1       3.739   5.494  19.542  0.00  0.00    +0.000 C 
BRANCH  18  19
ATOM     19  C   UNL     1       3.419   4.117  19.071  0.00  0.00    +0.000 A 
ATOM     20  C   UNL     1       3.692   3.527  17.795  0.00  0.00    +0.000 A 
ATOM     21  C   UNL     1       4.338   4.109  16.597  0.00  0.00    +0.000 C 
ATOM     22  N   UNL     1       3.338   2.235  17.769  0.00  0.00    +0.000 NA
ATOM     23  O   UNL     1       2.882   1.942  19.032  0.00  0.00    +0.000 OA
ATOM     24  C   UNL     1       2.958   3.047  19.816  0.00  0.00    +0.000 A 
ATOM     25  C   UNL     1       2.617   2.842  21.234  0.00  0.00    +0.000 C 
ENDBRANCH  18  19
ENDBRANCH   4  18
TORSDOF 4
ENDMDL
MODEL 7
REMARK VINA RESULT:      -6.1      1.612      2.150
REMARK  Name = 
REMARK  8 active torsions:
REMARK  status: ('A' for Active; 'I' for Inactive)
REMARK    1  A    between atoms: C_1  and  N_2
REMARK    2  A    between atoms: C_3  and  C_5
REMARK    3  A    between atoms: C_8  and  N_9
REMARK    4  A    between atoms: N_12  and  C_13
REMARK    5  A    between atoms: N_12  and  C_14
REMARK    6  A    between atoms: C_14  and  C_15
REMARK    7  A    between atoms: C_16  and  C_17
REMARK    8  A    between atoms: C_20  and  C_21
REMARK                            x       y       z     vdW  Elec       q    Type
REMARK                         _______ _______ _______ _____ _____    ______ ____
ROOT
ATOM      1  N   UNL     1       1.311   8.914  19.144  0.00  0.00    +0.000 N 
ATOM      2  C   UNL     1       2.134   7.880  18.781  0.00  0.00    +0.000 C 
ATOM      3  O   UNL     1       2.739   7.875  17.713  0.00  0.00    +0.000 OA
ATOM      4  N   UNL     1       2.269   6.870  19.727  0.00  0.00    +0.000 N 
ATOM      5  C   UNL     1       1.694   6.909  21.065  0.00  0.00    +0.000 C 
ATOM      6  H   UNL     1       0.494   8.625  19.648  0.00  0.00    +0.000 HD
ENDROOT
BRANCH   1  10
ATOM      7  C   UNL     1      -0.122  12.258  19.945  0.00  0.00    +0.000 C 
ATOM      8  C   UNL     1      -0.922  11.036  19.466  0.00  0.00    +0.000 C 
ATOM      9  C   UNL     1      -0.367  10.428  18.174  0.00  0.00    +0.000 C 
ATOM     10  C   UNL     1       1.128  10.083  18.274  0.00  0.00    +0.000 C 
ATOM     11  C   UNL     1       1.928  11.301  18.765  0.00  0.00    +0.000 C 
ATOM     12  C   UNL     1       1.368  11.906  20.056  0.00  0.00    +0.000 C 
BRANCH   7  15
ATOM     13  C   UNL     1      -0.393  15.923  18.948  0.00  0.00    +0.000 C 
ATOM     14  N   UNL     1      -0.242  14.694  19.686  0.00  0.00    +0.000 N 
ATOM     15  C   UNL     1      -0.383  13.479  19.055  0.00  0.00    +0.000 C 
ATOM     16  O   UNL     1      -0.722  13.392  17.879  0.00  0.00    +0.000 OA
ATOM     17  H   UNL     1       0.004  14.737  20.665  0.00  0.00    +0.000 HD
ENDBRANCH   7  15
ENDBRANCH   1  10
BRANCH   4  18
ATOM     18  C   UNL     1       3.244   5.806  19.458  0.00  0.00    +0.000 C 
BRANCH  18  19
ATOM     19  C   UNL     1       2.709   4.691  18.627  0.00  0.00    +0.000 A 
ATOM     20  C   UNL     1       3.234   4.161  17.404  0.00  0.00    +0.000 A 
ATOM     21  C   UNL     1       4.422   4.571  16.623  0.00  0.00    +0.000 C 
ATOM     22  N   UNL     1       2.530   3.097  16.992  0.00  0.00    +0.000 NA
ATOM     23  O   UNL     1       1.575   2.878  17.955  0.00  0.00    +0.000 OA
ATOM     24  C   UNL     1       1.697   3.802  18.941  0.00  0.00    +0.000 A 
ATOM     25  C   UNL     1       0.812   3.609  20.103  0.00  0.00    +0.000 C 
ENDBRANCH  18  19
ENDBRANCH   4  18
TORSDOF 4
ENDMDL
MODEL 8
REMARK VINA RESULT:      -6.0      1.838      8.223
REMARK  Name = 
REMARK  8 active torsions:
REMARK  status: ('A' for Active; 'I' for Inactive)
REMARK    1  A    between atoms: C_1  and  N_2
REMARK    2  A    between atoms: C_3  and  C_5
REMARK    3  A    between atoms: C_8  and  N_9
REMARK    4  A    between atoms: N_12  and  C_13
REMARK    5  A    between atoms: N_12  and  C_14
REMARK    6  A    between atoms: C_14  and  C_15
REMARK    7  A    between atoms: C_16  and  C_17
REMARK    8  A    between atoms: C_20  and  C_21
REMARK                            x       y       z     vdW  Elec       q    Type
REMARK                         _______ _______ _______ _____ _____    ______ ____
ROOT
ATOM      1  N   UNL     1       2.135   7.314  19.771  0.00  0.00    +0.000 N 
ATOM      2  C   UNL     1       1.966   8.495  19.098  0.00  0.00    +0.000 C 
ATOM      3  O   UNL     1       2.565   8.740  18.055  0.00  0.00    +0.000 OA
ATOM      4  N   UNL     1       1.037   9.367  19.654  0.00  0.00    +0.000 N 
ATOM      5  C   UNL     1       0.194   9.054  20.800  0.00  0.00    +0.000 C 
ATOM      6  H   UNL     1       2.112   7.407  20.769  0.00  0.00    +0.000 HD
ENDROOT
BRANCH   1  10
ATOM      7  C   UNL     1       1.351   3.822  18.737  0.00  0.00    +0.000 C 
ATOM      8  C   UNL     1       1.716   4.270  20.161  0.00  0.00    +0.000 C 
ATOM      9  C   UNL     1       3.025   5.065  20.220  0.00  0.00    +0.000 C 
ATOM     10  C   UNL     1       3.032   6.268  19.261  0.00  0.00    +0.000 C 
ATOM     11  C   UNL     1       2.654   5.823  17.839  0.00  0.00    +0.000 C 
ATOM     12  C   UNL     1       1.346   5.027  17.787  0.00  0.00    +0.000 C 
BRANCH   7  15
ATOM     13  C   UNL     1       3.908   1.007  18.934  0.00  0.00    +0.000 C 
ATOM     14  N   UNL     1       3.053   2.127  19.236  0.00  0.00    +0.000 N 
ATOM     15  C   UNL     1       2.264   2.686  18.258  0.00  0.00    +0.000 C 
ATOM     16  O   UNL     1       2.317   2.317  17.088  0.00  0.00    +0.000 OA
ATOM     17  H   UNL     1       3.015   2.473  20.185  0.00  0.00    +0.000 HD
ENDBRANCH   7  15
ENDBRANCH   1  10
BRANCH   4  18
ATOM     18  C   UNL     1       0.708  10.586  18.906  0.00  0.00    +0.000 C 
BRANCH  18  19
ATOM     19  C   UNL     1      -0.714  11.012  19.039  0.00  0.00    +0.000 A 
ATOM     20  C   UNL     1      -1.272  11.989  19.924  0.00  0.00    +0.000 A 
ATOM     21  C   UNL     1      -0.614  12.826  20.952  0.00  0.00    +0.000 C 
ATOM     22  N   UNL     1      -2.580  12.167  19.693  0.00  0.00    +0.000 NA
ATOM     23  O   UNL     1      -2.890  11.359  18.626  0.00  0.00    +0.000 OA
ATOM     24  C   UNL     1      -1.779  10.696  18.215  0.00  0.00    +0.000 A 
ATOM     25  C   UNL     1      -1.941   9.884  16.997  0.00  0.00    +0.000 C 
ENDBRANCH  18  19
ENDBRANCH   4  18
TORSDOF 4
ENDMDL
MODEL 9
REMARK VINA RESULT:      -6.0      2.179      2.789
REMARK  Name = 
REMARK  8 active torsions:
REMARK  status: ('A' for Active; 'I' for Inactive)
REMARK    1  A    between atoms: C_1  and  N_2
REMARK    2  A    between atoms: C_3  and  C_5
REMARK    3  A    between atoms: C_8  and  N_9
REMARK    4  A    between atoms: N_12  and  C_13
REMARK    5  A    between atoms: N_12  and  C_14
REMARK    6  A    between atoms: C_14  and  C_15
REMARK    7  A    between atoms: C_16  and  C_17
REMARK    8  A    between atoms: C_20  and  C_21
REMARK                            x       y       z     vdW  Elec       q    Type
REMARK                         _______ _______ _______ _____ _____    ______ ____
ROOT
ATOM      1  N   UNL     1       1.727   8.192  20.206  0.00  0.00    +0.000 N 
ATOM      2  C   UNL     1       2.008   6.908  19.816  0.00  0.00    +0.000 C 
ATOM      3  O   UNL     1       1.677   5.937  20.490  0.00  0.00    +0.000 OA
ATOM      4  N   UNL     1       2.647   6.789  18.587  0.00  0.00    +0.000 N 
ATOM      5  C   UNL     1       2.919   7.900  17.686  0.00  0.00    +0.000 C 
ATOM      6  H   UNL     1       2.446   8.852  19.981  0.00  0.00    +0.000 HD
ENDROOT
BRANCH   1  10
ATOM      7  C   UNL     1      -0.416  11.107  21.091  0.00  0.00    +0.000 C 
ATOM      8  C   UNL     1       1.102  11.016  21.311  0.00  0.00    +0.000 C 
ATOM      9  C   UNL     1       1.519   9.762  22.087  0.00  0.00    +0.000 C 
ATOM     10  C   UNL     1       0.992   8.467  21.448  0.00  0.00    +0.000 C 
ATOM     11  C   UNL     1      -0.524   8.561  21.215  0.00  0.00    +0.000 C 
ATOM     12  C   UNL     1      -0.936   9.817  20.442  0.00  0.00    +0.000 C 
BRANCH   7  15
ATOM     13  C   UNL     1      -3.175  12.430  23.358  0.00  0.00    +0.000 C 
ATOM     14  N   UNL     1      -2.353  12.103  22.220  0.00  0.00    +0.000 N 
ATOM     15  C   UNL     1      -1.149  11.458  22.392  0.00  0.00    +0.000 C 
ATOM     16  O   UNL     1      -0.693  11.217  23.505  0.00  0.00    +0.000 OA
ATOM     17  H   UNL     1      -2.690  12.321  21.293  0.00  0.00    +0.000 HD
ENDBRANCH   7  15
ENDBRANCH   1  10
BRANCH   4  18
ATOM     18  C   UNL     1       2.850   5.438  18.049  0.00  0.00    +0.000 C 
BRANCH  18  19
ATOM     19  C   UNL     1       4.008   4.716  18.647  0.00  0.00    +0.000 A 
ATOM     20  C   UNL     1       4.013   3.468  19.349  0.00  0.00    +0.000 A 
ATOM     21  C   UNL     1       2.892   2.564  19.690  0.00  0.00    +0.000 C 
ATOM     22  N   UNL     1       5.260   3.089  19.662  0.00  0.00    +0.000 NA
ATOM     23  O   UNL     1       6.092   4.045  19.129  0.00  0.00    +0.000 OA
ATOM     24  C   UNL     1       5.355   4.994  18.499  0.00  0.00    +0.000 A 
ATOM     25  C   UNL     1       6.128   6.018  17.774  0.00  0.00    +0.000 C 
ENDBRANCH  18  19
ENDBRANCH   4  18
TORSDOF 4
ENDMDL
