MODEL 1
REMARK VINA RESULT:      -7.8      0.000      0.000
REMARK  Name = 
REMARK  7 active torsions:
REMARK  status: ('A' for Active; 'I' for Inactive)
REMARK    1  A    between atoms: C_1  and  C_2
REMARK    2  A    between atoms: N_4  and  C_5
REMARK    3  A    between atoms: C_5  and  N_6
REMARK    4  A    between atoms: C_10  and  N_11
REMARK    5  A    between atoms: N_12  and  C_13
REMARK    6  A    between atoms: C_17  and  C_18
REMARK    7  A    between atoms: C_18  and  O_20
REMARK                            x       y       z     vdW  Elec       q    Type
REMARK                         _______ _______ _______ _____ _____    ______ ____
ROOT
ATOM      1  C   UNL     1       7.988   5.315  19.119  0.00  0.00    +0.000 C 
ATOM      2  C   UNL     1       7.286   5.488  17.814  0.00  0.00    +0.000 C 
ATOM      3  N   UNL     1       7.685   4.948  16.703  0.00  0.00    +0.000 NA
ATOM      4  N   UNL     1       6.798   5.390  15.705  0.00  0.00    +0.000 N 
ATOM      5  C   UNL     1       5.803   6.272  16.212  0.00  0.00    +0.000 C 
ATOM      6  O   UNL     1       4.913   6.875  15.632  0.00  0.00    +0.000 OA
ATOM      7  C   UNL     1       6.053   6.325  17.694  0.00  0.00    +0.000 C 
ENDROOT
BRANCH   4   8
ATOM      8  C   UNL     1       6.982   4.916  14.397  0.00  0.00    +0.000 C 
ATOM      9  S   UNL     1       6.122   3.723  13.614  0.00  0.00    +0.000 S 
BRANCH   8  10
ATOM     10  N   UNL     1       8.002   5.529  13.716  0.00  0.00    +0.000 N 
ATOM     11  H   UNL     1       8.471   5.017  12.977  0.00  0.00    +0.000 HD
ATOM     12  H   UNL     1       8.191   6.513  13.853  0.00  0.00    +0.000 HD
ENDBRANCH   8  10
ENDBRANCH   4   8
BRANCH   7  13
ATOM     13  N   UNL     1       4.965   5.615  18.368  0.00  0.00    +0.000 NA
ATOM     14  N   UNL     1       4.425   4.751  17.646  0.00  0.00    +0.000 NA
BRANCH  14  15
ATOM     15  C   UNL     1       3.313   4.151  18.278  0.00  0.00    +0.000 A 
ATOM     16  C   UNL     1       2.124   4.041  17.544  0.00  0.00    +0.000 A 
ATOM     17  C   UNL     1       0.978   3.479  18.112  0.00  0.00    +0.000 A 
ATOM     18  C   UNL     1       1.013   3.011  19.424  0.00  0.00    +0.000 A 
ATOM     19  C   UNL     1       2.197   3.089  20.167  0.00  0.00    +0.000 A 
ATOM     20  C   UNL     1       3.341   3.659  19.595  0.00  0.00    +0.000 A 
BRANCH  19  21
ATOM     21  C   UNL     1       2.159   2.612  21.574  0.00  0.00    +0.000 C 
ATOM     22  O   UNL     1       1.142   2.633  22.243  0.00  0.00    +0.000 OA
BRANCH  21  23
ATOM     23  O   UNL     1       3.329   2.126  22.038  0.00  0.00    +0.000 OA
ATOM     24  H   UNL     1       3.309   1.224  22.403  0.00  0.00    +0.000 HD
ENDBRANCH  21  23
ENDBRANCH  19  21
ENDBRANCH  14  15
ENDBRANCH   7  13
TORSDOF 6
ENDMDL
MODEL 2
REMARK VINA RESULT:      -7.8      3.911      4.735
REMARK  Name = 
REMARK  7 active torsions:
REMARK  status: ('A' for Active; 'I' for Inactive)
REMARK    1  A    between atoms: C_1  and  C_2
REMARK    2  A    between atoms: N_4  and  C_5
REMARK    3  A    between atoms: C_5  and  N_6
REMARK    4  A    between atoms: C_10  and  N_11
REMARK    5  A    between atoms: N_12  and  C_13
REMARK    6  A    between atoms: C_17  and  C_18
REMARK    7  A    between atoms: C_18  and  O_20
REMARK                            x       y       z     vdW  Elec       q    Type
REMARK                         _______ _______ _______ _____ _____    ______ ____
ROOT
ATOM      1  C   UNL     1       2.324   2.740  18.283  0.00  0.00    +0.000 C 
ATOM      2  C   UNL     1       3.637   3.447  18.267  0.00  0.00    +0.000 C 
ATOM      3  N   UNL     1       4.432   3.468  17.241  0.00  0.00    +0.000 NA
ATOM      4  N   UNL     1       5.576   4.182  17.640  0.00  0.00    +0.000 N 
ATOM      5  C   UNL     1       5.505   4.612  18.994  0.00  0.00    +0.000 C 
ATOM      6  O   UNL     1       6.325   5.207  19.678  0.00  0.00    +0.000 OA
ATOM      7  C   UNL     1       4.142   4.185  19.464  0.00  0.00    +0.000 C 
ENDROOT
BRANCH   4   8
ATOM      8  C   UNL     1       6.592   4.389  16.694  0.00  0.00    +0.000 C 
ATOM      9  S   UNL     1       6.424   4.636  15.055  0.00  0.00    +0.000 S 
BRANCH   8  10
ATOM     10  N   UNL     1       7.858   4.377  17.218  0.00  0.00    +0.000 N 
ATOM     11  H   UNL     1       8.230   3.503  17.573  0.00  0.00    +0.000 HD
ATOM     12  H   UNL     1       8.458   5.187  17.129  0.00  0.00    +0.000 HD
ENDBRANCH   8  10
ENDBRANCH   4   8
BRANCH   7  13
ATOM     13  N   UNL     1       3.317   5.383  19.630  0.00  0.00    +0.000 NA
ATOM     14  N   UNL     1       3.273   6.090  18.602  0.00  0.00    +0.000 NA
BRANCH  14  15
ATOM     15  C   UNL     1       2.559   7.291  18.814  0.00  0.00    +0.000 A 
ATOM     16  C   UNL     1       2.473   8.197  17.750  0.00  0.00    +0.000 A 
ATOM     17  C   UNL     1       1.802   9.414  17.893  0.00  0.00    +0.000 A 
ATOM     18  C   UNL     1       1.199   9.733  19.108  0.00  0.00    +0.000 A 
ATOM     19  C   UNL     1       1.253   8.831  20.178  0.00  0.00    +0.000 A 
ATOM     20  C   UNL     1       1.932   7.616  20.030  0.00  0.00    +0.000 A 
BRANCH  19  21
ATOM     21  C   UNL     1       0.627   9.247  21.460  0.00  0.00    +0.000 C 
ATOM     22  O   UNL     1       1.071  10.156  22.138  0.00  0.00    +0.000 OA
BRANCH  21  23
ATOM     23  O   UNL     1      -0.484   8.561  21.797  0.00  0.00    +0.000 OA
ATOM     24  H   UNL     1      -1.252   9.090  22.078  0.00  0.00    +0.000 HD
ENDBRANCH  21  23
ENDBRANCH  19  21
ENDBRANCH  14  15
ENDBRANCH   7  13
TORSDOF 6
ENDMDL
MODEL 3
REMARK VINA RESULT:      -7.7      4.467      5.162
REMARK  Name = 
REMARK  7 active torsions:
REMARK  status: ('A' for Active; 'I' for Inactive)
REMARK    1  A    between atoms: C_1  and  C_2
REMARK    2  A    between atoms: N_4  and  C_5
REMARK    3  A    between atoms: C_5  and  N_6
REMARK    4  A    between atoms: C_10  and  N_11
REMARK    5  A    between atoms: N_12  and  C_13
REMARK    6  A    between atoms: C_17  and  C_18
REMARK    7  A    between atoms: C_18  and  O_20
REMARK                            x       y       z     vdW  Elec       q    Type
REMARK                         _______ _______ _______ _____ _____    ______ ____
ROOT
ATOM      1  C   UNL     1       1.955   3.911  17.627  0.00  0.00    +0.000 C 
ATOM      2  C   UNL     1       3.385   4.277  17.845  0.00  0.00    +0.000 C 
ATOM      3  N   UNL     1       4.312   4.125  16.951  0.00  0.00    +0.000 NA
ATOM      4  N   UNL     1       5.516   4.530  17.554  0.00  0.00    +0.000 N 
ATOM      5  C   UNL     1       5.338   4.937  18.906  0.00  0.00    +0.000 C 
ATOM      6  O   UNL     1       6.158   5.300  19.736  0.00  0.00    +0.000 OA
ATOM      7  C   UNL     1       3.856   4.845  19.145  0.00  0.00    +0.000 C 
ENDROOT
BRANCH   4   8
ATOM      8  C   UNL     1       6.688   4.503  16.781  0.00  0.00    +0.000 C 
ATOM      9  S   UNL     1       6.818   4.607  15.123  0.00  0.00    +0.000 S 
BRANCH   8  10
ATOM     10  N   UNL     1       7.840   4.372  17.512  0.00  0.00    +0.000 N 
ATOM     11  H   UNL     1       8.541   3.709  17.201  0.00  0.00    +0.000 HD
ATOM     12  H   UNL     1       8.045   5.016  18.264  0.00  0.00    +0.000 HD
ENDBRANCH   8  10
ENDBRANCH   4   8
BRANCH   7  13
ATOM     13  N   UNL     1       3.325   6.205  19.256  0.00  0.00    +0.000 NA
ATOM     14  N   UNL     1       2.385   6.295  20.073  0.00  0.00    +0.000 NA
BRANCH  14  15
ATOM     15  C   UNL     1       1.820   7.590  20.089  0.00  0.00    +0.000 A 
ATOM     16  C   UNL     1       1.914   8.359  18.921  0.00  0.00    +0.000 A 
ATOM     17  C   UNL     1       1.398   9.656  18.870  0.00  0.00    +0.000 A 
ATOM     18  C   UNL     1       0.770  10.196  19.991  0.00  0.00    +0.000 A 
ATOM     19  C   UNL     1       0.644   9.437  21.160  0.00  0.00    +0.000 A 
ATOM     20  C   UNL     1       1.169   8.139  21.207  0.00  0.00    +0.000 A 
BRANCH  19  21
ATOM     21  C   UNL     1       0.002  10.083  22.334  0.00  0.00    +0.000 C 
ATOM     22  O   UNL     1      -0.157  11.288  22.410  0.00  0.00    +0.000 OA
BRANCH  21  23
ATOM     23  O   UNL     1      -0.416   9.230  23.291  0.00  0.00    +0.000 OA
ATOM     24  H   UNL     1      -0.401   8.283  23.065  0.00  0.00    +0.000 HD
ENDBRANCH  21  23
ENDBRANCH  19  21
ENDBRANCH  14  15
ENDBRANCH   7  13
TORSDOF 6
ENDMDL
MODEL 4
REMARK VINA RESULT:      -7.6      0.823      1.087
REMARK  Name = 
REMARK  7 active torsions:
REMARK  status: ('A' for Active; 'I' for Inactive)
REMARK    1  A    between atoms: C_1  and  C_2
REMARK    2  A    between atoms: N_4  and  C_5
REMARK    3  A    between atoms: C_5  and  N_6
REMARK    4  A    between atoms: C_10  and  N_11
REMARK    5  A    between atoms: N_12  and  C_13
REMARK    6  A    between atoms: C_17  and  C_18
REMARK    7  A    between atoms: C_18  and  O_20
REMARK                            x       y       z     vdW  Elec       q    Type
REMARK                         _______ _______ _______ _____ _____    ______ ____
ROOT
ATOM      1  C   UNL     1       7.944   5.272  18.856  0.00  0.00    +0.000 C 
ATOM      2  C   UNL     1       7.269   5.415  17.533  0.00  0.00    +0.000 C 
ATOM      3  N   UNL     1       7.625   4.764  16.468  0.00  0.00    +0.000 NA
ATOM      4  N   UNL     1       6.788   5.213  15.431  0.00  0.00    +0.000 N 
ATOM      5  C   UNL     1       5.874   6.214  15.863  0.00  0.00    +0.000 C 
ATOM      6  O   UNL     1       5.045   6.853  15.231  0.00  0.00    +0.000 OA
ATOM      7  C   UNL     1       6.118   6.349  17.341  0.00  0.00    +0.000 C 
ENDROOT
BRANCH   4   8
ATOM      8  C   UNL     1       6.937   4.634  14.161  0.00  0.00    +0.000 C 
ATOM      9  S   UNL     1       7.859   5.190  12.889  0.00  0.00    +0.000 S 
BRANCH   8  10
ATOM     10  N   UNL     1       6.222   3.478  13.984  0.00  0.00    +0.000 N 
ATOM     11  H   UNL     1       5.232   3.545  13.774  0.00  0.00    +0.000 HD
ATOM     12  H   UNL     1       6.696   2.586  13.927  0.00  0.00    +0.000 HD
ENDBRANCH   8  10
ENDBRANCH   4   8
BRANCH   7  13
ATOM     13  N   UNL     1       4.966   5.788  18.049  0.00  0.00    +0.000 NA
ATOM     14  N   UNL     1       4.681   4.631  17.677  0.00  0.00    +0.000 NA
BRANCH  14  15
ATOM     15  C   UNL     1       3.507   4.149  18.297  0.00  0.00    +0.000 A 
ATOM     16  C   UNL     1       2.306   4.237  17.581  0.00  0.00    +0.000 A 
ATOM     17  C   UNL     1       1.102   3.802  18.139  0.00  0.00    +0.000 A 
ATOM     18  C   UNL     1       1.089   3.261  19.423  0.00  0.00    +0.000 A 
ATOM     19  C   UNL     1       2.281   3.142  20.147  0.00  0.00    +0.000 A 
ATOM     20  C   UNL     1       3.484   3.586  19.585  0.00  0.00    +0.000 A 
BRANCH  19  21
ATOM     21  C   UNL     1       2.196   2.597  21.527  0.00  0.00    +0.000 C 
ATOM     22  O   UNL     1       3.172   2.183  22.127  0.00  0.00    +0.000 OA
BRANCH  21  23
ATOM     23  O   UNL     1       0.963   2.627  22.073  0.00  0.00    +0.000 OA
ATOM     24  H   UNL     1       0.237   2.285  21.522  0.00  0.00    +0.000 HD
ENDBRANCH  21  23
ENDBRANCH  19  21
ENDBRANCH  14  15
ENDBRANCH   7  13
TORSDOF 6
ENDMDL
MODEL 5
REMARK VINA RESULT:      -7.5      3.408      7.016
REMARK  Name = 
REMARK  7 active torsions:
REMARK  status: ('A' for Active; 'I' for Inactive)
REMARK    1  A    between atoms: C_1  and  C_2
REMARK    2  A    between atoms: N_4  and  C_5
REMARK    3  A    between atoms: C_5  and  N_6
REMARK    4  A    between atoms: C_10  and  N_11
REMARK    5  A    between atoms: N_12  and  C_13
REMARK    6  A    between atoms: C_17  and  C_18
REMARK    7  A    between atoms: C_18  and  O_20
REMARK                            x       y       z     vdW  Elec       q    Type
REMARK                         _______ _______ _______ _____ _____    ______ ____
ROOT
ATOM      1  C   UNL     1       3.143   7.267  17.701  0.00  0.00    +0.000 C 
ATOM      2  C   UNL     1       3.346   5.863  18.162  0.00  0.00    +0.000 C 
ATOM      3  N   UNL     1       2.404   5.127  18.667  0.00  0.00    +0.000 NA
ATOM      4  N   UNL     1       3.002   3.906  19.024  0.00  0.00    +0.000 N 
ATOM      5  C   UNL     1       4.398   3.882  18.749  0.00  0.00    +0.000 C 
ATOM      6  O   UNL     1       5.232   3.016  18.969  0.00  0.00    +0.000 OA
ATOM      7  C   UNL     1       4.683   5.200  18.084  0.00  0.00    +0.000 C 
ENDROOT
BRANCH   4   8
ATOM      8  C   UNL     1       2.186   2.900  19.564  0.00  0.00    +0.000 C 
ATOM      9  S   UNL     1       1.375   2.917  21.020  0.00  0.00    +0.000 S 
BRANCH   8  10
ATOM     10  N   UNL     1       2.069   1.786  18.774  0.00  0.00    +0.000 N 
ATOM     11  H   UNL     1       2.409   1.829  17.819  0.00  0.00    +0.000 HD
ATOM     12  H   UNL     1       1.778   0.903  19.172  0.00  0.00    +0.000 HD
ENDBRANCH   8  10
ENDBRANCH   4   8
BRANCH   7  13
ATOM     13  N   UNL     1       4.973   4.947  16.671  0.00  0.00    +0.000 NA
ATOM     14  N   UNL     1       6.171   4.665  16.462  0.00  0.00    +0.000 NA
BRANCH  14  15
ATOM     15  C   UNL     1       6.451   4.527  15.084  0.00  0.00    +0.000 A 
ATOM     16  C   UNL     1       7.523   5.260  14.558  0.00  0.00    +0.000 A 
ATOM     17  C   UNL     1       7.844   5.190  13.200  0.00  0.00    +0.000 A 
ATOM     18  C   UNL     1       7.097   4.374  12.353  0.00  0.00    +0.000 A 
ATOM     19  C   UNL     1       6.037   3.615  12.863  0.00  0.00    +0.000 A 
ATOM     20  C   UNL     1       5.715   3.694  14.223  0.00  0.00    +0.000 A 
BRANCH  19  21
ATOM     21  C   UNL     1       5.251   2.798  11.902  0.00  0.00    +0.000 C 
ATOM     22  O   UNL     1       4.193   3.178  11.434  0.00  0.00    +0.000 OA
BRANCH  21  23
ATOM     23  O   UNL     1       5.817   1.620  11.566  0.00  0.00    +0.000 OA
ATOM     24  H   UNL     1       6.543   1.657  10.918  0.00  0.00    +0.000 HD
ENDBRANCH  21  23
ENDBRANCH  19  21
ENDBRANCH  14  15
ENDBRANCH   7  13
TORSDOF 6
ENDMDL
MODEL 6
REMARK VINA RESULT:      -7.5      3.309      6.835
REMARK  Name = 
REMARK  7 active torsions:
REMARK  status: ('A' for Active; 'I' for Inactive)
REMARK    1  A    between atoms: C_1  and  C_2
REMARK    2  A    between atoms: N_4  and  C_5
REMARK    3  A    between atoms: C_5  and  N_6
REMARK    4  A    between atoms: C_10  and  N_11
REMARK    5  A    between atoms: N_12  and  C_13
REMARK    6  A    between atoms: C_17  and  C_18
REMARK    7  A    between atoms: C_18  and  O_20
REMARK                            x       y       z     vdW  Elec       q    Type
REMARK                         _______ _______ _______ _____ _____    ______ ____
ROOT
ATOM      1  C   UNL     1       3.368   7.509  17.473  0.00  0.00    +0.000 C 
ATOM      2  C   UNL     1       4.063   6.282  17.959  0.00  0.00    +0.000 C 
ATOM      3  N   UNL     1       3.464   5.313  18.583  0.00  0.00    +0.000 NA
ATOM      4  N   UNL     1       4.462   4.381  18.918  0.00  0.00    +0.000 N 
ATOM      5  C   UNL     1       5.758   4.796  18.503  0.00  0.00    +0.000 C 
ATOM      6  O   UNL     1       6.847   4.266  18.666  0.00  0.00    +0.000 OA
ATOM      7  C   UNL     1       5.532   6.088  17.767  0.00  0.00    +0.000 C 
ENDROOT
BRANCH   4   8
ATOM      8  C   UNL     1       4.074   3.202  19.574  0.00  0.00    +0.000 C 
ATOM      9  S   UNL     1       2.529   2.707  19.953  0.00  0.00    +0.000 S 
BRANCH   8  10
ATOM     10  N   UNL     1       5.118   2.388  19.931  0.00  0.00    +0.000 N 
ATOM     11  H   UNL     1       5.767   2.085  19.213  0.00  0.00    +0.000 HD
ATOM     12  H   UNL     1       5.315   2.206  20.906  0.00  0.00    +0.000 HD
ENDBRANCH   8  10
ENDBRANCH   4   8
BRANCH   7  13
ATOM     13  N   UNL     1       5.768   5.850  16.342  0.00  0.00    +0.000 NA
ATOM     14  N   UNL     1       6.023   4.656  16.082  0.00  0.00    +0.000 NA
BRANCH  14  15
ATOM     15  C   UNL     1       6.348   4.468  14.720  0.00  0.00    +0.000 A 
ATOM     16  C   UNL     1       7.415   5.208  14.194  0.00  0.00    +0.000 A 
ATOM     17  C   UNL     1       7.779   5.091  12.851  0.00  0.00    +0.000 A 
ATOM     18  C   UNL     1       7.081   4.219  12.018  0.00  0.00    +0.000 A 
ATOM     19  C   UNL     1       6.027   3.452  12.528  0.00  0.00    +0.000 A 
ATOM     20  C   UNL     1       5.662   3.579  13.874  0.00  0.00    +0.000 A 
BRANCH  19  21
ATOM     21  C   UNL     1       5.294   2.573  11.581  0.00  0.00    +0.000 C 
ATOM     22  O   UNL     1       5.740   1.504  11.204  0.00  0.00    +0.000 OA
BRANCH  21  23
ATOM     23  O   UNL     1       4.086   3.036  11.197  0.00  0.00    +0.000 OA
ATOM     24  H   UNL     1       4.061   3.545  10.368  0.00  0.00    +0.000 HD
ENDBRANCH  21  23
ENDBRANCH  19  21
ENDBRANCH  14  15
ENDBRANCH   7  13
TORSDOF 6
ENDMDL
MODEL 7
REMARK VINA RESULT:      -7.4      1.695      1.993
REMARK  Name = 
REMARK  7 active torsions:
REMARK  status: ('A' for Active; 'I' for Inactive)
REMARK    1  A    between atoms: C_1  and  C_2
REMARK    2  A    between atoms: N_4  and  C_5
REMARK    3  A    between atoms: C_5  and  N_6
REMARK    4  A    between atoms: C_10  and  N_11
REMARK    5  A    between atoms: N_12  and  C_13
REMARK    6  A    between atoms: C_17  and  C_18
REMARK    7  A    between atoms: C_18  and  O_20
REMARK                            x       y       z     vdW  Elec       q    Type
REMARK                         _______ _______ _______ _____ _____    ______ ____
ROOT
ATOM      1  C   UNL     1       7.739   4.778  18.368  0.00  0.00    +0.000 C 
ATOM      2  C   UNL     1       7.163   5.127  17.037  0.00  0.00    +0.000 C 
ATOM      3  N   UNL     1       7.584   4.628  15.915  0.00  0.00    +0.000 NA
ATOM      4  N   UNL     1       6.831   5.242  14.899  0.00  0.00    +0.000 N 
ATOM      5  C   UNL     1       5.903   6.193  15.408  0.00  0.00    +0.000 C 
ATOM      6  O   UNL     1       5.131   6.937  14.820  0.00  0.00    +0.000 OA
ATOM      7  C   UNL     1       6.042   6.107  16.903  0.00  0.00    +0.000 C 
ENDROOT
BRANCH   4   8
ATOM      8  C   UNL     1       7.062   4.849  13.572  0.00  0.00    +0.000 C 
ATOM      9  S   UNL     1       6.317   3.620  12.728  0.00  0.00    +0.000 S 
BRANCH   8  10
ATOM     10  N   UNL     1       8.023   5.584  12.927  0.00  0.00    +0.000 N 
ATOM     11  H   UNL     1       8.038   6.589  13.060  0.00  0.00    +0.000 HD
ATOM     12  H   UNL     1       8.781   5.123  12.442  0.00  0.00    +0.000 HD
ENDBRANCH   8  10
ENDBRANCH   4   8
BRANCH   7  13
ATOM     13  N   UNL     1       4.834   5.480  17.441  0.00  0.00    +0.000 NA
ATOM     14  N   UNL     1       4.362   6.091  18.421  0.00  0.00    +0.000 NA
BRANCH  14  15
ATOM     15  C   UNL     1       3.259   5.414  18.987  0.00  0.00    +0.000 A 
ATOM     16  C   UNL     1       2.665   5.971  20.128  0.00  0.00    +0.000 A 
ATOM     17  C   UNL     1       1.585   5.345  20.755  0.00  0.00    +0.000 A 
ATOM     18  C   UNL     1       1.079   4.154  20.238  0.00  0.00    +0.000 A 
ATOM     19  C   UNL     1       1.643   3.592  19.086  0.00  0.00    +0.000 A 
ATOM     20  C   UNL     1       2.729   4.221  18.465  0.00  0.00    +0.000 A 
BRANCH  19  21
ATOM     21  C   UNL     1       1.087   2.299  18.608  0.00  0.00    +0.000 C 
ATOM     22  O   UNL     1      -0.010   1.895  18.948  0.00  0.00    +0.000 OA
BRANCH  21  23
ATOM     23  O   UNL     1       1.878   1.628  17.746  0.00  0.00    +0.000 OA
ATOM     24  H   UNL     1       2.828   1.604  17.957  0.00  0.00    +0.000 HD
ENDBRANCH  21  23
ENDBRANCH  19  21
ENDBRANCH  14  15
ENDBRANCH   7  13
TORSDOF 6
ENDMDL
MODEL 8
REMARK VINA RESULT:      -7.4      4.476      5.347
REMARK  Name = 
REMARK  7 active torsions:
REMARK  status: ('A' for Active; 'I' for Inactive)
REMARK    1  A    between atoms: C_1  and  C_2
REMARK    2  A    between atoms: N_4  and  C_5
REMARK    3  A    between atoms: C_5  and  N_6
REMARK    4  A    between atoms: C_10  and  N_11
REMARK    5  A    between atoms: N_12  and  C_13
REMARK    6  A    between atoms: C_17  and  C_18
REMARK    7  A    between atoms: C_18  and  O_20
REMARK                            x       y       z     vdW  Elec       q    Type
REMARK                         _______ _______ _______ _____ _____    ______ ____
ROOT
ATOM      1  C   UNL     1       6.804   5.987  17.735  0.00  0.00    +0.000 C 
ATOM      2  C   UNL     1       5.664   5.080  18.059  0.00  0.00    +0.000 C 
ATOM      3  N   UNL     1       5.672   4.238  19.046  0.00  0.00    +0.000 NA
ATOM      4  N   UNL     1       4.452   3.540  18.981  0.00  0.00    +0.000 N 
ATOM      5  C   UNL     1       3.647   3.951  17.883  0.00  0.00    +0.000 C 
ATOM      6  O   UNL     1       2.564   3.535  17.498  0.00  0.00    +0.000 OA
ATOM      7  C   UNL     1       4.414   5.073  17.240  0.00  0.00    +0.000 C 
ENDROOT
BRANCH   4   8
ATOM      8  C   UNL     1       4.183   2.582  19.971  0.00  0.00    +0.000 C 
ATOM      9  S   UNL     1       2.886   2.534  21.017  0.00  0.00    +0.000 S 
BRANCH   8  10
ATOM     10  N   UNL     1       5.121   1.587  20.060  0.00  0.00    +0.000 N 
ATOM     11  H   UNL     1       6.086   1.842  20.238  0.00  0.00    +0.000 HD
ATOM     12  H   UNL     1       4.838   0.617  20.085  0.00  0.00    +0.000 HD
ENDBRANCH   8  10
ENDBRANCH   4   8
BRANCH   7  13
ATOM     13  N   UNL     1       3.701   6.325  17.503  0.00  0.00    +0.000 NA
ATOM     14  N   UNL     1       3.247   6.392  18.664  0.00  0.00    +0.000 NA
BRANCH  14  15
ATOM     15  C   UNL     1       2.476   7.559  18.864  0.00  0.00    +0.000 A 
ATOM     16  C   UNL     1       2.351   8.452  17.791  0.00  0.00    +0.000 A 
ATOM     17  C   UNL     1       1.623   9.637  17.923  0.00  0.00    +0.000 A 
ATOM     18  C   UNL     1       1.003   9.938  19.134  0.00  0.00    +0.000 A 
ATOM     19  C   UNL     1       1.096   9.049  20.212  0.00  0.00    +0.000 A 
ATOM     20  C   UNL     1       1.831   7.865  20.076  0.00  0.00    +0.000 A 
BRANCH  19  21
ATOM     21  C   UNL     1       0.448   9.445  21.489  0.00  0.00    +0.000 C 
ATOM     22  O   UNL     1       0.745  10.468  22.081  0.00  0.00    +0.000 OA
BRANCH  21  23
ATOM     23  O   UNL     1      -0.512   8.603  21.923  0.00  0.00    +0.000 OA
ATOM     24  H   UNL     1      -0.383   8.219  22.808  0.00  0.00    +0.000 HD
ENDBRANCH  21  23
ENDBRANCH  19  21
ENDBRANCH  14  15
ENDBRANCH   7  13
TORSDOF 6
ENDMDL
MODEL 9
REMARK VINA RESULT:      -7.4      3.747      5.142
REMARK  Name = 
REMARK  7 active torsions:
REMARK  status: ('A' for Active; 'I' for Inactive)
REMARK    1  A    between atoms: C_1  and  C_2
REMARK    2  A    between atoms: N_4  and  C_5
REMARK    3  A    between atoms: C_5  and  N_6
REMARK    4  A    between atoms: C_10  and  N_11
REMARK    5  A    between atoms: N_12  and  C_13
REMARK    6  A    between atoms: C_17  and  C_18
REMARK    7  A    between atoms: C_18  and  O_20
REMARK                            x       y       z     vdW  Elec       q    Type
REMARK                         _______ _______ _______ _____ _____    ______ ____
ROOT
ATOM      1  C   UNL     1       2.461   2.664  17.844  0.00  0.00    +0.000 C 
ATOM      2  C   UNL     1       3.736   3.433  17.945  0.00  0.00    +0.000 C 
ATOM      3  N   UNL     1       4.487   3.718  16.926  0.00  0.00    +0.000 NA
ATOM      4  N   UNL     1       5.609   4.396  17.438  0.00  0.00    +0.000 N 
ATOM      5  C   UNL     1       5.570   4.522  18.854  0.00  0.00    +0.000 C 
ATOM      6  O   UNL     1       6.385   5.003  19.627  0.00  0.00    +0.000 OA
ATOM      7  C   UNL     1       4.249   3.926  19.259  0.00  0.00    +0.000 C 
ENDROOT
BRANCH   4   8
ATOM      8  C   UNL     1       6.575   4.859  16.531  0.00  0.00    +0.000 C 
ATOM      9  S   UNL     1       6.694   4.515  14.905  0.00  0.00    +0.000 S 
BRANCH   8  10
ATOM     10  N   UNL     1       7.516   5.685  17.087  0.00  0.00    +0.000 N 
ATOM     11  H   UNL     1       8.250   5.276  17.654  0.00  0.00    +0.000 HD
ATOM     12  H   UNL     1       7.559   6.661  16.826  0.00  0.00    +0.000 HD
ENDBRANCH   8  10
ENDBRANCH   4   8
BRANCH   7  13
ATOM     13  N   UNL     1       3.373   5.012  19.701  0.00  0.00    +0.000 NA
ATOM     14  N   UNL     1       3.218   5.897  18.835  0.00  0.00    +0.000 NA
BRANCH  14  15
ATOM     15  C   UNL     1       2.454   6.983  19.317  0.00  0.00    +0.000 A 
ATOM     16  C   UNL     1       1.909   6.878  20.604  0.00  0.00    +0.000 A 
ATOM     17  C   UNL     1       1.125   7.903  21.139  0.00  0.00    +0.000 A 
ATOM     18  C   UNL     1       0.884   9.053  20.390  0.00  0.00    +0.000 A 
ATOM     19  C   UNL     1       1.438   9.189  19.112  0.00  0.00    +0.000 A 
ATOM     20  C   UNL     1       2.218   8.156  18.579  0.00  0.00    +0.000 A 
BRANCH  19  21
ATOM     21  C   UNL     1       1.110  10.420  18.346  0.00  0.00    +0.000 C 
ATOM     22  O   UNL     1       0.081  11.047  18.528  0.00  0.00    +0.000 OA
BRANCH  21  23
ATOM     23  O   UNL     1       2.052  10.804  17.461  0.00  0.00    +0.000 OA
ATOM     24  H   UNL     1       1.738  11.284  16.674  0.00  0.00    +0.000 HD
ENDBRANCH  21  23
ENDBRANCH  19  21
ENDBRANCH  14  15
ENDBRANCH   7  13
TORSDOF 6
ENDMDL
