MODEL 1
REMARK VINA RESULT:      -8.2      0.000      0.000
REMARK  Name = 
REMARK  7 active torsions:
REMARK  status: ('A' for Active; 'I' for Inactive)
REMARK    1  A    between atoms: C_1  and  C_2
REMARK    2  A    between atoms: C_2  and  O_3
REMARK    3  A    between atoms: O_3  and  C_4
REMARK    4  A    between atoms: C_9  and  N_10
REMARK    5  A    between atoms: N_13  and  C_14
REMARK    6  A    between atoms: N_17  and  C_18
REMARK    7  A    between atoms: C_18  and  C_19
REMARK                            x       y       z     vdW  Elec       q    Type
REMARK                         _______ _______ _______ _____ _____    ______ ____
ROOT
ATOM      1  N   UNL     1       6.998   5.116  17.632  0.00  0.00    +0.000 N 
ATOM      2  C   UNL     1       6.289   4.700  18.724  0.00  0.00    +0.000 C 
ATOM      3  O   UNL     1       6.505   5.195  19.826  0.00  0.00    +0.000 OA
ATOM      4  N   UNL     1       5.376   3.717  18.511  0.00  0.00    +0.000 N 
ATOM      5  H   UNL     1       7.692   5.817  17.852  0.00  0.00    +0.000 HD
ATOM      6  H   UNL     1       5.152   3.569  17.528  0.00  0.00    +0.000 HD
ENDROOT
BRANCH   1  12
ATOM      7  C   UNL     1       6.463   3.895  12.296  0.00  0.00    +0.000 A 
ATOM      8  N   UNL     1       7.342   4.732  11.745  0.00  0.00    +0.000 NA
ATOM      9  N   UNL     1       7.878   5.360  12.809  0.00  0.00    +0.000 N 
ATOM     10  C   UNL     1       7.354   4.968  14.013  0.00  0.00    +0.000 A 
ATOM     11  C   UNL     1       7.597   5.377  15.326  0.00  0.00    +0.000 A 
ATOM     12  C   UNL     1       6.836   4.726  16.293  0.00  0.00    +0.000 A 
ATOM     13  N   UNL     1       5.934   3.754  16.007  0.00  0.00    +0.000 NA
ATOM     14  C   UNL     1       5.726   3.364  14.726  0.00  0.00    +0.000 A 
ATOM     15  C   UNL     1       6.429   3.980  13.698  0.00  0.00    +0.000 A 
ATOM     16  H   UNL     1       8.597   6.054  12.639  0.00  0.00    +0.000 HD
BRANCH   7  17
ATOM     17  O   UNL     1       5.727   3.052  11.536  0.00  0.00    +0.000 OA
BRANCH  17  19
ATOM     18  C   UNL     1       3.710   3.624  10.383  0.00  0.00    +0.000 C 
ATOM     19  C   UNL     1       4.318   3.209  11.711  0.00  0.00    +0.000 C 
ENDBRANCH  17  19
ENDBRANCH   7  17
ENDBRANCH   1  12
BRANCH   4  20
ATOM     20  C   UNL     1       4.441   3.235  19.505  0.00  0.00    +0.000 C 
ATOM     21  C   UNL     1       4.048   1.794  19.216  0.00  0.00    +0.000 C 
ATOM     22  C   UNL     1       2.718   1.913  18.493  0.00  0.00    +0.000 C 
ATOM     23  N   UNL     1       2.036   3.067  19.094  0.00  0.00    +0.000 NA
ATOM     24  C   UNL     1       3.113   4.013  19.473  0.00  0.00    +0.000 C 
BRANCH  23  25
ATOM     25  C   UNL     1       1.207   2.704  20.274  0.00  0.00    +0.000 C 
BRANCH  25  26
ATOM     26  C   UNL     1       1.775   2.932  21.698  0.00  0.00    +0.000 C 
ATOM     27  F   UNL     1       2.178   4.200  21.924  0.00  0.00    +0.000 F 
ATOM     28  F   UNL     1       0.834   2.636  22.630  0.00  0.00    +0.000 F 
ATOM     29  F   UNL     1       2.835   2.122  21.933  0.00  0.00    +0.000 F 
ENDBRANCH  25  26
ENDBRANCH  23  25
ENDBRANCH   4  20
TORSDOF 6
ENDMDL
MODEL 2
REMARK VINA RESULT:      -8.1      5.534      8.448
REMARK  Name = 
REMARK  7 active torsions:
REMARK  status: ('A' for Active; 'I' for Inactive)
REMARK    1  A    between atoms: C_1  and  C_2
REMARK    2  A    between atoms: C_2  and  O_3
REMARK    3  A    between atoms: O_3  and  C_4
REMARK    4  A    between atoms: C_9  and  N_10
REMARK    5  A    between atoms: N_13  and  C_14
REMARK    6  A    between atoms: N_17  and  C_18
REMARK    7  A    between atoms: C_18  and  C_19
REMARK                            x       y       z     vdW  Elec       q    Type
REMARK                         _______ _______ _______ _____ _____    ______ ____
ROOT
ATOM      1  N   UNL     1       2.884   4.763  19.667  0.00  0.00    +0.000 N 
ATOM      2  C   UNL     1       3.884   4.158  18.958  0.00  0.00    +0.000 C 
ATOM      3  O   UNL     1       4.090   2.955  19.085  0.00  0.00    +0.000 OA
ATOM      4  N   UNL     1       4.620   4.963  18.149  0.00  0.00    +0.000 N 
ATOM      5  H   UNL     1       2.395   4.130  20.285  0.00  0.00    +0.000 HD
ATOM      6  H   UNL     1       4.196   5.874  17.977  0.00  0.00    +0.000 HD
ENDROOT
BRANCH   1  12
ATOM      7  C   UNL     1       0.994   9.929  19.638  0.00  0.00    +0.000 A 
ATOM      8  N   UNL     1       0.623  10.079  20.910  0.00  0.00    +0.000 NA
ATOM      9  N   UNL     1       0.960   8.903  21.472  0.00  0.00    +0.000 N 
ATOM     10  C   UNL     1       1.510   8.003  20.597  0.00  0.00    +0.000 A 
ATOM     11  C   UNL     1       1.958   6.689  20.753  0.00  0.00    +0.000 A 
ATOM     12  C   UNL     1       2.455   6.097  19.595  0.00  0.00    +0.000 A 
ATOM     13  N   UNL     1       2.522   6.735  18.399  0.00  0.00    +0.000 NA
ATOM     14  C   UNL     1       2.094   8.014  18.276  0.00  0.00    +0.000 A 
ATOM     15  C   UNL     1       1.564   8.670  19.380  0.00  0.00    +0.000 A 
ATOM     16  H   UNL     1       0.779   8.779  22.461  0.00  0.00    +0.000 HD
BRANCH   7  17
ATOM     17  O   UNL     1       0.842  10.927  18.740  0.00  0.00    +0.000 OA
BRANCH  17  19
ATOM     18  C   UNL     1      -1.386  10.606  17.929  0.00  0.00    +0.000 C 
ATOM     19  C   UNL     1      -0.466  11.501  18.740  0.00  0.00    +0.000 C 
ENDBRANCH  17  19
ENDBRANCH   7  17
ENDBRANCH   1  12
BRANCH   4  20
ATOM     20  C   UNL     1       5.630   4.494  17.224  0.00  0.00    +0.000 C 
ATOM     21  C   UNL     1       6.318   5.668  16.542  0.00  0.00    +0.000 C 
ATOM     22  C   UNL     1       5.609   5.783  15.205  0.00  0.00    +0.000 C 
ATOM     23  N   UNL     1       5.279   4.409  14.805  0.00  0.00    +0.000 NA
ATOM     24  C   UNL     1       5.022   3.678  16.070  0.00  0.00    +0.000 C 
BRANCH  23  25
ATOM     25  C   UNL     1       6.360   3.753  14.022  0.00  0.00    +0.000 C 
BRANCH  25  26
ATOM     26  C   UNL     1       6.172   3.541  12.499  0.00  0.00    +0.000 C 
ATOM     27  F   UNL     1       6.948   4.342  11.740  0.00  0.00    +0.000 F 
ATOM     28  F   UNL     1       6.468   2.260  12.165  0.00  0.00    +0.000 F 
ATOM     29  F   UNL     1       4.886   3.759  12.135  0.00  0.00    +0.000 F 
ENDBRANCH  25  26
ENDBRANCH  23  25
ENDBRANCH   4  20
TORSDOF 6
ENDMDL
MODEL 3
REMARK VINA RESULT:      -8.0      5.644      8.481
REMARK  Name = 
REMARK  7 active torsions:
REMARK  status: ('A' for Active; 'I' for Inactive)
REMARK    1  A    between atoms: C_1  and  C_2
REMARK    2  A    between atoms: C_2  and  O_3
REMARK    3  A    between atoms: O_3  and  C_4
REMARK    4  A    between atoms: C_9  and  N_10
REMARK    5  A    between atoms: N_13  and  C_14
REMARK    6  A    between atoms: N_17  and  C_18
REMARK    7  A    between atoms: C_18  and  C_19
REMARK                            x       y       z     vdW  Elec       q    Type
REMARK                         _______ _______ _______ _____ _____    ______ ____
ROOT
ATOM      1  N   UNL     1       2.980   4.967  19.790  0.00  0.00    +0.000 N 
ATOM      2  C   UNL     1       3.958   4.331  19.078  0.00  0.00    +0.000 C 
ATOM      3  O   UNL     1       4.198   3.146  19.282  0.00  0.00    +0.000 OA
ATOM      4  N   UNL     1       4.636   5.089  18.178  0.00  0.00    +0.000 N 
ATOM      5  H   UNL     1       2.535   4.372  20.475  0.00  0.00    +0.000 HD
ATOM      6  H   UNL     1       4.183   5.976  17.961  0.00  0.00    +0.000 HD
ENDROOT
BRANCH   1  12
ATOM      7  C   UNL     1       0.939  10.064  19.450  0.00  0.00    +0.000 A 
ATOM      8  N   UNL     1       0.468  10.241  20.685  0.00  0.00    +0.000 NA
ATOM      9  N   UNL     1       0.798   9.095  21.309  0.00  0.00    +0.000 N 
ATOM     10  C   UNL     1       1.440   8.186  20.508  0.00  0.00    +0.000 A 
ATOM     11  C   UNL     1       1.915   6.894  20.740  0.00  0.00    +0.000 A 
ATOM     12  C   UNL     1       2.516   6.284  19.642  0.00  0.00    +0.000 A 
ATOM     13  N   UNL     1       2.654   6.886  18.434  0.00  0.00    +0.000 NA
ATOM     14  C   UNL     1       2.197   8.146  18.237  0.00  0.00    +0.000 A 
ATOM     15  C   UNL     1       1.565   8.818  19.276  0.00  0.00    +0.000 A 
ATOM     16  H   UNL     1       0.547   8.995  22.286  0.00  0.00    +0.000 HD
BRANCH   7  17
ATOM     17  O   UNL     1       0.824  11.029  18.511  0.00  0.00    +0.000 OA
BRANCH  17  19
ATOM     18  C   UNL     1       1.313  13.371  18.497  0.00  0.00    +0.000 C 
ATOM     19  C   UNL     1       1.897  11.971  18.525  0.00  0.00    +0.000 C 
ENDBRANCH  17  19
ENDBRANCH   7  17
ENDBRANCH   1  12
BRANCH   4  20
ATOM     20  C   UNL     1       5.612   4.573  17.241  0.00  0.00    +0.000 C 
ATOM     21  C   UNL     1       6.352   5.714  16.557  0.00  0.00    +0.000 C 
ATOM     22  C   UNL     1       5.637   5.871  15.227  0.00  0.00    +0.000 C 
ATOM     23  N   UNL     1       5.233   4.517  14.825  0.00  0.00    +0.000 NA
ATOM     24  C   UNL     1       4.951   3.794  16.089  0.00  0.00    +0.000 C 
BRANCH  23  25
ATOM     25  C   UNL     1       6.271   3.811  14.029  0.00  0.00    +0.000 C 
BRANCH  25  26
ATOM     26  C   UNL     1       6.007   3.514  12.531  0.00  0.00    +0.000 C 
ATOM     27  F   UNL     1       4.762   3.839  12.126  0.00  0.00    +0.000 F 
ATOM     28  F   UNL     1       6.877   4.209  11.756  0.00  0.00    +0.000 F 
ATOM     29  F   UNL     1       6.192   2.201  12.257  0.00  0.00    +0.000 F 
ENDBRANCH  25  26
ENDBRANCH  23  25
ENDBRANCH   4  20
TORSDOF 6
ENDMDL
MODEL 4
REMARK VINA RESULT:      -7.9      0.886      1.274
REMARK  Name = 
REMARK  7 active torsions:
REMARK  status: ('A' for Active; 'I' for Inactive)
REMARK    1  A    between atoms: C_1  and  C_2
REMARK    2  A    between atoms: C_2  and  O_3
REMARK    3  A    between atoms: O_3  and  C_4
REMARK    4  A    between atoms: C_9  and  N_10
REMARK    5  A    between atoms: N_13  and  C_14
REMARK    6  A    between atoms: N_17  and  C_18
REMARK    7  A    between atoms: C_18  and  C_19
REMARK                            x       y       z     vdW  Elec       q    Type
REMARK                         _______ _______ _______ _____ _____    ______ ____
ROOT
ATOM      1  N   UNL     1       6.648   5.266  17.572  0.00  0.00    +0.000 N 
ATOM      2  C   UNL     1       5.942   4.772  18.634  0.00  0.00    +0.000 C 
ATOM      3  O   UNL     1       6.004   5.324  19.727  0.00  0.00    +0.000 OA
ATOM      4  N   UNL     1       5.210   3.652  18.401  0.00  0.00    +0.000 N 
ATOM      5  H   UNL     1       7.208   6.073  17.808  0.00  0.00    +0.000 HD
ATOM      6  H   UNL     1       5.077   3.444  17.412  0.00  0.00    +0.000 HD
ENDROOT
BRANCH   1  12
ATOM      7  C   UNL     1       6.680   3.829  12.263  0.00  0.00    +0.000 A 
ATOM      8  N   UNL     1       7.503   4.743  11.748  0.00  0.00    +0.000 NA
ATOM      9  N   UNL     1       7.879   5.460  12.824  0.00  0.00    +0.000 N 
ATOM     10  C   UNL     1       7.307   5.048  13.999  0.00  0.00    +0.000 A 
ATOM     11  C   UNL     1       7.398   5.522  15.310  0.00  0.00    +0.000 A 
ATOM     12  C   UNL     1       6.638   4.819  16.241  0.00  0.00    +0.000 A 
ATOM     13  N   UNL     1       5.875   3.743  15.925  0.00  0.00    +0.000 NA
ATOM     14  C   UNL     1       5.815   3.293  14.649  0.00  0.00    +0.000 A 
ATOM     15  C   UNL     1       6.526   3.952  13.654  0.00  0.00    +0.000 A 
ATOM     16  H   UNL     1       8.529   6.225  12.683  0.00  0.00    +0.000 HD
BRANCH   7  17
ATOM     17  O   UNL     1       6.105   2.885  11.484  0.00  0.00    +0.000 OA
BRANCH  17  19
ATOM     18  C   UNL     1       6.183   0.514  11.176  0.00  0.00    +0.000 C 
ATOM     19  C   UNL     1       6.980   1.806  11.154  0.00  0.00    +0.000 C 
ENDBRANCH  17  19
ENDBRANCH   7  17
ENDBRANCH   1  12
BRANCH   4  20
ATOM     20  C   UNL     1       4.298   3.055  19.354  0.00  0.00    +0.000 C 
ATOM     21  C   UNL     1       3.754   1.737  18.821  0.00  0.00    +0.000 C 
ATOM     22  C   UNL     1       2.399   2.104  18.243  0.00  0.00    +0.000 C 
ATOM     23  N   UNL     1       1.866   3.163  19.110  0.00  0.00    +0.000 NA
ATOM     24  C   UNL     1       3.048   3.926  19.580  0.00  0.00    +0.000 C 
BRANCH  23  25
ATOM     25  C   UNL     1       1.082   2.637  20.259  0.00  0.00    +0.000 C 
BRANCH  25  26
ATOM     26  C   UNL     1       1.618   2.839  21.698  0.00  0.00    +0.000 C 
ATOM     27  F   UNL     1       0.733   2.499  22.659  0.00  0.00    +0.000 F 
ATOM     28  F   UNL     1       2.732   2.090  21.893  0.00  0.00    +0.000 F 
ATOM     29  F   UNL     1       1.967   4.131  21.909  0.00  0.00    +0.000 F 
ENDBRANCH  25  26
ENDBRANCH  23  25
ENDBRANCH   4  20
TORSDOF 6
ENDMDL
MODEL 5
REMARK VINA RESULT:      -7.9      5.814      8.567
REMARK  Name = 
REMARK  7 active torsions:
REMARK  status: ('A' for Active; 'I' for Inactive)
REMARK    1  A    between atoms: C_1  and  C_2
REMARK    2  A    between atoms: C_2  and  O_3
REMARK    3  A    between atoms: O_3  and  C_4
REMARK    4  A    between atoms: C_9  and  N_10
REMARK    5  A    between atoms: N_13  and  C_14
REMARK    6  A    between atoms: N_17  and  C_18
REMARK    7  A    between atoms: C_18  and  C_19
REMARK                            x       y       z     vdW  Elec       q    Type
REMARK                         _______ _______ _______ _____ _____    ______ ____
ROOT
ATOM      1  N   UNL     1       2.770   5.628  20.137  0.00  0.00    +0.000 N 
ATOM      2  C   UNL     1       3.807   5.007  19.497  0.00  0.00    +0.000 C 
ATOM      3  O   UNL     1       4.101   3.850  19.778  0.00  0.00    +0.000 OA
ATOM      4  N   UNL     1       4.477   5.749  18.578  0.00  0.00    +0.000 N 
ATOM      5  H   UNL     1       2.333   5.048  20.840  0.00  0.00    +0.000 HD
ATOM      6  H   UNL     1       3.987   6.597  18.295  0.00  0.00    +0.000 HD
ENDROOT
BRANCH   1  12
ATOM      7  C   UNL     1       0.500  10.591  19.454  0.00  0.00    +0.000 A 
ATOM      8  N   UNL     1       0.091  10.866  20.693  0.00  0.00    +0.000 NA
ATOM      9  N   UNL     1       0.503   9.795  21.398  0.00  0.00    +0.000 N 
ATOM     10  C   UNL     1       1.138   8.841  20.647  0.00  0.00    +0.000 A 
ATOM     11  C   UNL     1       1.679   7.594  20.968  0.00  0.00    +0.000 A 
ATOM     12  C   UNL     1       2.243   6.907  19.896  0.00  0.00    +0.000 A 
ATOM     13  N   UNL     1       2.289   7.398  18.633  0.00  0.00    +0.000 NA
ATOM     14  C   UNL     1       1.769   8.616  18.349  0.00  0.00    +0.000 A 
ATOM     15  C   UNL     1       1.168   9.358  19.358  0.00  0.00    +0.000 A 
ATOM     16  H   UNL     1       0.311   9.778  22.393  0.00  0.00    +0.000 HD
BRANCH   7  17
ATOM     17  O   UNL     1       0.293  11.459  18.439  0.00  0.00    +0.000 OA
BRANCH  17  19
ATOM     18  C   UNL     1      -1.860  10.781  17.646  0.00  0.00    +0.000 C 
ATOM     19  C   UNL     1      -1.065  11.884  18.319  0.00  0.00    +0.000 C 
ENDBRANCH  17  19
ENDBRANCH   7  17
ENDBRANCH   1  12
BRANCH   4  20
ATOM     20  C   UNL     1       5.513   5.236  17.707  0.00  0.00    +0.000 C 
ATOM     21  C   UNL     1       6.033   6.333  16.789  0.00  0.00    +0.000 C 
ATOM     22  C   UNL     1       5.281   6.112  15.489  0.00  0.00    +0.000 C 
ATOM     23  N   UNL     1       5.112   4.658  15.364  0.00  0.00    +0.000 NA
ATOM     24  C   UNL     1       4.980   4.152  16.752  0.00  0.00    +0.000 C 
BRANCH  23  25
ATOM     25  C   UNL     1       6.246   3.998  14.663  0.00  0.00    +0.000 C 
BRANCH  25  26
ATOM     26  C   UNL     1       6.164   3.775  13.132  0.00  0.00    +0.000 C 
ATOM     27  F   UNL     1       4.938   4.003  12.616  0.00  0.00    +0.000 F 
ATOM     28  F   UNL     1       7.030   4.600  12.492  0.00  0.00    +0.000 F 
ATOM     29  F   UNL     1       6.510   2.507  12.807  0.00  0.00    +0.000 F 
ENDBRANCH  25  26
ENDBRANCH  23  25
ENDBRANCH   4  20
TORSDOF 6
ENDMDL
MODEL 6
REMARK VINA RESULT:      -7.8      5.955      8.733
REMARK  Name = 
REMARK  7 active torsions:
REMARK  status: ('A' for Active; 'I' for Inactive)
REMARK    1  A    between atoms: C_1  and  C_2
REMARK    2  A    between atoms: C_2  and  O_3
REMARK    3  A    between atoms: O_3  and  C_4
REMARK    4  A    between atoms: C_9  and  N_10
REMARK    5  A    between atoms: N_13  and  C_14
REMARK    6  A    between atoms: N_17  and  C_18
REMARK    7  A    between atoms: C_18  and  C_19
REMARK                            x       y       z     vdW  Elec       q    Type
REMARK                         _______ _______ _______ _____ _____    ______ ____
ROOT
ATOM      1  N   UNL     1       1.942   6.069  20.753  0.00  0.00    +0.000 N 
ATOM      2  C   UNL     1       2.885   5.228  20.231  0.00  0.00    +0.000 C 
ATOM      3  O   UNL     1       2.945   4.061  20.604  0.00  0.00    +0.000 OA
ATOM      4  N   UNL     1       3.733   5.769  19.319  0.00  0.00    +0.000 N 
ATOM      5  H   UNL     1       1.364   5.631  21.457  0.00  0.00    +0.000 HD
ATOM      6  H   UNL     1       3.424   6.666  18.948  0.00  0.00    +0.000 HD
ENDROOT
BRANCH   1  12
ATOM      7  C   UNL     1       0.655  11.289  19.591  0.00  0.00    +0.000 A 
ATOM      8  N   UNL     1       0.197  11.715  20.769  0.00  0.00    +0.000 NA
ATOM      9  N   UNL     1       0.351  10.642  21.567  0.00  0.00    +0.000 N 
ATOM     10  C   UNL     1       0.868   9.542  20.932  0.00  0.00    +0.000 A 
ATOM     11  C   UNL     1       1.151   8.247  21.369  0.00  0.00    +0.000 A 
ATOM     12  C   UNL     1       1.673   7.400  20.395  0.00  0.00    +0.000 A 
ATOM     13  N   UNL     1       1.912   7.787  19.117  0.00  0.00    +0.000 NA
ATOM     14  C   UNL     1       1.642   9.054  18.720  0.00  0.00    +0.000 A 
ATOM     15  C   UNL     1       1.099   9.956  19.626  0.00  0.00    +0.000 A 
ATOM     16  H   UNL     1       0.075  10.727  22.538  0.00  0.00    +0.000 HD
BRANCH   7  17
ATOM     17  O   UNL     1       0.692  12.108  18.516  0.00  0.00    +0.000 OA
BRANCH  17  19
ATOM     18  C   UNL     1       2.794  13.220  18.250  0.00  0.00    +0.000 C 
ATOM     19  C   UNL     1       1.369  13.341  18.760  0.00  0.00    +0.000 C 
ENDBRANCH  17  19
ENDBRANCH   7  17
ENDBRANCH   1  12
BRANCH   4  20
ATOM     20  C   UNL     1       4.709   5.016  18.560  0.00  0.00    +0.000 C 
ATOM     21  C   UNL     1       6.117   5.308  19.059  0.00  0.00    +0.000 C 
ATOM     22  C   UNL     1       6.643   6.349  18.088  0.00  0.00    +0.000 C 
ATOM     23  N   UNL     1       6.063   6.011  16.782  0.00  0.00    +0.000 NA
ATOM     24  C   UNL     1       4.731   5.429  17.077  0.00  0.00    +0.000 C 
BRANCH  23  25
ATOM     25  C   UNL     1       6.898   5.059  16.002  0.00  0.00    +0.000 C 
BRANCH  25  26
ATOM     26  C   UNL     1       6.480   4.692  14.556  0.00  0.00    +0.000 C 
ATOM     27  F   UNL     1       5.318   5.258  14.168  0.00  0.00    +0.000 F 
ATOM     28  F   UNL     1       7.435   5.087  13.677  0.00  0.00    +0.000 F 
ATOM     29  F   UNL     1       6.343   3.351  14.416  0.00  0.00    +0.000 F 
ENDBRANCH  25  26
ENDBRANCH  23  25
ENDBRANCH   4  20
TORSDOF 6
ENDMDL
MODEL 7
REMARK VINA RESULT:      -7.6      5.227      8.374
REMARK  Name = 
REMARK  7 active torsions:
REMARK  status: ('A' for Active; 'I' for Inactive)
REMARK    1  A    between atoms: C_1  and  C_2
REMARK    2  A    between atoms: C_2  and  O_3
REMARK    3  A    between atoms: O_3  and  C_4
REMARK    4  A    between atoms: C_9  and  N_10
REMARK    5  A    between atoms: N_13  and  C_14
REMARK    6  A    between atoms: N_17  and  C_18
REMARK    7  A    between atoms: C_18  and  C_19
REMARK                            x       y       z     vdW  Elec       q    Type
REMARK                         _______ _______ _______ _____ _____    ______ ____
ROOT
ATOM      1  N   UNL     1       2.759   3.805  18.874  0.00  0.00    +0.000 N 
ATOM      2  C   UNL     1       3.759   3.248  18.127  0.00  0.00    +0.000 C 
ATOM      3  O   UNL     1       3.831   2.029  18.004  0.00  0.00    +0.000 OA
ATOM      4  N   UNL     1       4.647   4.111  17.570  0.00  0.00    +0.000 N 
ATOM      5  H   UNL     1       2.151   3.120  19.300  0.00  0.00    +0.000 HD
ATOM      6  H   UNL     1       4.334   5.081  17.570  0.00  0.00    +0.000 HD
ENDROOT
BRANCH   1  12
ATOM      7  C   UNL     1       1.453   9.054  19.876  0.00  0.00    +0.000 A 
ATOM      8  N   UNL     1       1.236   9.024  21.191  0.00  0.00    +0.000 NA
ATOM      9  N   UNL     1       1.498   7.745  21.518  0.00  0.00    +0.000 N 
ATOM     10  C   UNL     1       1.852   6.956  20.455  0.00  0.00    +0.000 A 
ATOM     11  C   UNL     1       2.168   5.600  20.350  0.00  0.00    +0.000 A 
ATOM     12  C   UNL     1       2.472   5.167  19.062  0.00  0.00    +0.000 A 
ATOM     13  N   UNL     1       2.484   5.986  17.980  0.00  0.00    +0.000 NA
ATOM     14  C   UNL     1       2.188   7.301  18.110  0.00  0.00    +0.000 A 
ATOM     15  C   UNL     1       1.851   7.809  19.358  0.00  0.00    +0.000 A 
ATOM     16  H   UNL     1       1.410   7.474  22.491  0.00  0.00    +0.000 HD
BRANCH   7  17
ATOM     17  O   UNL     1       1.318  10.198  19.169  0.00  0.00    +0.000 OA
BRANCH  17  19
ATOM     18  C   UNL     1      -1.045  10.531  18.987  0.00  0.00    +0.000 C 
ATOM     19  C   UNL     1       0.230  10.173  18.244  0.00  0.00    +0.000 C 
ENDBRANCH  17  19
ENDBRANCH   7  17
ENDBRANCH   1  12
BRANCH   4  20
ATOM     20  C   UNL     1       5.692   3.730  16.644  0.00  0.00    +0.000 C 
ATOM     21  C   UNL     1       6.918   4.612  16.827  0.00  0.00    +0.000 C 
ATOM     22  C   UNL     1       6.783   5.661  15.739  0.00  0.00    +0.000 C 
ATOM     23  N   UNL     1       6.169   4.976  14.594  0.00  0.00    +0.000 NA
ATOM     24  C   UNL     1       5.273   3.949  15.179  0.00  0.00    +0.000 C 
BRANCH  23  25
ATOM     25  C   UNL     1       7.167   4.354  13.683  0.00  0.00    +0.000 C 
BRANCH  25  26
ATOM     26  C   UNL     1       6.732   3.935  12.256  0.00  0.00    +0.000 C 
ATOM     27  F   UNL     1       7.231   4.727  11.283  0.00  0.00    +0.000 F 
ATOM     28  F   UNL     1       7.143   2.669  11.994  0.00  0.00    +0.000 F 
ATOM     29  F   UNL     1       5.383   3.948  12.136  0.00  0.00    +0.000 F 
ENDBRANCH  25  26
ENDBRANCH  23  25
ENDBRANCH   4  20
TORSDOF 6
ENDMDL
MODEL 8
REMARK VINA RESULT:      -7.6      6.117      8.878
REMARK  Name = 
REMARK  7 active torsions:
REMARK  status: ('A' for Active; 'I' for Inactive)
REMARK    1  A    between atoms: C_1  and  C_2
REMARK    2  A    between atoms: C_2  and  O_3
REMARK    3  A    between atoms: O_3  and  C_4
REMARK    4  A    between atoms: C_9  and  N_10
REMARK    5  A    between atoms: N_13  and  C_14
REMARK    6  A    between atoms: N_17  and  C_18
REMARK    7  A    between atoms: C_18  and  C_19
REMARK                            x       y       z     vdW  Elec       q    Type
REMARK                         _______ _______ _______ _____ _____    ______ ____
ROOT
ATOM      1  N   UNL     1       1.792   6.031  20.814  0.00  0.00    +0.000 N 
ATOM      2  C   UNL     1       2.755   5.191  20.329  0.00  0.00    +0.000 C 
ATOM      3  O   UNL     1       2.768   4.010  20.660  0.00  0.00    +0.000 OA
ATOM      4  N   UNL     1       3.677   5.747  19.501  0.00  0.00    +0.000 N 
ATOM      5  H   UNL     1       1.157   5.579  21.457  0.00  0.00    +0.000 HD
ATOM      6  H   UNL     1       3.412   6.664  19.144  0.00  0.00    +0.000 HD
ENDROOT
BRANCH   1  12
ATOM      7  C   UNL     1       0.702  11.322  19.782  0.00  0.00    +0.000 A 
ATOM      8  N   UNL     1       0.253  11.734  20.968  0.00  0.00    +0.000 NA
ATOM      9  N   UNL     1       0.363  10.636  21.738  0.00  0.00    +0.000 N 
ATOM     10  C   UNL     1       0.843   9.535  21.078  0.00  0.00    +0.000 A 
ATOM     11  C   UNL     1       1.077   8.219  21.483  0.00  0.00    +0.000 A 
ATOM     12  C   UNL     1       1.573   7.379  20.489  0.00  0.00    +0.000 A 
ATOM     13  N   UNL     1       1.834   7.790  19.223  0.00  0.00    +0.000 NA
ATOM     14  C   UNL     1       1.613   9.076  18.858  0.00  0.00    +0.000 A 
ATOM     15  C   UNL     1       1.097   9.973  19.784  0.00  0.00    +0.000 A 
ATOM     16  H   UNL     1       0.085  10.706  22.710  0.00  0.00    +0.000 HD
BRANCH   7  17
ATOM     17  O   UNL     1       0.775  12.166  18.728  0.00  0.00    +0.000 OA
BRANCH  17  19
ATOM     18  C   UNL     1      -0.146  14.374  18.698  0.00  0.00    +0.000 C 
ATOM     19  C   UNL     1      -0.430  12.897  18.497  0.00  0.00    +0.000 C 
ENDBRANCH  17  19
ENDBRANCH   7  17
ENDBRANCH   1  12
BRANCH   4  20
ATOM     20  C   UNL     1       4.692   5.003  18.786  0.00  0.00    +0.000 C 
ATOM     21  C   UNL     1       6.027   5.733  18.837  0.00  0.00    +0.000 C 
ATOM     22  C   UNL     1       6.094   6.471  17.512  0.00  0.00    +0.000 C 
ATOM     23  N   UNL     1       5.434   5.599  16.532  0.00  0.00    +0.000 NA
ATOM     24  C   UNL     1       4.372   4.887  17.284  0.00  0.00    +0.000 C 
BRANCH  23  25
ATOM     25  C   UNL     1       6.365   4.636  15.887  0.00  0.00    +0.000 C 
BRANCH  25  26
ATOM     26  C   UNL     1       6.292   4.419  14.355  0.00  0.00    +0.000 C 
ATOM     27  F   UNL     1       6.508   3.141  13.978  0.00  0.00    +0.000 F 
ATOM     28  F   UNL     1       5.069   4.776  13.889  0.00  0.00    +0.000 F 
ATOM     29  F   UNL     1       7.201   5.190  13.712  0.00  0.00    +0.000 F 
ENDBRANCH  25  26
ENDBRANCH  23  25
ENDBRANCH   4  20
TORSDOF 6
ENDMDL
MODEL 9
REMARK VINA RESULT:      -7.6      5.776      8.547
REMARK  Name = 
REMARK  7 active torsions:
REMARK  status: ('A' for Active; 'I' for Inactive)
REMARK    1  A    between atoms: C_1  and  C_2
REMARK    2  A    between atoms: C_2  and  O_3
REMARK    3  A    between atoms: O_3  and  C_4
REMARK    4  A    between atoms: C_9  and  N_10
REMARK    5  A    between atoms: N_13  and  C_14
REMARK    6  A    between atoms: N_17  and  C_18
REMARK    7  A    between atoms: C_18  and  C_19
REMARK                            x       y       z     vdW  Elec       q    Type
REMARK                         _______ _______ _______ _____ _____    ______ ____
ROOT
ATOM      1  N   UNL     1       2.448   5.979  20.357  0.00  0.00    +0.000 N 
ATOM      2  C   UNL     1       3.386   5.229  19.703  0.00  0.00    +0.000 C 
ATOM      3  O   UNL     1       3.600   4.072  20.048  0.00  0.00    +0.000 OA
ATOM      4  N   UNL     1       4.054   5.846  18.694  0.00  0.00    +0.000 N 
ATOM      5  H   UNL     1       2.011   5.489  21.124  0.00  0.00    +0.000 HD
ATOM      6  H   UNL     1       3.618   6.713  18.381  0.00  0.00    +0.000 HD
ENDROOT
BRANCH   1  12
ATOM      7  C   UNL     1       0.542  11.057  19.439  0.00  0.00    +0.000 A 
ATOM      8  N   UNL     1       0.148  11.415  20.662  0.00  0.00    +0.000 NA
ATOM      9  N   UNL     1       0.479  10.350  21.416  0.00  0.00    +0.000 N 
ATOM     10  C   UNL     1       1.047   9.320  20.713  0.00  0.00    +0.000 A 
ATOM     11  C   UNL     1       1.497   8.054  21.092  0.00  0.00    +0.000 A 
ATOM     12  C   UNL     1       2.016   7.281  20.056  0.00  0.00    +0.000 A 
ATOM     13  N   UNL     1       2.103   7.712  18.773  0.00  0.00    +0.000 NA
ATOM     14  C   UNL     1       1.672   8.950  18.432  0.00  0.00    +0.000 A 
ATOM     15  C   UNL     1       1.121   9.776  19.402  0.00  0.00    +0.000 A 
ATOM     16  H   UNL     1       0.281  10.390  22.409  0.00  0.00    +0.000 HD
BRANCH   7  17
ATOM     17  O   UNL     1       0.403  11.892  18.385  0.00  0.00    +0.000 OA
BRANCH  17  19
ATOM     18  C   UNL     1      -1.794  11.363  17.599  0.00  0.00    +0.000 C 
ATOM     19  C   UNL     1      -0.917  12.419  18.245  0.00  0.00    +0.000 C 
ENDBRANCH  17  19
ENDBRANCH   7  17
ENDBRANCH   1  12
BRANCH   4  20
ATOM     20  C   UNL     1       4.984   5.187  17.803  0.00  0.00    +0.000 C 
ATOM     21  C   UNL     1       6.416   5.584  18.134  0.00  0.00    +0.000 C 
ATOM     22  C   UNL     1       6.735   6.680  17.134  0.00  0.00    +0.000 C 
ATOM     23  N   UNL     1       6.026   6.317  15.900  0.00  0.00    +0.000 NA
ATOM     24  C   UNL     1       4.790   5.625  16.339  0.00  0.00    +0.000 C 
BRANCH  23  25
ATOM     25  C   UNL     1       6.830   5.448  14.999  0.00  0.00    +0.000 C 
BRANCH  25  26
ATOM     26  C   UNL     1       6.200   4.149  14.438  0.00  0.00    +0.000 C 
ATOM     27  F   UNL     1       6.050   3.176  15.361  0.00  0.00    +0.000 F 
ATOM     28  F   UNL     1       4.972   4.408  13.923  0.00  0.00    +0.000 F 
ATOM     29  F   UNL     1       6.952   3.640  13.433  0.00  0.00    +0.000 F 
ENDBRANCH  25  26
ENDBRANCH  23  25
ENDBRANCH   4  20
TORSDOF 6
ENDMDL
