MODEL 1
REMARK VINA RESULT:      -7.4      0.000      0.000
REMARK  Name = 
REMARK  9 active torsions:
REMARK  status: ('A' for Active; 'I' for Inactive)
REMARK    1  A    between atoms: C_1  and  C_2
REMARK    2  A    between atoms: C_3  and  C_4
REMARK    3  A    between atoms: C_4  and  O_5
REMARK    4  A    between atoms: C_4  and  C_6
REMARK    5  A    between atoms: C_4  and  C_9
REMARK    6  A    between atoms: C_6  and  C_7
REMARK    7  A    between atoms: C_6  and  C_8
REMARK    8  A    between atoms: C_15  and  C_16
REMARK    9  A    between atoms: C_18  and  C_19
REMARK                            x       y       z     vdW  Elec       q    Type
REMARK                         _______ _______ _______ _____ _____    ______ ____
ROOT
ATOM      1  C   UNL     1       3.102   5.942  18.738  0.00  0.00    +0.000 C 
ATOM      2  C   UNL     1       3.835   4.934  17.879  0.00  0.00    +0.000 A 
ATOM      3  C   UNL     1       3.599   3.521  17.972  0.00  0.00    +0.000 A 
ATOM      4  C   UNL     1       4.292   2.709  17.047  0.00  0.00    +0.000 A 
ATOM      5  C   UNL     1       5.258   3.203  16.176  0.00  0.00    +0.000 A 
ATOM      6  C   UNL     1       5.520   4.564  16.119  0.00  0.00    +0.000 A 
ATOM      7  C   UNL     1       4.793   5.454  16.935  0.00  0.00    +0.000 A 
ENDROOT
BRANCH   7   8
ATOM      8  C   UNL     1       5.073   6.941  16.722  0.00  0.00    +0.000 C 
ATOM      9  F   UNL     1       4.323   7.803  17.458  0.00  0.00    +0.000 F 
ATOM     10  F   UNL     1       6.366   7.263  16.998  0.00  0.00    +0.000 F 
ATOM     11  F   UNL     1       4.858   7.308  15.426  0.00  0.00    +0.000 F 
ENDBRANCH   7   8
BRANCH   6  12
ATOM     12  C   UNL     1       6.525   5.003  15.191  0.00  0.00    +0.000 C 
ATOM     13  N   UNL     1       7.338   5.377  14.452  0.00  0.00    +0.000 NA
ENDBRANCH   6  12
BRANCH   3  14
ATOM     14  C   UNL     1       2.562   2.845  18.951  0.00  0.00    +0.000 C 
BRANCH  14  15
ATOM     15  C   UNL     1       1.060   3.337  18.764  0.00  0.00    +0.000 C 
ATOM     16  F   UNL     1       0.883   4.017  17.603  0.00  0.00    +0.000 F 
ATOM     17  F   UNL     1       0.188   2.295  18.747  0.00  0.00    +0.000 F 
ATOM     18  F   UNL     1       0.621   4.160  19.743  0.00  0.00    +0.000 F 
ENDBRANCH  14  15
BRANCH  14  19
ATOM     19  C   UNL     1       2.958   2.926  20.492  0.00  0.00    +0.000 C 
ATOM     20  C   UNL     1       1.889   2.384  21.463  0.00  0.00    +0.000 C 
ATOM     21  C   UNL     1       4.312   2.268  20.829  0.00  0.00    +0.000 C 
ENDBRANCH  14  19
BRANCH  14  22
ATOM     22  O   UNL     1       2.669   1.424  18.631  0.00  0.00    +0.000 OA
ATOM     23  H   UNL     1       1.904   1.170  18.087  0.00  0.00    +0.000 HD
ENDBRANCH  14  22
ENDBRANCH   3  14
TORSDOF 6
ENDMDL
MODEL 2
REMARK VINA RESULT:      -7.2      0.040      1.132
REMARK  Name = 
REMARK  9 active torsions:
REMARK  status: ('A' for Active; 'I' for Inactive)
REMARK    1  A    between atoms: C_1  and  C_2
REMARK    2  A    between atoms: C_3  and  C_4
REMARK    3  A    between atoms: C_4  and  O_5
REMARK    4  A    between atoms: C_4  and  C_6
REMARK    5  A    between atoms: C_4  and  C_9
REMARK    6  A    between atoms: C_6  and  C_7
REMARK    7  A    between atoms: C_6  and  C_8
REMARK    8  A    between atoms: C_15  and  C_16
REMARK    9  A    between atoms: C_18  and  C_19
REMARK                            x       y       z     vdW  Elec       q    Type
REMARK                         _______ _______ _______ _____ _____    ______ ____
ROOT
ATOM      1  C   UNL     1       3.088   5.951  18.708  0.00  0.00    +0.000 C 
ATOM      2  C   UNL     1       3.824   4.936  17.861  0.00  0.00    +0.000 A 
ATOM      3  C   UNL     1       3.589   3.523  17.967  0.00  0.00    +0.000 A 
ATOM      4  C   UNL     1       4.286   2.704  17.052  0.00  0.00    +0.000 A 
ATOM      5  C   UNL     1       5.253   3.190  16.178  0.00  0.00    +0.000 A 
ATOM      6  C   UNL     1       5.514   4.552  16.109  0.00  0.00    +0.000 A 
ATOM      7  C   UNL     1       4.784   5.448  16.914  0.00  0.00    +0.000 A 
ENDROOT
BRANCH   7   8
ATOM      8  C   UNL     1       5.062   6.934  16.687  0.00  0.00    +0.000 C 
ATOM      9  F   UNL     1       4.897   7.386  15.417  0.00  0.00    +0.000 F 
ATOM     10  F   UNL     1       4.267   7.726  17.457  0.00  0.00    +0.000 F 
ATOM     11  F   UNL     1       6.347   7.255  17.010  0.00  0.00    +0.000 F 
ENDBRANCH   7   8
BRANCH   6  12
ATOM     12  C   UNL     1       6.521   4.983  15.179  0.00  0.00    +0.000 C 
ATOM     13  N   UNL     1       7.320   5.343  14.418  0.00  0.00    +0.000 NA
ENDBRANCH   6  12
BRANCH   3  14
ATOM     14  C   UNL     1       2.551   2.856  18.949  0.00  0.00    +0.000 C 
BRANCH  14  15
ATOM     15  C   UNL     1       1.048   3.340  18.750  0.00  0.00    +0.000 C 
ATOM     16  F   UNL     1       0.175   2.302  18.710  0.00  0.00    +0.000 F 
ATOM     17  F   UNL     1       0.644   4.155  19.759  0.00  0.00    +0.000 F 
ATOM     18  F   UNL     1       0.838   4.041  17.613  0.00  0.00    +0.000 F 
ENDBRANCH  14  15
BRANCH  14  19
ATOM     19  C   UNL     1       2.940   2.957  20.491  0.00  0.00    +0.000 C 
ATOM     20  C   UNL     1       1.875   2.411  21.463  0.00  0.00    +0.000 C 
ATOM     21  C   UNL     1       4.301   2.320  20.839  0.00  0.00    +0.000 C 
ENDBRANCH  14  19
BRANCH  14  22
ATOM     22  O   UNL     1       2.665   1.431  18.648  0.00  0.00    +0.000 OA
ATOM     23  H   UNL     1       3.416   1.068  19.147  0.00  0.00    +0.000 HD
ENDBRANCH  14  22
ENDBRANCH   3  14
TORSDOF 6
ENDMDL
MODEL 3
REMARK VINA RESULT:      -7.1      1.001      1.645
REMARK  Name = 
REMARK  9 active torsions:
REMARK  status: ('A' for Active; 'I' for Inactive)
REMARK    1  A    between atoms: C_1  and  C_2
REMARK    2  A    between atoms: C_3  and  C_4
REMARK    3  A    between atoms: C_4  and  O_5
REMARK    4  A    between atoms: C_4  and  C_6
REMARK    5  A    between atoms: C_4  and  C_9
REMARK    6  A    between atoms: C_6  and  C_7
REMARK    7  A    between atoms: C_6  and  C_8
REMARK    8  A    between atoms: C_15  and  C_16
REMARK    9  A    between atoms: C_18  and  C_19
REMARK                            x       y       z     vdW  Elec       q    Type
REMARK                         _______ _______ _______ _____ _____    ______ ____
ROOT
ATOM      1  C   UNL     1       4.648   5.561  19.480  0.00  0.00    +0.000 C 
ATOM      2  C   UNL     1       4.787   4.825  18.166  0.00  0.00    +0.000 A 
ATOM      3  C   UNL     1       3.969   3.696  17.821  0.00  0.00    +0.000 A 
ATOM      4  C   UNL     1       4.153   3.164  16.525  0.00  0.00    +0.000 A 
ATOM      5  C   UNL     1       5.153   3.596  15.659  0.00  0.00    +0.000 A 
ATOM      6  C   UNL     1       5.975   4.657  16.013  0.00  0.00    +0.000 A 
ATOM      7  C   UNL     1       5.785   5.311  17.246  0.00  0.00    +0.000 A 
ENDROOT
BRANCH   7   8
ATOM      8  C   UNL     1       6.664   6.537  17.497  0.00  0.00    +0.000 C 
ATOM      9  F   UNL     1       7.737   6.683  16.677  0.00  0.00    +0.000 F 
ATOM     10  F   UNL     1       5.964   7.700  17.384  0.00  0.00    +0.000 F 
ATOM     11  F   UNL     1       7.184   6.528  18.757  0.00  0.00    +0.000 F 
ENDBRANCH   7   8
BRANCH   6  12
ATOM     12  C   UNL     1       6.981   5.053  15.067  0.00  0.00    +0.000 C 
ATOM     13  N   UNL     1       7.806   5.381  14.319  0.00  0.00    +0.000 NA
ENDBRANCH   6  12
BRANCH   3  14
ATOM     14  C   UNL     1       2.837   3.093  18.738  0.00  0.00    +0.000 C 
BRANCH  14  15
ATOM     15  C   UNL     1       1.446   3.865  18.665  0.00  0.00    +0.000 C 
ATOM     16  F   UNL     1       0.388   3.033  18.823  0.00  0.00    +0.000 F 
ATOM     17  F   UNL     1       1.348   4.816  19.631  0.00  0.00    +0.000 F 
ATOM     18  F   UNL     1       1.234   4.513  17.498  0.00  0.00    +0.000 F 
ENDBRANCH  14  15
BRANCH  14  19
ATOM     19  C   UNL     1       3.255   2.898  20.263  0.00  0.00    +0.000 C 
ATOM     20  C   UNL     1       2.116   2.423  21.189  0.00  0.00    +0.000 C 
ATOM     21  C   UNL     1       4.475   1.977  20.467  0.00  0.00    +0.000 C 
ENDBRANCH  14  19
BRANCH  14  22
ATOM     22  O   UNL     1       2.682   1.730  18.236  0.00  0.00    +0.000 OA
ATOM     23  H   UNL     1       2.996   1.111  18.917  0.00  0.00    +0.000 HD
ENDBRANCH  14  22
ENDBRANCH   3  14
TORSDOF 6
ENDMDL
MODEL 4
REMARK VINA RESULT:      -6.9      1.017      1.236
REMARK  Name = 
REMARK  9 active torsions:
REMARK  status: ('A' for Active; 'I' for Inactive)
REMARK    1  A    between atoms: C_1  and  C_2
REMARK    2  A    between atoms: C_3  and  C_4
REMARK    3  A    between atoms: C_4  and  O_5
REMARK    4  A    between atoms: C_4  and  C_6
REMARK    5  A    between atoms: C_4  and  C_9
REMARK    6  A    between atoms: C_6  and  C_7
REMARK    7  A    between atoms: C_6  and  C_8
REMARK    8  A    between atoms: C_15  and  C_16
REMARK    9  A    between atoms: C_18  and  C_19
REMARK                            x       y       z     vdW  Elec       q    Type
REMARK                         _______ _______ _______ _____ _____    ______ ____
ROOT
ATOM      1  C   UNL     1       4.697   5.549  19.495  0.00  0.00    +0.000 C 
ATOM      2  C   UNL     1       4.811   4.826  18.171  0.00  0.00    +0.000 A 
ATOM      3  C   UNL     1       3.977   3.710  17.824  0.00  0.00    +0.000 A 
ATOM      4  C   UNL     1       4.138   3.191  16.521  0.00  0.00    +0.000 A 
ATOM      5  C   UNL     1       5.131   3.621  15.647  0.00  0.00    +0.000 A 
ATOM      6  C   UNL     1       5.969   4.669  16.000  0.00  0.00    +0.000 A 
ATOM      7  C   UNL     1       5.803   5.312  17.243  0.00  0.00    +0.000 A 
ENDROOT
BRANCH   7   8
ATOM      8  C   UNL     1       6.697   6.525  17.496  0.00  0.00    +0.000 C 
ATOM      9  F   UNL     1       7.254   6.611  18.733  0.00  0.00    +0.000 F 
ATOM     10  F   UNL     1       7.743   6.580  16.627  0.00  0.00    +0.000 F 
ATOM     11  F   UNL     1       6.011   7.693  17.339  0.00  0.00    +0.000 F 
ENDBRANCH   7   8
BRANCH   6  12
ATOM     12  C   UNL     1       6.967   5.065  15.047  0.00  0.00    +0.000 C 
ATOM     13  N   UNL     1       7.771   5.368  14.265  0.00  0.00    +0.000 NA
ENDBRANCH   6  12
BRANCH   3  14
ATOM     14  C   UNL     1       2.850   3.109  18.750  0.00  0.00    +0.000 C 
BRANCH  14  15
ATOM     15  C   UNL     1       1.468   3.899  18.706  0.00  0.00    +0.000 C 
ATOM     16  F   UNL     1       1.302   4.578  17.543  0.00  0.00    +0.000 F 
ATOM     17  F   UNL     1       0.406   3.061  18.828  0.00  0.00    +0.000 F 
ATOM     18  F   UNL     1       1.322   4.813  19.691  0.00  0.00    +0.000 F 
ENDBRANCH  14  15
BRANCH  14  19
ATOM     19  C   UNL     1       3.286   2.889  20.265  0.00  0.00    +0.000 C 
ATOM     20  C   UNL     1       2.156   2.412  21.201  0.00  0.00    +0.000 C 
ATOM     21  C   UNL     1       4.501   1.954  20.441  0.00  0.00    +0.000 C 
ENDBRANCH  14  19
BRANCH  14  22
ATOM     22  O   UNL     1       2.671   1.755  18.232  0.00  0.00    +0.000 OA
ATOM     23  H   UNL     1       1.723   1.537  18.253  0.00  0.00    +0.000 HD
ENDBRANCH  14  22
ENDBRANCH   3  14
TORSDOF 6
ENDMDL
MODEL 5
REMARK VINA RESULT:      -6.9      3.073      5.616
REMARK  Name = 
REMARK  9 active torsions:
REMARK  status: ('A' for Active; 'I' for Inactive)
REMARK    1  A    between atoms: C_1  and  C_2
REMARK    2  A    between atoms: C_3  and  C_4
REMARK    3  A    between atoms: C_4  and  O_5
REMARK    4  A    between atoms: C_4  and  C_6
REMARK    5  A    between atoms: C_4  and  C_9
REMARK    6  A    between atoms: C_6  and  C_7
REMARK    7  A    between atoms: C_6  and  C_8
REMARK    8  A    between atoms: C_15  and  C_16
REMARK    9  A    between atoms: C_18  and  C_19
REMARK                            x       y       z     vdW  Elec       q    Type
REMARK                         _______ _______ _______ _____ _____    ______ ____
ROOT
ATOM      1  C   UNL     1       4.097   6.980  18.139  0.00  0.00    +0.000 C 
ATOM      2  C   UNL     1       3.972   5.488  17.922  0.00  0.00    +0.000 A 
ATOM      3  C   UNL     1       4.750   4.780  16.945  0.00  0.00    +0.000 A 
ATOM      4  C   UNL     1       4.589   3.378  16.915  0.00  0.00    +0.000 A 
ATOM      5  C   UNL     1       3.641   2.703  17.678  0.00  0.00    +0.000 A 
ATOM      6  C   UNL     1       2.855   3.395  18.589  0.00  0.00    +0.000 A 
ATOM      7  C   UNL     1       3.030   4.783  18.756  0.00  0.00    +0.000 A 
ENDROOT
BRANCH   7   8
ATOM      8  C   UNL     1       2.199   5.436  19.860  0.00  0.00    +0.000 C 
ATOM      9  F   UNL     1       2.221   6.794  19.902  0.00  0.00    +0.000 F 
ATOM     10  F   UNL     1       0.882   5.100  19.776  0.00  0.00    +0.000 F 
ATOM     11  F   UNL     1       2.614   5.040  21.097  0.00  0.00    +0.000 F 
ENDBRANCH   7   8
BRANCH   6  12
ATOM     12  C   UNL     1       1.901   2.634  19.347  0.00  0.00    +0.000 C 
ATOM     13  N   UNL     1       1.125   2.008  19.942  0.00  0.00    +0.000 NA
ENDBRANCH   6  12
BRANCH   3  14
ATOM     14  C   UNL     1       5.822   5.444  15.997  0.00  0.00    +0.000 C 
BRANCH  14  15
ATOM     15  C   UNL     1       6.094   4.647  14.646  0.00  0.00    +0.000 C 
ATOM     16  F   UNL     1       6.603   3.411  14.874  0.00  0.00    +0.000 F 
ATOM     17  F   UNL     1       4.955   4.478  13.925  0.00  0.00    +0.000 F 
ATOM     18  F   UNL     1       6.964   5.256  13.810  0.00  0.00    +0.000 F 
ENDBRANCH  14  15
BRANCH  14  19
ATOM     19  C   UNL     1       7.210   5.782  16.702  0.00  0.00    +0.000 C 
ATOM     20  C   UNL     1       7.316   7.212  17.270  0.00  0.00    +0.000 C 
ATOM     21  C   UNL     1       7.616   4.781  17.804  0.00  0.00    +0.000 C 
ENDBRANCH  14  19
BRANCH  14  22
ATOM     22  O   UNL     1       5.248   6.754  15.701  0.00  0.00    +0.000 OA
ATOM     23  H   UNL     1       4.318   6.634  15.443  0.00  0.00    +0.000 HD
ENDBRANCH  14  22
ENDBRANCH   3  14
TORSDOF 6
ENDMDL
MODEL 6
REMARK VINA RESULT:      -6.8      3.063      5.584
REMARK  Name = 
REMARK  9 active torsions:
REMARK  status: ('A' for Active; 'I' for Inactive)
REMARK    1  A    between atoms: C_1  and  C_2
REMARK    2  A    between atoms: C_3  and  C_4
REMARK    3  A    between atoms: C_4  and  O_5
REMARK    4  A    between atoms: C_4  and  C_6
REMARK    5  A    between atoms: C_4  and  C_9
REMARK    6  A    between atoms: C_6  and  C_7
REMARK    7  A    between atoms: C_6  and  C_8
REMARK    8  A    between atoms: C_15  and  C_16
REMARK    9  A    between atoms: C_18  and  C_19
REMARK                            x       y       z     vdW  Elec       q    Type
REMARK                         _______ _______ _______ _____ _____    ______ ____
ROOT
ATOM      1  C   UNL     1       4.011   6.967  18.092  0.00  0.00    +0.000 C 
ATOM      2  C   UNL     1       3.923   5.471  17.889  0.00  0.00    +0.000 A 
ATOM      3  C   UNL     1       4.730   4.770  16.930  0.00  0.00    +0.000 A 
ATOM      4  C   UNL     1       4.602   3.364  16.913  0.00  0.00    +0.000 A 
ATOM      5  C   UNL     1       3.659   2.676  17.671  0.00  0.00    +0.000 A 
ATOM      6  C   UNL     1       2.846   3.358  18.564  0.00  0.00    +0.000 A 
ATOM      7  C   UNL     1       2.987   4.752  18.718  0.00  0.00    +0.000 A 
ENDROOT
BRANCH   7   8
ATOM      8  C   UNL     1       2.126   5.397  19.804  0.00  0.00    +0.000 C 
ATOM      9  F   UNL     1       0.816   5.037  19.823  0.00  0.00    +0.000 F 
ATOM     10  F   UNL     1       2.592   5.125  21.054  0.00  0.00    +0.000 F 
ATOM     11  F   UNL     1       2.115   6.756  19.690  0.00  0.00    +0.000 F 
ENDBRANCH   7   8
BRANCH   6  12
ATOM     12  C   UNL     1       1.900   2.583  19.318  0.00  0.00    +0.000 C 
ATOM     13  N   UNL     1       1.128   1.949  19.909  0.00  0.00    +0.000 NA
ENDBRANCH   6  12
BRANCH   3  14
ATOM     14  C   UNL     1       5.798   5.450  15.988  0.00  0.00    +0.000 C 
BRANCH  14  15
ATOM     15  C   UNL     1       6.093   4.654  14.642  0.00  0.00    +0.000 C 
ATOM     16  F   UNL     1       4.971   4.457  13.905  0.00  0.00    +0.000 F 
ATOM     17  F   UNL     1       6.974   5.318  13.848  0.00  0.00    +0.000 F 
ATOM     18  F   UNL     1       6.630   3.428  14.830  0.00  0.00    +0.000 F 
ENDBRANCH  14  15
BRANCH  14  19
ATOM     19  C   UNL     1       7.175   5.810  16.703  0.00  0.00    +0.000 C 
ATOM     20  C   UNL     1       7.243   7.234  17.294  0.00  0.00    +0.000 C 
ATOM     21  C   UNL     1       7.603   4.803  17.790  0.00  0.00    +0.000 C 
ENDBRANCH  14  19
BRANCH  14  22
ATOM     22  O   UNL     1       5.205   6.750  15.685  0.00  0.00    +0.000 OA
ATOM     23  H   UNL     1       4.372   6.833  16.178  0.00  0.00    +0.000 HD
ENDBRANCH  14  22
ENDBRANCH   3  14
TORSDOF 6
ENDMDL
MODEL 7
REMARK VINA RESULT:      -6.8      3.071      5.564
REMARK  Name = 
REMARK  9 active torsions:
REMARK  status: ('A' for Active; 'I' for Inactive)
REMARK    1  A    between atoms: C_1  and  C_2
REMARK    2  A    between atoms: C_3  and  C_4
REMARK    3  A    between atoms: C_4  and  O_5
REMARK    4  A    between atoms: C_4  and  C_6
REMARK    5  A    between atoms: C_4  and  C_9
REMARK    6  A    between atoms: C_6  and  C_7
REMARK    7  A    between atoms: C_6  and  C_8
REMARK    8  A    between atoms: C_15  and  C_16
REMARK    9  A    between atoms: C_18  and  C_19
REMARK                            x       y       z     vdW  Elec       q    Type
REMARK                         _______ _______ _______ _____ _____    ______ ____
ROOT
ATOM      1  C   UNL     1       4.058   6.979  18.114  0.00  0.00    +0.000 C 
ATOM      2  C   UNL     1       3.949   5.483  17.913  0.00  0.00    +0.000 A 
ATOM      3  C   UNL     1       4.735   4.773  16.943  0.00  0.00    +0.000 A 
ATOM      4  C   UNL     1       4.589   3.369  16.928  0.00  0.00    +0.000 A 
ATOM      5  C   UNL     1       3.647   2.693  17.698  0.00  0.00    +0.000 A 
ATOM      6  C   UNL     1       2.854   3.385  18.602  0.00  0.00    +0.000 A 
ATOM      7  C   UNL     1       3.014   4.777  18.754  0.00  0.00    +0.000 A 
ENDROOT
BRANCH   7   8
ATOM      8  C   UNL     1       2.176   5.433  19.851  0.00  0.00    +0.000 C 
ATOM      9  F   UNL     1       2.503   5.109  21.129  0.00  0.00    +0.000 F 
ATOM     10  F   UNL     1       2.237   6.792  19.797  0.00  0.00    +0.000 F 
ATOM     11  F   UNL     1       0.857   5.107  19.733  0.00  0.00    +0.000 F 
ENDBRANCH   7   8
BRANCH   6  12
ATOM     12  C   UNL     1       1.908   2.622  19.368  0.00  0.00    +0.000 C 
ATOM     13  N   UNL     1       1.160   1.995  19.996  0.00  0.00    +0.000 NA
ENDBRANCH   6  12
BRANCH   3  14
ATOM     14  C   UNL     1       5.800   5.439  15.989  0.00  0.00    +0.000 C 
BRANCH  14  15
ATOM     15  C   UNL     1       6.071   4.636  14.641  0.00  0.00    +0.000 C 
ATOM     16  F   UNL     1       6.943   5.281  13.826  0.00  0.00    +0.000 F 
ATOM     17  F   UNL     1       6.596   3.407  14.885  0.00  0.00    +0.000 F 
ATOM     18  F   UNL     1       4.965   4.416  13.896  0.00  0.00    +0.000 F 
ENDBRANCH  14  15
BRANCH  14  19
ATOM     19  C   UNL     1       7.188   5.787  16.687  0.00  0.00    +0.000 C 
ATOM     20  C   UNL     1       7.283   7.216  17.260  0.00  0.00    +0.000 C 
ATOM     21  C   UNL     1       7.610   4.786  17.783  0.00  0.00    +0.000 C 
ENDBRANCH  14  19
BRANCH  14  22
ATOM     22  O   UNL     1       5.217   6.744  15.688  0.00  0.00    +0.000 OA
ATOM     23  H   UNL     1       5.510   7.017  14.802  0.00  0.00    +0.000 HD
ENDBRANCH  14  22
ENDBRANCH   3  14
TORSDOF 6
ENDMDL
MODEL 8
REMARK VINA RESULT:      -6.7      1.881      2.727
REMARK  Name = 
REMARK  9 active torsions:
REMARK  status: ('A' for Active; 'I' for Inactive)
REMARK    1  A    between atoms: C_1  and  C_2
REMARK    2  A    between atoms: C_3  and  C_4
REMARK    3  A    between atoms: C_4  and  O_5
REMARK    4  A    between atoms: C_4  and  C_6
REMARK    5  A    between atoms: C_4  and  C_9
REMARK    6  A    between atoms: C_6  and  C_7
REMARK    7  A    between atoms: C_6  and  C_8
REMARK    8  A    between atoms: C_15  and  C_16
REMARK    9  A    between atoms: C_18  and  C_19
REMARK                            x       y       z     vdW  Elec       q    Type
REMARK                         _______ _______ _______ _____ _____    ______ ____
ROOT
ATOM      1  C   UNL     1       4.326   2.621  16.710  0.00  0.00    +0.000 C 
ATOM      2  C   UNL     1       4.598   3.864  17.528  0.00  0.00    +0.000 A 
ATOM      3  C   UNL     1       3.893   4.161  18.743  0.00  0.00    +0.000 A 
ATOM      4  C   UNL     1       4.313   5.312  19.445  0.00  0.00    +0.000 A 
ATOM      5  C   UNL     1       5.260   6.204  18.949  0.00  0.00    +0.000 A 
ATOM      6  C   UNL     1       5.908   5.941  17.750  0.00  0.00    +0.000 A 
ATOM      7  C   UNL     1       5.621   4.757  17.042  0.00  0.00    +0.000 A 
ENDROOT
BRANCH   7   8
ATOM      8  C   UNL     1       6.465   4.501  15.793  0.00  0.00    +0.000 C 
ATOM      9  F   UNL     1       6.190   3.360  15.109  0.00  0.00    +0.000 F 
ATOM     10  F   UNL     1       6.347   5.505  14.881  0.00  0.00    +0.000 F 
ATOM     11  F   UNL     1       7.792   4.418  16.097  0.00  0.00    +0.000 F 
ENDBRANCH   7   8
BRANCH   6  12
ATOM     12  C   UNL     1       6.877   6.901  17.302  0.00  0.00    +0.000 C 
ATOM     13  N   UNL     1       7.673   7.672  16.954  0.00  0.00    +0.000 NA
ENDBRANCH   6  12
BRANCH   3  14
ATOM     14  C   UNL     1       2.773   3.249  19.378  0.00  0.00    +0.000 C 
BRANCH  14  15
ATOM     15  C   UNL     1       1.548   2.937  18.411  0.00  0.00    +0.000 C 
ATOM     16  F   UNL     1       1.253   3.984  17.602  0.00  0.00    +0.000 F 
ATOM     17  F   UNL     1       1.803   1.874  17.602  0.00  0.00    +0.000 F 
ATOM     18  F   UNL     1       0.399   2.633  19.054  0.00  0.00    +0.000 F 
ENDBRANCH  14  15
BRANCH  14  19
ATOM     19  C   UNL     1       2.223   3.758  20.783  0.00  0.00    +0.000 C 
ATOM     20  C   UNL     1       1.162   4.874  20.696  0.00  0.00    +0.000 C 
ATOM     21  C   UNL     1       1.685   2.634  21.693  0.00  0.00    +0.000 C 
ENDBRANCH  14  19
BRANCH  14  22
ATOM     22  O   UNL     1       3.485   2.015  19.702  0.00  0.00    +0.000 OA
ATOM     23  H   UNL     1       2.919   1.473  20.278  0.00  0.00    +0.000 HD
ENDBRANCH  14  22
ENDBRANCH   3  14
TORSDOF 6
ENDMDL
MODEL 9
REMARK VINA RESULT:      -6.6      3.848      5.404
REMARK  Name = 
REMARK  9 active torsions:
REMARK  status: ('A' for Active; 'I' for Inactive)
REMARK    1  A    between atoms: C_1  and  C_2
REMARK    2  A    between atoms: C_3  and  C_4
REMARK    3  A    between atoms: C_4  and  O_5
REMARK    4  A    between atoms: C_4  and  C_6
REMARK    5  A    between atoms: C_4  and  C_9
REMARK    6  A    between atoms: C_6  and  C_7
REMARK    7  A    between atoms: C_6  and  C_8
REMARK    8  A    between atoms: C_15  and  C_16
REMARK    9  A    between atoms: C_18  and  C_19
REMARK                            x       y       z     vdW  Elec       q    Type
REMARK                         _______ _______ _______ _____ _____    ______ ____
ROOT
ATOM      1  C   UNL     1       1.722   5.965  20.806  0.00  0.00    +0.000 C 
ATOM      2  C   UNL     1       1.953   6.988  19.716  0.00  0.00    +0.000 A 
ATOM      3  C   UNL     1       2.648   6.678  18.498  0.00  0.00    +0.000 A 
ATOM      4  C   UNL     1       2.712   7.709  17.536  0.00  0.00    +0.000 A 
ATOM      5  C   UNL     1       2.259   9.003  17.774  0.00  0.00    +0.000 A 
ATOM      6  C   UNL     1       1.629   9.315  18.971  0.00  0.00    +0.000 A 
ATOM      7  C   UNL     1       1.430   8.313  19.941  0.00  0.00    +0.000 A 
ENDROOT
BRANCH   7   8
ATOM      8  C   UNL     1       0.629   8.725  21.176  0.00  0.00    +0.000 C 
ATOM      9  F   UNL     1      -0.133   9.843  21.051  0.00  0.00    +0.000 F 
ATOM     10  F   UNL     1      -0.231   7.748  21.577  0.00  0.00    +0.000 F 
ATOM     11  F   UNL     1       1.445   8.973  22.240  0.00  0.00    +0.000 F 
ENDBRANCH   7   8
BRANCH   6  12
ATOM     12  C   UNL     1       1.181  10.669  19.146  0.00  0.00    +0.000 C 
ATOM     13  N   UNL     1       0.806  11.756  19.302  0.00  0.00    +0.000 NA
ENDBRANCH   6  12
BRANCH   3  14
ATOM     14  C   UNL     1       3.241   5.262  18.138  0.00  0.00    +0.000 C 
BRANCH  14  15
ATOM     15  C   UNL     1       2.149   4.163  17.770  0.00  0.00    +0.000 C 
ATOM     16  F   UNL     1       1.021   4.712  17.255  0.00  0.00    +0.000 F 
ATOM     17  F   UNL     1       2.615   3.282  16.846  0.00  0.00    +0.000 F 
ATOM     18  F   UNL     1       1.748   3.409  18.817  0.00  0.00    +0.000 F 
ENDBRANCH  14  15
BRANCH  14  19
ATOM     19  C   UNL     1       4.244   4.669  19.224  0.00  0.00    +0.000 C 
ATOM     20  C   UNL     1       4.492   3.150  19.114  0.00  0.00    +0.000 C 
ATOM     21  C   UNL     1       5.607   5.389  19.282  0.00  0.00    +0.000 C 
ENDBRANCH  14  19
BRANCH  14  22
ATOM     22  O   UNL     1       4.091   5.533  16.982  0.00  0.00    +0.000 OA
ATOM     23  H   UNL     1       4.704   4.787  16.866  0.00  0.00    +0.000 HD
ENDBRANCH  14  22
ENDBRANCH   3  14
TORSDOF 6
ENDMDL
