MODEL 1
REMARK VINA RESULT:      -7.0      0.000      0.000
REMARK  Name = 
REMARK  9 active torsions:
REMARK  status: ('A' for Active; 'I' for Inactive)
REMARK    1  A    between atoms: C_1  and  O_2
REMARK    2  A    between atoms: O_2  and  C_3
REMARK    3  A    between atoms: C_5  and  C_6
REMARK    4  A    between atoms: C_9  and  O_10
REMARK    5  A    between atoms: O_10  and  C_11
REMARK    6  A    between atoms: C_11  and  C_12
REMARK    7  A    between atoms: C_12  and  C_13
REMARK    8  A    between atoms: C_14  and  C_15
REMARK    9  A    between atoms: C_18  and  C_19
REMARK                            x       y       z     vdW  Elec       q    Type
REMARK                         _______ _______ _______ _____ _____    ______ ____
ROOT
ATOM      1  O   UNL     1       3.833   7.125  18.119  0.00  0.00    +0.000 OA
ENDROOT
BRANCH   1   8
ATOM      2  C   UNL     1       2.270   6.527  19.965  0.00  0.00    +0.000 A 
ATOM      3  C   UNL     1       1.663   5.468  20.661  0.00  0.00    +0.000 A 
ATOM      4  C   UNL     1       1.914   4.132  20.322  0.00  0.00    +0.000 A 
ATOM      5  C   UNL     1       1.290   3.016  21.108  0.00  0.00    +0.000 C 
ATOM      6  C   UNL     1       2.752   3.854  19.243  0.00  0.00    +0.000 A 
ATOM      7  C   UNL     1       3.347   4.899  18.531  0.00  0.00    +0.000 A 
ATOM      8  C   UNL     1       3.135   6.235  18.897  0.00  0.00    +0.000 A 
BRANCH   2  10
ATOM      9  C   UNL     1       0.979   8.064  21.228  0.00  0.00    +0.000 C 
ATOM     10  O   UNL     1       1.993   7.839  20.254  0.00  0.00    +0.000 OA
ENDBRANCH   2  10
ENDBRANCH   1   8
BRANCH   1  11
ATOM     11  C   UNL     1       4.374   6.630  16.892  0.00  0.00    +0.000 C 
BRANCH  11  12
ATOM     12  C   UNL     1       5.854   7.012  16.823  0.00  0.00    +0.000 C 
BRANCH  12  13
ATOM     13  C   UNL     1       6.754   5.826  16.908  0.00  0.00    +0.000 A 
ATOM     14  C   UNL     1       7.480   5.322  18.026  0.00  0.00    +0.000 A 
ATOM     15  C   UNL     1       7.542   5.820  19.418  0.00  0.00    +0.000 C 
ATOM     16  N   UNL     1       8.192   4.236  17.695  0.00  0.00    +0.000 NA
ATOM     17  O   UNL     1       7.938   4.009  16.360  0.00  0.00    +0.000 OA
ATOM     18  C   UNL     1       7.083   4.953  15.892  0.00  0.00    +0.000 A 
ATOM     19  C   UNL     1       6.709   4.850  14.469  0.00  0.00    +0.000 C 
ENDBRANCH  12  13
ENDBRANCH  11  12
ENDBRANCH   1  11
TORSDOF 5
ENDMDL
MODEL 2
REMARK VINA RESULT:      -7.0      2.300      6.172
REMARK  Name = 
REMARK  9 active torsions:
REMARK  status: ('A' for Active; 'I' for Inactive)
REMARK    1  A    between atoms: C_1  and  O_2
REMARK    2  A    between atoms: O_2  and  C_3
REMARK    3  A    between atoms: C_5  and  C_6
REMARK    4  A    between atoms: C_9  and  O_10
REMARK    5  A    between atoms: O_10  and  C_11
REMARK    6  A    between atoms: C_11  and  C_12
REMARK    7  A    between atoms: C_12  and  C_13
REMARK    8  A    between atoms: C_14  and  C_15
REMARK    9  A    between atoms: C_18  and  C_19
REMARK                            x       y       z     vdW  Elec       q    Type
REMARK                         _______ _______ _______ _____ _____    ______ ____
ROOT
ATOM      1  O   UNL     1       4.763   3.338  16.869  0.00  0.00    +0.000 OA
ENDROOT
BRANCH   1   8
ATOM      2  C   UNL     1       6.174   5.295  16.244  0.00  0.00    +0.000 A 
ATOM      3  C   UNL     1       7.032   6.296  16.728  0.00  0.00    +0.000 A 
ATOM      4  C   UNL     1       7.340   6.399  18.091  0.00  0.00    +0.000 A 
ATOM      5  C   UNL     1       8.294   7.447  18.581  0.00  0.00    +0.000 C 
ATOM      6  C   UNL     1       6.743   5.512  18.987  0.00  0.00    +0.000 A 
ATOM      7  C   UNL     1       5.873   4.524  18.519  0.00  0.00    +0.000 A 
ATOM      8  C   UNL     1       5.601   4.389  17.151  0.00  0.00    +0.000 A 
BRANCH   2  10
ATOM      9  C   UNL     1       6.874   4.870  14.017  0.00  0.00    +0.000 C 
ATOM     10  O   UNL     1       5.826   5.215  14.919  0.00  0.00    +0.000 OA
ENDBRANCH   2  10
ENDBRANCH   1   8
BRANCH   1  11
ATOM     11  C   UNL     1       3.749   3.040  17.829  0.00  0.00    +0.000 C 
BRANCH  11  12
ATOM     12  C   UNL     1       2.538   3.934  17.554  0.00  0.00    +0.000 C 
BRANCH  12  13
ATOM     13  C   UNL     1       2.267   4.887  18.669  0.00  0.00    +0.000 A 
ATOM     14  C   UNL     1       2.592   6.271  18.772  0.00  0.00    +0.000 A 
ATOM     15  C   UNL     1       3.276   7.158  17.805  0.00  0.00    +0.000 C 
ATOM     16  N   UNL     1       2.190   6.780  19.944  0.00  0.00    +0.000 NA
ATOM     17  O   UNL     1       1.591   5.741  20.623  0.00  0.00    +0.000 OA
ATOM     18  C   UNL     1       1.637   4.616  19.865  0.00  0.00    +0.000 A 
ATOM     19  C   UNL     1       1.033   3.405  20.453  0.00  0.00    +0.000 C 
ENDBRANCH  12  13
ENDBRANCH  11  12
ENDBRANCH   1  11
TORSDOF 5
ENDMDL
MODEL 3
REMARK VINA RESULT:      -7.0      1.892      3.445
REMARK  Name = 
REMARK  9 active torsions:
REMARK  status: ('A' for Active; 'I' for Inactive)
REMARK    1  A    between atoms: C_1  and  O_2
REMARK    2  A    between atoms: O_2  and  C_3
REMARK    3  A    between atoms: C_5  and  C_6
REMARK    4  A    between atoms: C_9  and  O_10
REMARK    5  A    between atoms: O_10  and  C_11
REMARK    6  A    between atoms: C_11  and  C_12
REMARK    7  A    between atoms: C_12  and  C_13
REMARK    8  A    between atoms: C_14  and  C_15
REMARK    9  A    between atoms: C_18  and  C_19
REMARK                            x       y       z     vdW  Elec       q    Type
REMARK                         _______ _______ _______ _____ _____    ______ ____
ROOT
ATOM      1  O   UNL     1       3.434   3.706  18.236  0.00  0.00    +0.000 OA
ENDROOT
BRANCH   1   8
ATOM      2  C   UNL     1       1.985   4.558  20.076  0.00  0.00    +0.000 A 
ATOM      3  C   UNL     1       1.496   5.709  20.716  0.00  0.00    +0.000 A 
ATOM      4  C   UNL     1       1.862   6.993  20.291  0.00  0.00    +0.000 A 
ATOM      5  C   UNL     1       1.292   8.209  20.959  0.00  0.00    +0.000 C 
ATOM      6  C   UNL     1       2.764   7.124  19.235  0.00  0.00    +0.000 A 
ATOM      7  C   UNL     1       3.272   5.986  18.603  0.00  0.00    +0.000 A 
ATOM      8  C   UNL     1       2.871   4.702  18.996  0.00  0.00    +0.000 A 
BRANCH   2  10
ATOM      9  C   UNL     1       2.478   2.790  21.577  0.00  0.00    +0.000 C 
ATOM     10  O   UNL     1       1.675   3.296  20.515  0.00  0.00    +0.000 OA
ENDBRANCH   2  10
ENDBRANCH   1   8
BRANCH   1  11
ATOM     11  C   UNL     1       3.827   4.046  16.905  0.00  0.00    +0.000 C 
BRANCH  11  12
ATOM     12  C   UNL     1       5.188   3.408  16.620  0.00  0.00    +0.000 C 
BRANCH  12  13
ATOM     13  C   UNL     1       6.161   4.375  16.037  0.00  0.00    +0.000 A 
ATOM     14  C   UNL     1       6.574   4.533  14.682  0.00  0.00    +0.000 A 
ATOM     15  C   UNL     1       6.153   3.796  13.470  0.00  0.00    +0.000 C 
ATOM     16  N   UNL     1       7.482   5.512  14.560  0.00  0.00    +0.000 NA
ATOM     17  O   UNL     1       7.672   6.012  15.830  0.00  0.00    +0.000 OA
ATOM     18  C   UNL     1       6.886   5.338  16.707  0.00  0.00    +0.000 A 
ATOM     19  C   UNL     1       6.972   5.756  18.120  0.00  0.00    +0.000 C 
ENDBRANCH  12  13
ENDBRANCH  11  12
ENDBRANCH   1  11
TORSDOF 5
ENDMDL
MODEL 4
REMARK VINA RESULT:      -6.9      1.865      2.895
REMARK  Name = 
REMARK  9 active torsions:
REMARK  status: ('A' for Active; 'I' for Inactive)
REMARK    1  A    between atoms: C_1  and  O_2
REMARK    2  A    between atoms: O_2  and  C_3
REMARK    3  A    between atoms: C_5  and  C_6
REMARK    4  A    between atoms: C_9  and  O_10
REMARK    5  A    between atoms: O_10  and  C_11
REMARK    6  A    between atoms: C_11  and  C_12
REMARK    7  A    between atoms: C_12  and  C_13
REMARK    8  A    between atoms: C_14  and  C_15
REMARK    9  A    between atoms: C_18  and  C_19
REMARK                            x       y       z     vdW  Elec       q    Type
REMARK                         _______ _______ _______ _____ _____    ______ ____
ROOT
ATOM      1  O   UNL     1       3.370   3.537  18.125  0.00  0.00    +0.000 OA
ENDROOT
BRANCH   1   8
ATOM      2  C   UNL     1       1.994   4.379  20.024  0.00  0.00    +0.000 A 
ATOM      3  C   UNL     1       1.531   5.527  20.689  0.00  0.00    +0.000 A 
ATOM      4  C   UNL     1       1.879   6.813  20.257  0.00  0.00    +0.000 A 
ATOM      5  C   UNL     1       1.336   8.025  20.953  0.00  0.00    +0.000 C 
ATOM      6  C   UNL     1       2.739   6.950  19.167  0.00  0.00    +0.000 A 
ATOM      7  C   UNL     1       3.223   5.815  18.510  0.00  0.00    +0.000 A 
ATOM      8  C   UNL     1       2.838   4.529  18.911  0.00  0.00    +0.000 A 
BRANCH   2  10
ATOM      9  C   UNL     1       2.171   2.787  21.773  0.00  0.00    +0.000 C 
ATOM     10  O   UNL     1       1.702   3.115  20.469  0.00  0.00    +0.000 OA
ENDBRANCH   2  10
ENDBRANCH   1   8
BRANCH   1  11
ATOM     11  C   UNL     1       3.849   3.917  16.834  0.00  0.00    +0.000 C 
BRANCH  11  12
ATOM     12  C   UNL     1       5.270   3.378  16.662  0.00  0.00    +0.000 C 
BRANCH  12  13
ATOM     13  C   UNL     1       6.209   4.405  16.126  0.00  0.00    +0.000 A 
ATOM     14  C   UNL     1       6.914   5.432  16.818  0.00  0.00    +0.000 A 
ATOM     15  C   UNL     1       6.927   5.766  18.260  0.00  0.00    +0.000 C 
ATOM     16  N   UNL     1       7.656   6.166  15.978  0.00  0.00    +0.000 NA
ATOM     17  O   UNL     1       7.452   5.629  14.725  0.00  0.00    +0.000 OA
ATOM     18  C   UNL     1       6.594   4.581  14.813  0.00  0.00    +0.000 A 
ATOM     19  C   UNL     1       6.270   3.892  13.550  0.00  0.00    +0.000 C 
ENDBRANCH  12  13
ENDBRANCH  11  12
ENDBRANCH   1  11
TORSDOF 5
ENDMDL
MODEL 5
REMARK VINA RESULT:      -6.8      2.265      6.339
REMARK  Name = 
REMARK  9 active torsions:
REMARK  status: ('A' for Active; 'I' for Inactive)
REMARK    1  A    between atoms: C_1  and  O_2
REMARK    2  A    between atoms: O_2  and  C_3
REMARK    3  A    between atoms: C_5  and  C_6
REMARK    4  A    between atoms: C_9  and  O_10
REMARK    5  A    between atoms: O_10  and  C_11
REMARK    6  A    between atoms: C_11  and  C_12
REMARK    7  A    between atoms: C_12  and  C_13
REMARK    8  A    between atoms: C_14  and  C_15
REMARK    9  A    between atoms: C_18  and  C_19
REMARK                            x       y       z     vdW  Elec       q    Type
REMARK                         _______ _______ _______ _____ _____    ______ ____
ROOT
ATOM      1  O   UNL     1       4.674   4.007  18.032  0.00  0.00    +0.000 OA
ENDROOT
BRANCH   1   8
ATOM      2  C   UNL     1       6.886   4.562  17.028  0.00  0.00    +0.000 A 
ATOM      3  C   UNL     1       7.573   4.823  15.830  0.00  0.00    +0.000 A 
ATOM      4  C   UNL     1       6.917   4.808  14.593  0.00  0.00    +0.000 A 
ATOM      5  C   UNL     1       7.660   5.134  13.331  0.00  0.00    +0.000 C 
ATOM      6  C   UNL     1       5.561   4.485  14.551  0.00  0.00    +0.000 A 
ATOM      7  C   UNL     1       4.871   4.204  15.733  0.00  0.00    +0.000 A 
ATOM      8  C   UNL     1       5.514   4.266  16.977  0.00  0.00    +0.000 A 
BRANCH   2  10
ATOM      9  C   UNL     1       7.643   5.767  18.925  0.00  0.00    +0.000 C 
ATOM     10  O   UNL     1       7.528   4.524  18.240  0.00  0.00    +0.000 OA
ENDBRANCH   2  10
ENDBRANCH   1   8
BRANCH   1  11
ATOM     11  C   UNL     1       3.572   3.132  17.786  0.00  0.00    +0.000 C 
BRANCH  11  12
ATOM     12  C   UNL     1       2.295   3.970  17.693  0.00  0.00    +0.000 C 
BRANCH  12  13
ATOM     13  C   UNL     1       2.162   4.934  18.823  0.00  0.00    +0.000 A 
ATOM     14  C   UNL     1       2.504   6.317  18.874  0.00  0.00    +0.000 A 
ATOM     15  C   UNL     1       3.073   7.192  17.825  0.00  0.00    +0.000 C 
ATOM     16  N   UNL     1       2.245   6.839  20.081  0.00  0.00    +0.000 NA
ATOM     17  O   UNL     1       1.726   5.809  20.836  0.00  0.00    +0.000 OA
ATOM     18  C   UNL     1       1.676   4.678  20.088  0.00  0.00    +0.000 A 
ATOM     19  C   UNL     1       1.140   3.475  20.754  0.00  0.00    +0.000 C 
ENDBRANCH  12  13
ENDBRANCH  11  12
ENDBRANCH   1  11
TORSDOF 5
ENDMDL
MODEL 6
REMARK VINA RESULT:      -6.8      1.460      2.717
REMARK  Name = 
REMARK  9 active torsions:
REMARK  status: ('A' for Active; 'I' for Inactive)
REMARK    1  A    between atoms: C_1  and  O_2
REMARK    2  A    between atoms: O_2  and  C_3
REMARK    3  A    between atoms: C_5  and  C_6
REMARK    4  A    between atoms: C_9  and  O_10
REMARK    5  A    between atoms: O_10  and  C_11
REMARK    6  A    between atoms: C_11  and  C_12
REMARK    7  A    between atoms: C_12  and  C_13
REMARK    8  A    between atoms: C_14  and  C_15
REMARK    9  A    between atoms: C_18  and  C_19
REMARK                            x       y       z     vdW  Elec       q    Type
REMARK                         _______ _______ _______ _____ _____    ______ ____
ROOT
ATOM      1  O   UNL     1       3.676   5.504  17.500  0.00  0.00    +0.000 OA
ENDROOT
BRANCH   1   8
ATOM      2  C   UNL     1       3.202   3.337  18.635  0.00  0.00    +0.000 A 
ATOM      3  C   UNL     1       2.600   2.729  19.749  0.00  0.00    +0.000 A 
ATOM      4  C   UNL     1       1.954   3.487  20.735  0.00  0.00    +0.000 A 
ATOM      5  C   UNL     1       1.278   2.814  21.893  0.00  0.00    +0.000 C 
ATOM      6  C   UNL     1       1.949   4.877  20.623  0.00  0.00    +0.000 A 
ATOM      7  C   UNL     1       2.561   5.494  19.530  0.00  0.00    +0.000 A 
ATOM      8  C   UNL     1       3.167   4.736  18.518  0.00  0.00    +0.000 A 
BRANCH   2  10
ATOM      9  C   UNL     1       4.009   1.215  17.947  0.00  0.00    +0.000 C 
ATOM     10  O   UNL     1       3.881   2.610  17.690  0.00  0.00    +0.000 OA
ENDBRANCH   2  10
ENDBRANCH   1   8
BRANCH   1  11
ATOM     11  C   UNL     1       4.373   6.695  17.870  0.00  0.00    +0.000 C 
BRANCH  11  12
ATOM     12  C   UNL     1       5.539   6.899  16.901  0.00  0.00    +0.000 C 
BRANCH  12  13
ATOM     13  C   UNL     1       6.500   5.759  16.916  0.00  0.00    +0.000 A 
ATOM     14  C   UNL     1       7.383   5.338  17.952  0.00  0.00    +0.000 A 
ATOM     15  C   UNL     1       7.592   5.898  19.306  0.00  0.00    +0.000 C 
ATOM     16  N   UNL     1       8.101   4.271  17.576  0.00  0.00    +0.000 NA
ATOM     17  O   UNL     1       7.696   3.974  16.293  0.00  0.00    +0.000 OA
ATOM     18  C   UNL     1       6.744   4.859  15.901  0.00  0.00    +0.000 A 
ATOM     19  C   UNL     1       6.202   4.677  14.541  0.00  0.00    +0.000 C 
ENDBRANCH  12  13
ENDBRANCH  11  12
ENDBRANCH   1  11
TORSDOF 5
ENDMDL
MODEL 7
REMARK VINA RESULT:      -6.8      2.292      6.217
REMARK  Name = 
REMARK  9 active torsions:
REMARK  status: ('A' for Active; 'I' for Inactive)
REMARK    1  A    between atoms: C_1  and  O_2
REMARK    2  A    between atoms: O_2  and  C_3
REMARK    3  A    between atoms: C_5  and  C_6
REMARK    4  A    between atoms: C_9  and  O_10
REMARK    5  A    between atoms: O_10  and  C_11
REMARK    6  A    between atoms: C_11  and  C_12
REMARK    7  A    between atoms: C_12  and  C_13
REMARK    8  A    between atoms: C_14  and  C_15
REMARK    9  A    between atoms: C_18  and  C_19
REMARK                            x       y       z     vdW  Elec       q    Type
REMARK                         _______ _______ _______ _____ _____    ______ ____
ROOT
ATOM      1  O   UNL     1       4.362   3.873  17.874  0.00  0.00    +0.000 OA
ENDROOT
BRANCH   1   8
ATOM      2  C   UNL     1       6.639   4.514  17.090  0.00  0.00    +0.000 A 
ATOM      3  C   UNL     1       7.426   4.815  15.967  0.00  0.00    +0.000 A 
ATOM      4  C   UNL     1       6.890   4.799  14.672  0.00  0.00    +0.000 A 
ATOM      5  C   UNL     1       7.737   5.168  13.491  0.00  0.00    +0.000 C 
ATOM      6  C   UNL     1       5.555   4.434  14.499  0.00  0.00    +0.000 A 
ATOM      7  C   UNL     1       4.767   4.113  15.607  0.00  0.00    +0.000 A 
ATOM      8  C   UNL     1       5.288   4.175  16.907  0.00  0.00    +0.000 A 
BRANCH   2  10
ATOM      9  C   UNL     1       7.641   5.717  18.872  0.00  0.00    +0.000 C 
ATOM     10  O   UNL     1       7.165   4.478  18.357  0.00  0.00    +0.000 OA
ENDBRANCH   2  10
ENDBRANCH   1   8
BRANCH   1  11
ATOM     11  C   UNL     1       3.198   3.157  17.459  0.00  0.00    +0.000 C 
BRANCH  11  12
ATOM     12  C   UNL     1       1.994   4.099  17.529  0.00  0.00    +0.000 C 
BRANCH  12  13
ATOM     13  C   UNL     1       2.013   4.959  18.746  0.00  0.00    +0.000 A 
ATOM     14  C   UNL     1       1.592   4.654  20.073  0.00  0.00    +0.000 A 
ATOM     15  C   UNL     1       1.030   3.401  20.625  0.00  0.00    +0.000 C 
ATOM     16  N   UNL     1       1.757   5.703  20.890  0.00  0.00    +0.000 NA
ATOM     17  O   UNL     1       2.293   6.707  20.114  0.00  0.00    +0.000 OA
ATOM     18  C   UNL     1       2.446   6.265  18.840  0.00  0.00    +0.000 A 
ATOM     19  C   UNL     1       3.013   7.228  17.876  0.00  0.00    +0.000 C 
ENDBRANCH  12  13
ENDBRANCH  11  12
ENDBRANCH   1  11
TORSDOF 5
ENDMDL
MODEL 8
REMARK VINA RESULT:      -6.7      1.931      3.040
REMARK  Name = 
REMARK  9 active torsions:
REMARK  status: ('A' for Active; 'I' for Inactive)
REMARK    1  A    between atoms: C_1  and  O_2
REMARK    2  A    between atoms: O_2  and  C_3
REMARK    3  A    between atoms: C_5  and  C_6
REMARK    4  A    between atoms: C_9  and  O_10
REMARK    5  A    between atoms: O_10  and  C_11
REMARK    6  A    between atoms: C_11  and  C_12
REMARK    7  A    between atoms: C_12  and  C_13
REMARK    8  A    between atoms: C_14  and  C_15
REMARK    9  A    between atoms: C_18  and  C_19
REMARK                            x       y       z     vdW  Elec       q    Type
REMARK                         _______ _______ _______ _____ _____    ______ ____
ROOT
ATOM      1  O   UNL     1       2.334   6.596  17.845  0.00  0.00    +0.000 OA
ENDROOT
BRANCH   1   8
ATOM      2  C   UNL     1       1.775   4.225  18.370  0.00  0.00    +0.000 A 
ATOM      3  C   UNL     1       1.546   3.298  19.400  0.00  0.00    +0.000 A 
ATOM      4  C   UNL     1       1.619   3.671  20.749  0.00  0.00    +0.000 A 
ATOM      5  C   UNL     1       1.326   2.676  21.833  0.00  0.00    +0.000 C 
ATOM      6  C   UNL     1       1.969   4.983  21.069  0.00  0.00    +0.000 A 
ATOM      7  C   UNL     1       2.218   5.909  20.053  0.00  0.00    +0.000 A 
ATOM      8  C   UNL     1       2.099   5.551  18.703  0.00  0.00    +0.000 A 
BRANCH   2  10
ATOM      9  C   UNL     1       2.778   2.958  16.634  0.00  0.00    +0.000 C 
ATOM     10  O   UNL     1       1.757   3.860  17.048  0.00  0.00    +0.000 OA
ENDBRANCH   2  10
ENDBRANCH   1   8
BRANCH   1  11
ATOM     11  C   UNL     1       3.632   7.191  17.885  0.00  0.00    +0.000 C 
BRANCH  11  12
ATOM     12  C   UNL     1       4.617   6.263  17.171  0.00  0.00    +0.000 C 
BRANCH  12  13
ATOM     13  C   UNL     1       5.820   5.961  17.999  0.00  0.00    +0.000 A 
ATOM     14  C   UNL     1       7.058   6.662  18.081  0.00  0.00    +0.000 A 
ATOM     15  C   UNL     1       7.501   7.890  17.382  0.00  0.00    +0.000 C 
ATOM     16  N   UNL     1       7.900   6.066  18.936  0.00  0.00    +0.000 NA
ATOM     17  O   UNL     1       7.225   4.970  19.430  0.00  0.00    +0.000 OA
ATOM     18  C   UNL     1       5.989   4.909  18.874  0.00  0.00    +0.000 A 
ATOM     19  C   UNL     1       5.134   3.785  19.302  0.00  0.00    +0.000 C 
ENDBRANCH  12  13
ENDBRANCH  11  12
ENDBRANCH   1  11
TORSDOF 5
ENDMDL
MODEL 9
REMARK VINA RESULT:      -6.7      1.130      2.156
REMARK  Name = 
REMARK  9 active torsions:
REMARK  status: ('A' for Active; 'I' for Inactive)
REMARK    1  A    between atoms: C_1  and  O_2
REMARK    2  A    between atoms: O_2  and  C_3
REMARK    3  A    between atoms: C_5  and  C_6
REMARK    4  A    between atoms: C_9  and  O_10
REMARK    5  A    between atoms: O_10  and  C_11
REMARK    6  A    between atoms: C_11  and  C_12
REMARK    7  A    between atoms: C_12  and  C_13
REMARK    8  A    between atoms: C_14  and  C_15
REMARK    9  A    between atoms: C_18  and  C_19
REMARK                            x       y       z     vdW  Elec       q    Type
REMARK                         _______ _______ _______ _____ _____    ______ ____
ROOT
ATOM      1  O   UNL     1       4.123   6.572  18.445  0.00  0.00    +0.000 OA
ENDROOT
BRANCH   1   8
ATOM      2  C   UNL     1       2.308   5.415  19.701  0.00  0.00    +0.000 A 
ATOM      3  C   UNL     1       1.447   4.305  19.716  0.00  0.00    +0.000 A 
ATOM      4  C   UNL     1       1.468   3.349  18.693  0.00  0.00    +0.000 A 
ATOM      5  C   UNL     1       0.572   2.147  18.753  0.00  0.00    +0.000 C 
ATOM      6  C   UNL     1       2.336   3.530  17.616  0.00  0.00    +0.000 A 
ATOM      7  C   UNL     1       3.183   4.640  17.579  0.00  0.00    +0.000 A 
ATOM      8  C   UNL     1       3.198   5.573  18.625  0.00  0.00    +0.000 A 
BRANCH   2  10
ATOM      9  C   UNL     1       1.600   7.594  20.313  0.00  0.00    +0.000 C 
ATOM     10  O   UNL     1       2.261   6.384  20.670  0.00  0.00    +0.000 OA
ENDBRANCH   2  10
ENDBRANCH   1   8
BRANCH   1  11
ATOM     11  C   UNL     1       4.433   6.935  17.098  0.00  0.00    +0.000 C 
BRANCH  11  12
ATOM     12  C   UNL     1       5.936   7.205  17.000  0.00  0.00    +0.000 C 
BRANCH  12  13
ATOM     13  C   UNL     1       6.739   5.950  16.940  0.00  0.00    +0.000 A 
ATOM     14  C   UNL     1       6.859   5.005  15.880  0.00  0.00    +0.000 A 
ATOM     15  C   UNL     1       6.235   5.002  14.538  0.00  0.00    +0.000 C 
ATOM     16  N   UNL     1       7.672   3.995  16.217  0.00  0.00    +0.000 NA
ATOM     17  O   UNL     1       8.101   4.265  17.499  0.00  0.00    +0.000 OA
ATOM     18  C   UNL     1       7.547   5.427  17.928  0.00  0.00    +0.000 A 
ATOM     19  C   UNL     1       7.909   5.861  19.291  0.00  0.00    +0.000 C 
ENDBRANCH  12  13
ENDBRANCH  11  12
ENDBRANCH   1  11
TORSDOF 5
ENDMDL
