MODEL 1
REMARK VINA RESULT:      -7.1      0.000      0.000
REMARK  Name = 
REMARK  11 active torsions:
REMARK  status: ('A' for Active; 'I' for Inactive)
REMARK    1  A    between atoms: C_1  and  O_2
REMARK    2  A    between atoms: O_2  and  C_3
REMARK    3  A    between atoms: C_13  and  O_14
REMARK    4  A    between atoms: O_14  and  C_15
REMARK    5  A    between atoms: C_15  and  C_16
REMARK    6  A    between atoms: C_16  and  O_17
REMARK    7  A    between atoms: C_16  and  C_18
REMARK    8  A    between atoms: C_18  and  N_19
REMARK    9  A    between atoms: N_19  and  C_20
REMARK   10  A    between atoms: C_20  and  C_21
REMARK   11  A    between atoms: C_20  and  C_22
REMARK                            x       y       z     vdW  Elec       q    Type
REMARK                         _______ _______ _______ _____ _____    ______ ____
ROOT
ATOM      1  C   UNL     1       2.962   6.797  18.750  0.00  0.00    +0.000 A 
ATOM      2  C   UNL     1       3.931   7.048  17.764  0.00  0.00    +0.000 A 
ATOM      3  C   UNL     1       5.096   6.288  17.702  0.00  0.00    +0.000 A 
ATOM      4  C   UNL     1       6.131   6.520  16.709  0.00  0.00    +0.000 A 
ATOM      5  C   UNL     1       7.239   5.768  16.723  0.00  0.00    +0.000 A 
ATOM      6  C   UNL     1       7.459   4.701  17.713  0.00  0.00    +0.000 A 
ATOM      7  O   UNL     1       8.497   4.049  17.716  0.00  0.00    +0.000 OA
ATOM      8  O   UNL     1       6.438   4.473  18.626  0.00  0.00    +0.000 OA
ATOM      9  C   UNL     1       5.272   5.265  18.628  0.00  0.00    +0.000 A 
ATOM     10  C   UNL     1       4.311   4.975  19.593  0.00  0.00    +0.000 A 
ATOM     11  C   UNL     1       3.142   5.735  19.661  0.00  0.00    +0.000 A 
ENDROOT
BRANCH   1  13
ATOM     12  C   UNL     1       1.955   8.698  17.730  0.00  0.00    +0.000 C 
ATOM     13  O   UNL     1       1.875   7.634  18.670  0.00  0.00    +0.000 OA
ENDBRANCH   1  13
BRANCH  11  14
ATOM     14  O   UNL     1       2.140   5.495  20.559  0.00  0.00    +0.000 OA
BRANCH  14  15
ATOM     15  C   UNL     1       2.259   4.369  21.436  0.00  0.00    +0.000 C 
BRANCH  15  16
ATOM     16  C   UNL     1       1.281   3.285  20.953  0.00  0.00    +0.000 C 
BRANCH  16  17
ATOM     17  O   UNL     1       0.296   3.881  20.095  0.00  0.00    +0.000 OA
ATOM     18  H   UNL     1      -0.290   4.399  20.681  0.00  0.00    +0.000 HD
ENDBRANCH  16  17
BRANCH  16  19
ATOM     19  C   UNL     1       1.990   2.149  20.187  0.00  0.00    +0.000 C 
BRANCH  19  20
ATOM     20  N   UNL     1       1.389   1.930  18.869  0.00  0.00    +0.000 NA
ATOM     21  H   UNL     1       0.672   2.639  18.708  0.00  0.00    +0.000 HD
BRANCH  20  22
ATOM     22  C   UNL     1       2.351   1.966  17.762  0.00  0.00    +0.000 C 
ATOM     23  C   UNL     1       2.453   3.342  17.100  0.00  0.00    +0.000 C 
ATOM     24  C   UNL     1       3.719   1.571  18.326  0.00  0.00    +0.000 C 
ENDBRANCH  20  22
ENDBRANCH  19  20
ENDBRANCH  16  19
ENDBRANCH  15  16
ENDBRANCH  14  15
ENDBRANCH  11  14
TORSDOF 8
ENDMDL
MODEL 2
REMARK VINA RESULT:      -6.9      1.725      4.438
REMARK  Name = 
REMARK  11 active torsions:
REMARK  status: ('A' for Active; 'I' for Inactive)
REMARK    1  A    between atoms: C_1  and  O_2
REMARK    2  A    between atoms: O_2  and  C_3
REMARK    3  A    between atoms: C_13  and  O_14
REMARK    4  A    between atoms: O_14  and  C_15
REMARK    5  A    between atoms: C_15  and  C_16
REMARK    6  A    between atoms: C_16  and  O_17
REMARK    7  A    between atoms: C_16  and  C_18
REMARK    8  A    between atoms: C_18  and  N_19
REMARK    9  A    between atoms: N_19  and  C_20
REMARK   10  A    between atoms: C_20  and  C_21
REMARK   11  A    between atoms: C_20  and  C_22
REMARK                            x       y       z     vdW  Elec       q    Type
REMARK                         _______ _______ _______ _____ _____    ______ ____
ROOT
ATOM      1  C   UNL     1       4.862   5.374  17.697  0.00  0.00    +0.000 A 
ATOM      2  C   UNL     1       4.269   6.562  17.241  0.00  0.00    +0.000 A 
ATOM      3  C   UNL     1       3.343   7.242  18.027  0.00  0.00    +0.000 A 
ATOM      4  C   UNL     1       2.694   8.467  17.590  0.00  0.00    +0.000 A 
ATOM      5  C   UNL     1       1.793   9.057  18.387  0.00  0.00    +0.000 A 
ATOM      6  C   UNL     1       1.423   8.510  19.703  0.00  0.00    +0.000 A 
ATOM      7  O   UNL     1       0.573   9.058  20.395  0.00  0.00    +0.000 OA
ATOM      8  O   UNL     1       2.085   7.361  20.113  0.00  0.00    +0.000 OA
ATOM      9  C   UNL     1       3.029   6.727  19.280  0.00  0.00    +0.000 A 
ATOM     10  C   UNL     1       3.627   5.568  19.768  0.00  0.00    +0.000 A 
ATOM     11  C   UNL     1       4.556   4.882  18.984  0.00  0.00    +0.000 A 
ENDROOT
BRANCH   1  13
ATOM     12  C   UNL     1       5.201   4.170  15.671  0.00  0.00    +0.000 C 
ATOM     13  O   UNL     1       5.753   4.831  16.803  0.00  0.00    +0.000 OA
ENDBRANCH   1  13
BRANCH  11  14
ATOM     14  O   UNL     1       5.208   3.756  19.403  0.00  0.00    +0.000 OA
BRANCH  14  15
ATOM     15  C   UNL     1       4.435   2.594  19.722  0.00  0.00    +0.000 C 
BRANCH  15  16
ATOM     16  C   UNL     1       4.252   1.775  18.434  0.00  0.00    +0.000 C 
BRANCH  16  17
ATOM     17  O   UNL     1       4.497   0.388  18.712  0.00  0.00    +0.000 OA
ATOM     18  H   UNL     1       3.619  -0.011  18.870  0.00  0.00    +0.000 HD
ENDBRANCH  16  17
BRANCH  16  19
ATOM     19  C   UNL     1       2.838   1.923  17.835  0.00  0.00    +0.000 C 
BRANCH  19  20
ATOM     20  N   UNL     1       1.799   1.714  18.846  0.00  0.00    +0.000 NA
ATOM     21  H   UNL     1       2.242   1.590  19.758  0.00  0.00    +0.000 HD
BRANCH  20  22
ATOM     22  C   UNL     1       0.825   2.807  18.936  0.00  0.00    +0.000 C 
ATOM     23  C   UNL     1       0.807   3.484  20.307  0.00  0.00    +0.000 C 
ATOM     24  C   UNL     1       1.191   3.839  17.864  0.00  0.00    +0.000 C 
ENDBRANCH  20  22
ENDBRANCH  19  20
ENDBRANCH  16  19
ENDBRANCH  15  16
ENDBRANCH  14  15
ENDBRANCH  11  14
TORSDOF 8
ENDMDL
MODEL 3
REMARK VINA RESULT:      -6.8      0.732      1.050
REMARK  Name = 
REMARK  11 active torsions:
REMARK  status: ('A' for Active; 'I' for Inactive)
REMARK    1  A    between atoms: C_1  and  O_2
REMARK    2  A    between atoms: O_2  and  C_3
REMARK    3  A    between atoms: C_13  and  O_14
REMARK    4  A    between atoms: O_14  and  C_15
REMARK    5  A    between atoms: C_15  and  C_16
REMARK    6  A    between atoms: C_16  and  O_17
REMARK    7  A    between atoms: C_16  and  C_18
REMARK    8  A    between atoms: C_18  and  N_19
REMARK    9  A    between atoms: N_19  and  C_20
REMARK   10  A    between atoms: C_20  and  C_21
REMARK   11  A    between atoms: C_20  and  C_22
REMARK                            x       y       z     vdW  Elec       q    Type
REMARK                         _______ _______ _______ _____ _____    ______ ____
ROOT
ATOM      1  C   UNL     1       2.936   6.769  18.801  0.00  0.00    +0.000 A 
ATOM      2  C   UNL     1       3.831   6.936  17.732  0.00  0.00    +0.000 A 
ATOM      3  C   UNL     1       5.008   6.195  17.667  0.00  0.00    +0.000 A 
ATOM      4  C   UNL     1       5.970   6.344  16.587  0.00  0.00    +0.000 A 
ATOM      5  C   UNL     1       7.095   5.618  16.601  0.00  0.00    +0.000 A 
ATOM      6  C   UNL     1       7.408   4.664  17.677  0.00  0.00    +0.000 A 
ATOM      7  O   UNL     1       8.460   4.035  17.674  0.00  0.00    +0.000 OA
ATOM      8  O   UNL     1       6.455   4.511  18.676  0.00  0.00    +0.000 OA
ATOM      9  C   UNL     1       5.272   5.276  18.677  0.00  0.00    +0.000 A 
ATOM     10  C   UNL     1       4.385   5.069  19.730  0.00  0.00    +0.000 A 
ATOM     11  C   UNL     1       3.203   5.809  19.801  0.00  0.00    +0.000 A 
ENDROOT
BRANCH   1  13
ATOM     12  C   UNL     1       1.869   8.619  17.750  0.00  0.00    +0.000 C 
ATOM     13  O   UNL     1       1.825   7.572  18.712  0.00  0.00    +0.000 OA
ENDBRANCH   1  13
BRANCH  11  14
ATOM     14  O   UNL     1       2.270   5.644  20.785  0.00  0.00    +0.000 OA
BRANCH  14  15
ATOM     15  C   UNL     1       1.123   4.829  20.514  0.00  0.00    +0.000 C 
BRANCH  15  16
ATOM     16  C   UNL     1       1.572   3.359  20.528  0.00  0.00    +0.000 C 
BRANCH  16  17
ATOM     17  O   UNL     1       1.549   2.866  21.876  0.00  0.00    +0.000 OA
ATOM     18  H   UNL     1       1.057   3.533  22.395  0.00  0.00    +0.000 HD
ENDBRANCH  16  17
BRANCH  16  19
ATOM     19  C   UNL     1       0.675   2.460  19.652  0.00  0.00    +0.000 C 
BRANCH  19  20
ATOM     20  N   UNL     1       1.449   1.768  18.618  0.00  0.00    +0.000 NA
ATOM     21  H   UNL     1       0.910   1.754  17.752  0.00  0.00    +0.000 HD
BRANCH  20  22
ATOM     22  C   UNL     1       2.761   2.370  18.352  0.00  0.00    +0.000 C 
ATOM     23  C   UNL     1       3.874   1.335  18.187  0.00  0.00    +0.000 C 
ATOM     24  C   UNL     1       2.637   3.192  17.065  0.00  0.00    +0.000 C 
ENDBRANCH  20  22
ENDBRANCH  19  20
ENDBRANCH  16  19
ENDBRANCH  15  16
ENDBRANCH  14  15
ENDBRANCH  11  14
TORSDOF 8
ENDMDL
MODEL 4
REMARK VINA RESULT:      -6.6      2.921      5.465
REMARK  Name = 
REMARK  11 active torsions:
REMARK  status: ('A' for Active; 'I' for Inactive)
REMARK    1  A    between atoms: C_1  and  O_2
REMARK    2  A    between atoms: O_2  and  C_3
REMARK    3  A    between atoms: C_13  and  O_14
REMARK    4  A    between atoms: O_14  and  C_15
REMARK    5  A    between atoms: C_15  and  C_16
REMARK    6  A    between atoms: C_16  and  O_17
REMARK    7  A    between atoms: C_16  and  C_18
REMARK    8  A    between atoms: C_18  and  N_19
REMARK    9  A    between atoms: N_19  and  C_20
REMARK   10  A    between atoms: C_20  and  C_21
REMARK   11  A    between atoms: C_20  and  C_22
REMARK                            x       y       z     vdW  Elec       q    Type
REMARK                         _______ _______ _______ _____ _____    ______ ____
ROOT
ATOM      1  C   UNL     1       3.340   6.527  17.839  0.00  0.00    +0.000 A 
ATOM      2  C   UNL     1       2.586   6.393  19.016  0.00  0.00    +0.000 A 
ATOM      3  C   UNL     1       2.679   5.242  19.793  0.00  0.00    +0.000 A 
ATOM      4  C   UNL     1       1.908   5.054  21.011  0.00  0.00    +0.000 A 
ATOM      5  C   UNL     1       2.027   3.910  21.698  0.00  0.00    +0.000 A 
ATOM      6  C   UNL     1       2.916   2.818  21.268  0.00  0.00    +0.000 A 
ATOM      7  O   UNL     1       2.981   1.773  21.903  0.00  0.00    +0.000 OA
ATOM      8  O   UNL     1       3.671   3.039  20.123  0.00  0.00    +0.000 OA
ATOM      9  C   UNL     1       3.547   4.234  19.387  0.00  0.00    +0.000 A 
ATOM     10  C   UNL     1       4.330   4.357  18.242  0.00  0.00    +0.000 A 
ATOM     11  C   UNL     1       4.240   5.509  17.458  0.00  0.00    +0.000 A 
ENDROOT
BRANCH   1  13
ATOM     12  C   UNL     1       2.301   8.669  17.850  0.00  0.00    +0.000 C 
ATOM     13  O   UNL     1       3.133   7.722  17.192  0.00  0.00    +0.000 OA
ENDBRANCH   1  13
BRANCH  11  14
ATOM     14  O   UNL     1       4.995   5.717  16.338  0.00  0.00    +0.000 OA
BRANCH  14  15
ATOM     15  C   UNL     1       6.395   5.975  16.492  0.00  0.00    +0.000 C 
BRANCH  15  16
ATOM     16  C   UNL     1       7.166   4.805  15.860  0.00  0.00    +0.000 C 
BRANCH  16  17
ATOM     17  O   UNL     1       7.911   4.120  16.879  0.00  0.00    +0.000 OA
ATOM     18  H   UNL     1       7.689   3.174  16.781  0.00  0.00    +0.000 HD
ENDBRANCH  16  17
BRANCH  16  19
ATOM     19  C   UNL     1       6.236   3.795  15.157  0.00  0.00    +0.000 C 
BRANCH  19  20
ATOM     20  N   UNL     1       5.733   4.319  13.886  0.00  0.00    +0.000 NA
ATOM     21  H   UNL     1       6.181   5.216  13.694  0.00  0.00    +0.000 HD
BRANCH  20  22
ATOM     22  C   UNL     1       5.951   3.425  12.743  0.00  0.00    +0.000 C 
ATOM     23  C   UNL     1       4.729   3.308  11.830  0.00  0.00    +0.000 C 
ATOM     24  C   UNL     1       7.132   3.982  11.942  0.00  0.00    +0.000 C 
ENDBRANCH  20  22
ENDBRANCH  19  20
ENDBRANCH  16  19
ENDBRANCH  15  16
ENDBRANCH  14  15
ENDBRANCH  11  14
TORSDOF 8
ENDMDL
MODEL 5
REMARK VINA RESULT:      -6.5      2.650      5.717
REMARK  Name = 
REMARK  11 active torsions:
REMARK  status: ('A' for Active; 'I' for Inactive)
REMARK    1  A    between atoms: C_1  and  O_2
REMARK    2  A    between atoms: O_2  and  C_3
REMARK    3  A    between atoms: C_13  and  O_14
REMARK    4  A    between atoms: O_14  and  C_15
REMARK    5  A    between atoms: C_15  and  C_16
REMARK    6  A    between atoms: C_16  and  O_17
REMARK    7  A    between atoms: C_16  and  C_18
REMARK    8  A    between atoms: C_18  and  N_19
REMARK    9  A    between atoms: N_19  and  C_20
REMARK   10  A    between atoms: C_20  and  C_21
REMARK   11  A    between atoms: C_20  and  C_22
REMARK                            x       y       z     vdW  Elec       q    Type
REMARK                         _______ _______ _______ _____ _____    ______ ____
ROOT
ATOM      1  C   UNL     1       3.268   6.660  17.730  0.00  0.00    +0.000 A 
ATOM      2  C   UNL     1       2.560   6.548  18.937  0.00  0.00    +0.000 A 
ATOM      3  C   UNL     1       2.664   5.401  19.719  0.00  0.00    +0.000 A 
ATOM      4  C   UNL     1       1.939   5.235  20.968  0.00  0.00    +0.000 A 
ATOM      5  C   UNL     1       2.065   4.094  21.658  0.00  0.00    +0.000 A 
ATOM      6  C   UNL     1       2.915   2.983  21.200  0.00  0.00    +0.000 A 
ATOM      7  O   UNL     1       2.987   1.941  21.841  0.00  0.00    +0.000 OA
ATOM      8  O   UNL     1       3.627   3.181  20.025  0.00  0.00    +0.000 OA
ATOM      9  C   UNL     1       3.496   4.374  19.285  0.00  0.00    +0.000 A 
ATOM     10  C   UNL     1       4.234   4.475  18.109  0.00  0.00    +0.000 A 
ATOM     11  C   UNL     1       4.133   5.623  17.321  0.00  0.00    +0.000 A 
ENDROOT
BRANCH   1  13
ATOM     12  C   UNL     1       2.325   8.845  17.794  0.00  0.00    +0.000 C 
ATOM     13  O   UNL     1       3.057   7.854  17.083  0.00  0.00    +0.000 OA
ENDBRANCH   1  13
BRANCH  11  14
ATOM     14  O   UNL     1       4.845   5.809  16.170  0.00  0.00    +0.000 OA
BRANCH  14  15
ATOM     15  C   UNL     1       5.147   4.670  15.356  0.00  0.00    +0.000 C 
BRANCH  15  16
ATOM     16  C   UNL     1       6.676   4.565  15.233  0.00  0.00    +0.000 C 
BRANCH  16  17
ATOM     17  O   UNL     1       7.122   5.383  14.140  0.00  0.00    +0.000 OA
ATOM     18  H   UNL     1       7.750   6.025  14.527  0.00  0.00    +0.000 HD
ENDBRANCH  16  17
BRANCH  16  19
ATOM     19  C   UNL     1       7.404   5.007  16.519  0.00  0.00    +0.000 C 
BRANCH  19  20
ATOM     20  N   UNL     1       7.623   6.455  16.545  0.00  0.00    +0.000 NA
ATOM     21  H   UNL     1       6.996   6.899  15.872  0.00  0.00    +0.000 HD
BRANCH  20  22
ATOM     22  C   UNL     1       7.415   7.066  17.863  0.00  0.00    +0.000 C 
ATOM     23  C   UNL     1       7.943   6.207  19.013  0.00  0.00    +0.000 C 
ATOM     24  C   UNL     1       8.139   8.416  17.863  0.00  0.00    +0.000 C 
ENDBRANCH  20  22
ENDBRANCH  19  20
ENDBRANCH  16  19
ENDBRANCH  15  16
ENDBRANCH  14  15
ENDBRANCH  11  14
TORSDOF 8
ENDMDL
MODEL 6
REMARK VINA RESULT:      -6.5      2.930      4.299
REMARK  Name = 
REMARK  11 active torsions:
REMARK  status: ('A' for Active; 'I' for Inactive)
REMARK    1  A    between atoms: C_1  and  O_2
REMARK    2  A    between atoms: O_2  and  C_3
REMARK    3  A    between atoms: C_13  and  O_14
REMARK    4  A    between atoms: O_14  and  C_15
REMARK    5  A    between atoms: C_15  and  C_16
REMARK    6  A    between atoms: C_16  and  O_17
REMARK    7  A    between atoms: C_16  and  C_18
REMARK    8  A    between atoms: C_18  and  N_19
REMARK    9  A    between atoms: N_19  and  C_20
REMARK   10  A    between atoms: C_20  and  C_21
REMARK   11  A    between atoms: C_20  and  C_22
REMARK                            x       y       z     vdW  Elec       q    Type
REMARK                         _______ _______ _______ _____ _____    ______ ____
ROOT
ATOM      1  C   UNL     1       6.351   5.282  17.305  0.00  0.00    +0.000 A 
ATOM      2  C   UNL     1       7.124   5.487  16.151  0.00  0.00    +0.000 A 
ATOM      3  C   UNL     1       6.774   4.887  14.945  0.00  0.00    +0.000 A 
ATOM      4  C   UNL     1       7.551   5.060  13.729  0.00  0.00    +0.000 A 
ATOM      5  C   UNL     1       7.171   4.433  12.608  0.00  0.00    +0.000 A 
ATOM      6  C   UNL     1       5.985   3.562  12.552  0.00  0.00    +0.000 A 
ATOM      7  O   UNL     1       5.680   2.980  11.517  0.00  0.00    +0.000 OA
ATOM      8  O   UNL     1       5.237   3.445  13.716  0.00  0.00    +0.000 OA
ATOM      9  C   UNL     1       5.633   4.093  14.904  0.00  0.00    +0.000 A 
ATOM     10  C   UNL     1       4.832   3.901  16.027  0.00  0.00    +0.000 A 
ATOM     11  C   UNL     1       5.179   4.499  17.239  0.00  0.00    +0.000 A 
ENDROOT
BRANCH   1  13
ATOM     12  C   UNL     1       7.730   7.021  18.165  0.00  0.00    +0.000 C 
ATOM     13  O   UNL     1       6.832   5.945  18.408  0.00  0.00    +0.000 OA
ENDBRANCH   1  13
BRANCH  11  14
ATOM     14  O   UNL     1       4.430   4.383  18.377  0.00  0.00    +0.000 OA
BRANCH  14  15
ATOM     15  C   UNL     1       4.496   3.161  19.120  0.00  0.00    +0.000 C 
BRANCH  15  16
ATOM     16  C   UNL     1       3.566   2.141  18.442  0.00  0.00    +0.000 C 
BRANCH  16  17
ATOM     17  O   UNL     1       4.174   0.841  18.486  0.00  0.00    +0.000 OA
ATOM     18  H   UNL     1       3.525   0.230  18.084  0.00  0.00    +0.000 HD
ENDBRANCH  16  17
BRANCH  16  19
ATOM     19  C   UNL     1       2.179   2.068  19.112  0.00  0.00    +0.000 C 
BRANCH  19  20
ATOM     20  N   UNL     1       1.522   3.377  19.136  0.00  0.00    +0.000 NA
ATOM     21  H   UNL     1       0.715   3.356  18.510  0.00  0.00    +0.000 HD
BRANCH  20  22
ATOM     22  C   UNL     1       1.077   3.796  20.470  0.00  0.00    +0.000 C 
ATOM     23  C   UNL     1       1.406   2.775  21.561  0.00  0.00    +0.000 C 
ATOM     24  C   UNL     1       1.772   5.123  20.791  0.00  0.00    +0.000 C 
ENDBRANCH  20  22
ENDBRANCH  19  20
ENDBRANCH  16  19
ENDBRANCH  15  16
ENDBRANCH  14  15
ENDBRANCH  11  14
TORSDOF 8
ENDMDL
MODEL 7
REMARK VINA RESULT:      -6.4      3.436      5.657
REMARK  Name = 
REMARK  11 active torsions:
REMARK  status: ('A' for Active; 'I' for Inactive)
REMARK    1  A    between atoms: C_1  and  O_2
REMARK    2  A    between atoms: O_2  and  C_3
REMARK    3  A    between atoms: C_13  and  O_14
REMARK    4  A    between atoms: O_14  and  C_15
REMARK    5  A    between atoms: C_15  and  C_16
REMARK    6  A    between atoms: C_16  and  O_17
REMARK    7  A    between atoms: C_16  and  C_18
REMARK    8  A    between atoms: C_18  and  N_19
REMARK    9  A    between atoms: N_19  and  C_20
REMARK   10  A    between atoms: C_20  and  C_21
REMARK   11  A    between atoms: C_20  and  C_22
REMARK                            x       y       z     vdW  Elec       q    Type
REMARK                         _______ _______ _______ _____ _____    ______ ____
ROOT
ATOM      1  C   UNL     1       3.359   6.884  17.747  0.00  0.00    +0.000 A 
ATOM      2  C   UNL     1       2.542   6.635  18.862  0.00  0.00    +0.000 A 
ATOM      3  C   UNL     1       2.699   5.473  19.612  0.00  0.00    +0.000 A 
ATOM      4  C   UNL     1       1.868   5.166  20.765  0.00  0.00    +0.000 A 
ATOM      5  C   UNL     1       2.056   4.017  21.427  0.00  0.00    +0.000 A 
ATOM      6  C   UNL     1       3.081   3.035  21.033  0.00  0.00    +0.000 A 
ATOM      7  O   UNL     1       3.208   1.980  21.643  0.00  0.00    +0.000 OA
ATOM      8  O   UNL     1       3.887   3.370  19.953  0.00  0.00    +0.000 OA
ATOM      9  C   UNL     1       3.692   4.572  19.243  0.00  0.00    +0.000 A 
ATOM     10  C   UNL     1       4.537   4.813  18.162  0.00  0.00    +0.000 A 
ATOM     11  C   UNL     1       4.383   5.976  17.405  0.00  0.00    +0.000 A 
ENDROOT
BRANCH   1  13
ATOM     12  C   UNL     1       2.138   8.928  17.763  0.00  0.00    +0.000 C 
ATOM     13  O   UNL     1       3.076   8.074  17.120  0.00  0.00    +0.000 OA
ENDBRANCH   1  13
BRANCH  11  14
ATOM     14  O   UNL     1       5.189   6.298  16.350  0.00  0.00    +0.000 OA
BRANCH  14  15
ATOM     15  C   UNL     1       6.356   5.503  16.109  0.00  0.00    +0.000 C 
BRANCH  15  16
ATOM     16  C   UNL     1       6.458   5.256  14.595  0.00  0.00    +0.000 C 
BRANCH  16  17
ATOM     17  O   UNL     1       7.817   5.449  14.172  0.00  0.00    +0.000 OA
ATOM     18  H   UNL     1       8.342   5.533  14.992  0.00  0.00    +0.000 HD
ENDBRANCH  16  17
BRANCH  16  19
ATOM     19  C   UNL     1       6.007   3.837  14.195  0.00  0.00    +0.000 C 
BRANCH  19  20
ATOM     20  N   UNL     1       6.404   3.510  12.824  0.00  0.00    +0.000 NA
ATOM     21  H   UNL     1       7.344   3.113  12.835  0.00  0.00    +0.000 HD
BRANCH  20  22
ATOM     22  C   UNL     1       5.500   2.571  12.149  0.00  0.00    +0.000 C 
ATOM     23  C   UNL     1       4.381   3.269  11.373  0.00  0.00    +0.000 C 
ATOM     24  C   UNL     1       6.344   1.734  11.182  0.00  0.00    +0.000 C 
ENDBRANCH  20  22
ENDBRANCH  19  20
ENDBRANCH  16  19
ENDBRANCH  15  16
ENDBRANCH  14  15
ENDBRANCH  11  14
TORSDOF 8
ENDMDL
MODEL 8
REMARK VINA RESULT:      -6.4      2.515      5.966
REMARK  Name = 
REMARK  11 active torsions:
REMARK  status: ('A' for Active; 'I' for Inactive)
REMARK    1  A    between atoms: C_1  and  O_2
REMARK    2  A    between atoms: O_2  and  C_3
REMARK    3  A    between atoms: C_13  and  O_14
REMARK    4  A    between atoms: O_14  and  C_15
REMARK    5  A    between atoms: C_15  and  C_16
REMARK    6  A    between atoms: C_16  and  O_17
REMARK    7  A    between atoms: C_16  and  C_18
REMARK    8  A    between atoms: C_18  and  N_19
REMARK    9  A    between atoms: N_19  and  C_20
REMARK   10  A    between atoms: C_20  and  C_21
REMARK   11  A    between atoms: C_20  and  C_22
REMARK                            x       y       z     vdW  Elec       q    Type
REMARK                         _______ _______ _______ _____ _____    ______ ____
ROOT
ATOM      1  C   UNL     1       2.566   4.381  19.673  0.00  0.00    +0.000 A 
ATOM      2  C   UNL     1       1.998   5.332  20.536  0.00  0.00    +0.000 A 
ATOM      3  C   UNL     1       1.804   6.646  20.119  0.00  0.00    +0.000 A 
ATOM      4  C   UNL     1       1.233   7.666  20.982  0.00  0.00    +0.000 A 
ATOM      5  C   UNL     1       1.097   8.918  20.524  0.00  0.00    +0.000 A 
ATOM      6  C   UNL     1       1.508   9.312  19.167  0.00  0.00    +0.000 A 
ATOM      7  O   UNL     1       1.397  10.472  18.788  0.00  0.00    +0.000 OA
ATOM      8  O   UNL     1       2.014   8.311  18.349  0.00  0.00    +0.000 OA
ATOM      9  C   UNL     1       2.170   6.992  18.823  0.00  0.00    +0.000 A 
ATOM     10  C   UNL     1       2.705   6.060  17.937  0.00  0.00    +0.000 A 
ATOM     11  C   UNL     1       2.903   4.742  18.350  0.00  0.00    +0.000 A 
ENDROOT
BRANCH   1  13
ATOM     12  C   UNL     1       2.298   3.011  21.601  0.00  0.00    +0.000 C 
ATOM     13  O   UNL     1       2.686   3.135  20.238  0.00  0.00    +0.000 OA
ENDBRANCH   1  13
BRANCH  11  14
ATOM     14  O   UNL     1       3.394   3.763  17.533  0.00  0.00    +0.000 OA
BRANCH  14  15
ATOM     15  C   UNL     1       4.483   4.080  16.659  0.00  0.00    +0.000 C 
BRANCH  15  16
ATOM     16  C   UNL     1       5.683   4.495  17.527  0.00  0.00    +0.000 C 
BRANCH  16  17
ATOM     17  O   UNL     1       5.871   3.529  18.572  0.00  0.00    +0.000 OA
ATOM     18  H   UNL     1       6.499   3.934  19.201  0.00  0.00    +0.000 HD
ENDBRANCH  16  17
BRANCH  16  19
ATOM     19  C   UNL     1       6.988   4.612  16.714  0.00  0.00    +0.000 C 
BRANCH  19  20
ATOM     20  N   UNL     1       7.433   6.003  16.605  0.00  0.00    +0.000 NA
ATOM     21  H   UNL     1       6.910   6.462  15.858  0.00  0.00    +0.000 HD
BRANCH  20  22
ATOM     22  C   UNL     1       7.277   6.778  17.840  0.00  0.00    +0.000 C 
ATOM     23  C   UNL     1       8.070   6.202  19.015  0.00  0.00    +0.000 C 
ATOM     24  C   UNL     1       7.758   8.204  17.553  0.00  0.00    +0.000 C 
ENDBRANCH  20  22
ENDBRANCH  19  20
ENDBRANCH  16  19
ENDBRANCH  15  16
ENDBRANCH  14  15
ENDBRANCH  11  14
TORSDOF 8
ENDMDL
MODEL 9
REMARK VINA RESULT:      -6.4      3.661      7.030
REMARK  Name = 
REMARK  11 active torsions:
REMARK  status: ('A' for Active; 'I' for Inactive)
REMARK    1  A    between atoms: C_1  and  O_2
REMARK    2  A    between atoms: O_2  and  C_3
REMARK    3  A    between atoms: C_13  and  O_14
REMARK    4  A    between atoms: O_14  and  C_15
REMARK    5  A    between atoms: C_15  and  C_16
REMARK    6  A    between atoms: C_16  and  O_17
REMARK    7  A    between atoms: C_16  and  C_18
REMARK    8  A    between atoms: C_18  and  N_19
REMARK    9  A    between atoms: N_19  and  C_20
REMARK   10  A    between atoms: C_20  and  C_21
REMARK   11  A    between atoms: C_20  and  C_22
REMARK                            x       y       z     vdW  Elec       q    Type
REMARK                         _______ _______ _______ _____ _____    ______ ____
ROOT
ATOM      1  C   UNL     1       5.260   4.613  16.785  0.00  0.00    +0.000 A 
ATOM      2  C   UNL     1       3.894   4.294  16.712  0.00  0.00    +0.000 A 
ATOM      3  C   UNL     1       3.205   3.857  17.841  0.00  0.00    +0.000 A 
ATOM      4  C   UNL     1       1.796   3.503  17.810  0.00  0.00    +0.000 A 
ATOM      5  C   UNL     1       1.201   3.065  18.927  0.00  0.00    +0.000 A 
ATOM      6  C   UNL     1       1.921   2.923  20.203  0.00  0.00    +0.000 A 
ATOM      7  O   UNL     1       1.354   2.493  21.201  0.00  0.00    +0.000 OA
ATOM      8  O   UNL     1       3.256   3.306  20.216  0.00  0.00    +0.000 OA
ATOM      9  C   UNL     1       3.895   3.759  19.044  0.00  0.00    +0.000 A 
ATOM     10  C   UNL     1       5.241   4.101  19.149  0.00  0.00    +0.000 A 
ATOM     11  C   UNL     1       5.937   4.538  18.021  0.00  0.00    +0.000 A 
ENDROOT
BRANCH   1  13
ATOM     12  C   UNL     1       6.209   4.011  14.687  0.00  0.00    +0.000 C 
ATOM     13  O   UNL     1       5.786   5.029  15.586  0.00  0.00    +0.000 OA
ENDBRANCH   1  13
BRANCH  11  14
ATOM     14  O   UNL     1       7.249   4.920  18.048  0.00  0.00    +0.000 OA
BRANCH  14  15
ATOM     15  C   UNL     1       7.616   6.062  18.829  0.00  0.00    +0.000 C 
BRANCH  15  16
ATOM     16  C   UNL     1       7.950   7.211  17.864  0.00  0.00    +0.000 C 
BRANCH  16  17
ATOM     17  O   UNL     1       6.757   7.616  17.175  0.00  0.00    +0.000 OA
ATOM     18  H   UNL     1       6.665   8.574  17.340  0.00  0.00    +0.000 HD
ENDBRANCH  16  17
BRANCH  16  19
ATOM     19  C   UNL     1       8.549   8.435  18.587  0.00  0.00    +0.000 C 
BRANCH  19  20
ATOM     20  N   UNL     1       8.336   9.669  17.827  0.00  0.00    +0.000 NA
ATOM     21  H   UNL     1       7.368   9.970  17.946  0.00  0.00    +0.000 HD
BRANCH  20  22
ATOM     22  C   UNL     1       9.227  10.768  18.213  0.00  0.00    +0.000 C 
ATOM     23  C   UNL     1       8.689  12.144  17.816  0.00  0.00    +0.000 C 
ATOM     24  C   UNL     1       9.399  10.710  19.734  0.00  0.00    +0.000 C 
ENDBRANCH  20  22
ENDBRANCH  19  20
ENDBRANCH  16  19
ENDBRANCH  15  16
ENDBRANCH  14  15
ENDBRANCH  11  14
TORSDOF 8
ENDMDL
