MODEL 1
REMARK VINA RESULT:      -7.8      0.000      0.000
REMARK  Name = 
REMARK  4 active torsions:
REMARK  status: ('A' for Active; 'I' for Inactive)
REMARK    1  A    between atoms: C_1  and  C_2
REMARK    2  A    between atoms: C_6  and  N_7
REMARK    3  A    between atoms: C_8  and  C_10
REMARK    4  A    between atoms: C_14  and  C_15
REMARK                            x       y       z     vdW  Elec       q    Type
REMARK                         _______ _______ _______ _____ _____    ______ ____
ROOT
ATOM      1  C   UNL     1       2.573   7.563  18.529  0.00  0.00    +0.000 A 
ATOM      2  C   UNL     1       2.433   6.772  19.661  0.00  0.00    +0.000 A 
ATOM      3  N   UNL     1       3.115   5.623  19.867  0.00  0.00    +0.000 NA
ATOM      4  C   UNL     1       4.006   5.269  18.911  0.00  0.00    +0.000 A 
ATOM      5  C   UNL     1       4.243   5.977  17.727  0.00  0.00    +0.000 A 
ATOM      6  C   UNL     1       3.484   7.153  17.549  0.00  0.00    +0.000 A 
ENDROOT
BRANCH   5   7
ATOM      7  C   UNL     1       5.243   5.526  16.737  0.00  0.00    +0.000 A 
ATOM      8  C   UNL     1       4.998   4.461  15.856  0.00  0.00    +0.000 A 
ATOM      9  C   UNL     1       5.974   4.041  14.953  0.00  0.00    +0.000 A 
ATOM     10  C   UNL     1       7.183   4.710  14.932  0.00  0.00    +0.000 A 
ATOM     11  N   UNL     1       7.467   5.750  15.739  0.00  0.00    +0.000 NA
ATOM     12  C   UNL     1       6.500   6.129  16.612  0.00  0.00    +0.000 A 
ENDBRANCH   5   7
BRANCH   1  14
ATOM     13  N   UNL     1       1.107   9.181  19.632  0.00  0.00    +0.000 N 
ATOM     14  C   UNL     1       1.821   8.840  18.493  0.00  0.00    +0.000 C 
ATOM     15  O   UNL     1       1.913   9.488  17.457  0.00  0.00    +0.000 OA
ATOM     16  H   UNL     1       1.180   8.612  20.459  0.00  0.00    +0.000 HD
BRANCH  13  22
ATOM     17  C   UNL     1      -2.901  11.539  18.463  0.00  0.00    +0.000 C 
ATOM     18  C   UNL     1      -1.599  11.546  19.204  0.00  0.00    +0.000 A 
ATOM     19  C   UNL     1      -1.181  12.646  19.936  0.00  0.00    +0.000 A 
ATOM     20  C   UNL     1       0.046  12.577  20.587  0.00  0.00    +0.000 A 
ATOM     21  C   UNL     1       0.815  11.415  20.483  0.00  0.00    +0.000 A 
ATOM     22  C   UNL     1       0.329  10.353  19.732  0.00  0.00    +0.000 A 
ATOM     23  N   UNL     1      -0.860  10.420  19.112  0.00  0.00    +0.000 NA
ENDBRANCH  13  22
ENDBRANCH   1  14
TORSDOF 3
ENDMDL
MODEL 2
REMARK VINA RESULT:      -7.7      0.655      1.466
REMARK  Name = 
REMARK  4 active torsions:
REMARK  status: ('A' for Active; 'I' for Inactive)
REMARK    1  A    between atoms: C_1  and  C_2
REMARK    2  A    between atoms: C_6  and  N_7
REMARK    3  A    between atoms: C_8  and  C_10
REMARK    4  A    between atoms: C_14  and  C_15
REMARK                            x       y       z     vdW  Elec       q    Type
REMARK                         _______ _______ _______ _____ _____    ______ ____
ROOT
ATOM      1  C   UNL     1       2.486   7.697  18.550  0.00  0.00    +0.000 A 
ATOM      2  C   UNL     1       2.290   6.932  19.691  0.00  0.00    +0.000 A 
ATOM      3  N   UNL     1       2.940   5.773  19.944  0.00  0.00    +0.000 NA
ATOM      4  C   UNL     1       3.855   5.381  19.028  0.00  0.00    +0.000 A 
ATOM      5  C   UNL     1       4.149   6.060  17.839  0.00  0.00    +0.000 A 
ATOM      6  C   UNL     1       3.422   7.248  17.611  0.00  0.00    +0.000 A 
ENDROOT
BRANCH   5   7
ATOM      7  C   UNL     1       5.174   5.568  16.894  0.00  0.00    +0.000 A 
ATOM      8  C   UNL     1       4.975   4.427  16.101  0.00  0.00    +0.000 A 
ATOM      9  C   UNL     1       5.973   3.972  15.240  0.00  0.00    +0.000 A 
ATOM     10  C   UNL     1       7.157   4.683  15.172  0.00  0.00    +0.000 A 
ATOM     11  N   UNL     1       7.396   5.795  15.893  0.00  0.00    +0.000 NA
ATOM     12  C   UNL     1       6.409   6.205  16.728  0.00  0.00    +0.000 A 
ENDBRANCH   5   7
BRANCH   1  14
ATOM     13  N   UNL     1       0.920   9.308  19.516  0.00  0.00    +0.000 N 
ATOM     14  C   UNL     1       1.764   8.988  18.463  0.00  0.00    +0.000 C 
ATOM     15  O   UNL     1       1.992   9.664  17.466  0.00  0.00    +0.000 OA
ATOM     16  H   UNL     1       0.883   8.714  20.326  0.00  0.00    +0.000 HD
BRANCH  13  22
ATOM     17  C   UNL     1       0.563  13.903  20.839  0.00  0.00    +0.000 C 
ATOM     18  C   UNL     1      -0.076  12.726  20.168  0.00  0.00    +0.000 A 
ATOM     19  C   UNL     1      -1.352  12.795  19.630  0.00  0.00    +0.000 A 
ATOM     20  C   UNL     1      -1.878  11.654  19.034  0.00  0.00    +0.000 A 
ATOM     21  C   UNL     1      -1.117  10.483  18.997  0.00  0.00    +0.000 A 
ATOM     22  C   UNL     1       0.154  10.491  19.557  0.00  0.00    +0.000 A 
ATOM     23  N   UNL     1       0.662  11.597  20.125  0.00  0.00    +0.000 NA
ENDBRANCH  13  22
ENDBRANCH   1  14
TORSDOF 3
ENDMDL
MODEL 3
REMARK VINA RESULT:      -7.7      2.159      3.379
REMARK  Name = 
REMARK  4 active torsions:
REMARK  status: ('A' for Active; 'I' for Inactive)
REMARK    1  A    between atoms: C_1  and  C_2
REMARK    2  A    between atoms: C_6  and  N_7
REMARK    3  A    between atoms: C_8  and  C_10
REMARK    4  A    between atoms: C_14  and  C_15
REMARK                            x       y       z     vdW  Elec       q    Type
REMARK                         _______ _______ _______ _____ _____    ______ ____
ROOT
ATOM      1  C   UNL     1       4.616   5.532  17.850  0.00  0.00    +0.000 A 
ATOM      2  C   UNL     1       5.616   5.205  18.754  0.00  0.00    +0.000 A 
ATOM      3  N   UNL     1       6.807   4.668  18.401  0.00  0.00    +0.000 NA
ATOM      4  C   UNL     1       7.018   4.487  17.076  0.00  0.00    +0.000 A 
ATOM      5  C   UNL     1       6.095   4.776  16.064  0.00  0.00    +0.000 A 
ATOM      6  C   UNL     1       4.859   5.306  16.491  0.00  0.00    +0.000 A 
ENDROOT
BRANCH   5   7
ATOM      7  C   UNL     1       6.410   4.557  14.637  0.00  0.00    +0.000 A 
ATOM      8  C   UNL     1       5.686   3.656  13.841  0.00  0.00    +0.000 A 
ATOM      9  C   UNL     1       6.026   3.450  12.504  0.00  0.00    +0.000 A 
ATOM     10  C   UNL     1       7.083   4.168  11.976  0.00  0.00    +0.000 A 
ATOM     11  N   UNL     1       7.800   5.059  12.687  0.00  0.00    +0.000 NA
ATOM     12  C   UNL     1       7.450   5.230  13.986  0.00  0.00    +0.000 A 
ENDBRANCH   5   7
BRANCH   1  14
ATOM     13  N   UNL     1       3.288   7.560  18.175  0.00  0.00    +0.000 N 
ATOM     14  C   UNL     1       3.403   6.195  18.387  0.00  0.00    +0.000 C 
ATOM     15  O   UNL     1       2.603   5.465  18.960  0.00  0.00    +0.000 OA
ATOM     16  H   UNL     1       3.968   8.039  17.609  0.00  0.00    +0.000 HD
BRANCH  13  22
ATOM     17  C   UNL     1       0.501   8.864  21.853  0.00  0.00    +0.000 C 
ATOM     18  C   UNL     1       0.818   9.000  20.395  0.00  0.00    +0.000 A 
ATOM     19  C   UNL     1       0.078   9.821  19.559  0.00  0.00    +0.000 A 
ATOM     20  C   UNL     1       0.430   9.883  18.216  0.00  0.00    +0.000 A 
ATOM     21  C   UNL     1       1.505   9.123  17.750  0.00  0.00    +0.000 A 
ATOM     22  C   UNL     1       2.201   8.324  18.648  0.00  0.00    +0.000 A 
ATOM     23  N   UNL     1       1.863   8.272  19.947  0.00  0.00    +0.000 NA
ENDBRANCH  13  22
ENDBRANCH   1  14
TORSDOF 3
ENDMDL
MODEL 4
REMARK VINA RESULT:      -7.7      1.450      1.976
REMARK  Name = 
REMARK  4 active torsions:
REMARK  status: ('A' for Active; 'I' for Inactive)
REMARK    1  A    between atoms: C_1  and  C_2
REMARK    2  A    between atoms: C_6  and  N_7
REMARK    3  A    between atoms: C_8  and  C_10
REMARK    4  A    between atoms: C_14  and  C_15
REMARK                            x       y       z     vdW  Elec       q    Type
REMARK                         _______ _______ _______ _____ _____    ______ ____
ROOT
ATOM      1  C   UNL     1       2.760   6.727  18.926  0.00  0.00    +0.000 A 
ATOM      2  C   UNL     1       2.672   5.686  19.840  0.00  0.00    +0.000 A 
ATOM      3  N   UNL     1       3.353   4.523  19.727  0.00  0.00    +0.000 NA
ATOM      4  C   UNL     1       4.189   4.413  18.669  0.00  0.00    +0.000 A 
ATOM      5  C   UNL     1       4.371   5.386  17.679  0.00  0.00    +0.000 A 
ATOM      6  C   UNL     1       3.615   6.567  17.829  0.00  0.00    +0.000 A 
ENDROOT
BRANCH   5   7
ATOM      7  C   UNL     1       5.313   5.190  16.558  0.00  0.00    +0.000 A 
ATOM      8  C   UNL     1       5.044   4.310  15.498  0.00  0.00    +0.000 A 
ATOM      9  C   UNL     1       5.967   4.125  14.469  0.00  0.00    +0.000 A 
ATOM     10  C   UNL     1       7.148   4.844  14.508  0.00  0.00    +0.000 A 
ATOM     11  N   UNL     1       7.451   5.716  15.488  0.00  0.00    +0.000 NA
ATOM     12  C   UNL     1       6.537   5.865  16.479  0.00  0.00    +0.000 A 
ENDBRANCH   5   7
BRANCH   1  14
ATOM     13  N   UNL     1       1.764   8.834  18.182  0.00  0.00    +0.000 N 
ATOM     14  C   UNL     1       2.020   7.972  19.239  0.00  0.00    +0.000 C 
ATOM     15  O   UNL     1       1.687   8.119  20.409  0.00  0.00    +0.000 OA
ATOM     16  H   UNL     1       2.007   8.562  17.244  0.00  0.00    +0.000 HD
BRANCH  13  22
ATOM     17  C   UNL     1       2.012  13.571  18.879  0.00  0.00    +0.000 C 
ATOM     18  C   UNL     1       1.147  12.367  18.666  0.00  0.00    +0.000 A 
ATOM     19  C   UNL     1      -0.236  12.456  18.633  0.00  0.00    +0.000 A 
ATOM     20  C   UNL     1      -0.968  11.290  18.441  0.00  0.00    +0.000 A 
ATOM     21  C   UNL     1      -0.298  10.074  18.292  0.00  0.00    +0.000 A 
ATOM     22  C   UNL     1       1.091  10.063  18.335  0.00  0.00    +0.000 A 
ATOM     23  N   UNL     1       1.795  11.193  18.513  0.00  0.00    +0.000 NA
ENDBRANCH  13  22
ENDBRANCH   1  14
TORSDOF 3
ENDMDL
MODEL 5
REMARK VINA RESULT:      -7.7      1.246      1.262
REMARK  Name = 
REMARK  4 active torsions:
REMARK  status: ('A' for Active; 'I' for Inactive)
REMARK    1  A    between atoms: C_1  and  C_2
REMARK    2  A    between atoms: C_6  and  N_7
REMARK    3  A    between atoms: C_8  and  C_10
REMARK    4  A    between atoms: C_14  and  C_15
REMARK                            x       y       z     vdW  Elec       q    Type
REMARK                         _______ _______ _______ _____ _____    ______ ____
ROOT
ATOM      1  C   UNL     1       2.649   6.808  19.021  0.00  0.00    +0.000 A 
ATOM      2  C   UNL     1       2.534   5.774  19.940  0.00  0.00    +0.000 A 
ATOM      3  N   UNL     1       3.207   4.604  19.849  0.00  0.00    +0.000 NA
ATOM      4  C   UNL     1       4.064   4.480  18.809  0.00  0.00    +0.000 A 
ATOM      5  C   UNL     1       4.274   5.444  17.816  0.00  0.00    +0.000 A 
ATOM      6  C   UNL     1       3.525   6.633  17.943  0.00  0.00    +0.000 A 
ENDROOT
BRANCH   5   7
ATOM      7  C   UNL     1       5.238   5.232  16.716  0.00  0.00    +0.000 A 
ATOM      8  C   UNL     1       5.018   4.291  15.699  0.00  0.00    +0.000 A 
ATOM      9  C   UNL     1       5.961   4.094  14.690  0.00  0.00    +0.000 A 
ATOM     10  C   UNL     1       7.110   4.862  14.706  0.00  0.00    +0.000 A 
ATOM     11  N   UNL     1       7.366   5.793  15.644  0.00  0.00    +0.000 NA
ATOM     12  C   UNL     1       6.433   5.953  16.616  0.00  0.00    +0.000 A 
ENDBRANCH   5   7
BRANCH   1  14
ATOM     13  N   UNL     1       1.631   8.886  18.231  0.00  0.00    +0.000 N 
ATOM     14  C   UNL     1       1.913   8.061  19.309  0.00  0.00    +0.000 C 
ATOM     15  O   UNL     1       1.608   8.246  20.481  0.00  0.00    +0.000 OA
ATOM     16  H   UNL     1       1.853   8.585  17.298  0.00  0.00    +0.000 HD
BRANCH  13  22
ATOM     17  C   UNL     1      -2.514  11.297  18.251  0.00  0.00    +0.000 C 
ATOM     18  C   UNL     1      -1.023  11.343  18.386  0.00  0.00    +0.000 A 
ATOM     19  C   UNL     1      -0.346  12.530  18.613  0.00  0.00    +0.000 A 
ATOM     20  C   UNL     1       1.040  12.490  18.715  0.00  0.00    +0.000 A 
ATOM     21  C   UNL     1       1.705  11.268  18.585  0.00  0.00    +0.000 A 
ATOM     22  C   UNL     1       0.957  10.119  18.360  0.00  0.00    +0.000 A 
ATOM     23  N   UNL     1      -0.382  10.161  18.269  0.00  0.00    +0.000 NA
ENDBRANCH  13  22
ENDBRANCH   1  14
TORSDOF 3
ENDMDL
MODEL 6
REMARK VINA RESULT:      -7.6      2.468      8.541
REMARK  Name = 
REMARK  4 active torsions:
REMARK  status: ('A' for Active; 'I' for Inactive)
REMARK    1  A    between atoms: C_1  and  C_2
REMARK    2  A    between atoms: C_6  and  N_7
REMARK    3  A    between atoms: C_8  and  C_10
REMARK    4  A    between atoms: C_14  and  C_15
REMARK                            x       y       z     vdW  Elec       q    Type
REMARK                         _______ _______ _______ _____ _____    ______ ____
ROOT
ATOM      1  C   UNL     1       4.826   4.956  17.768  0.00  0.00    +0.000 A 
ATOM      2  C   UNL     1       4.657   3.999  18.759  0.00  0.00    +0.000 A 
ATOM      3  N   UNL     1       3.822   4.144  19.813  0.00  0.00    +0.000 NA
ATOM      4  C   UNL     1       3.096   5.284  19.856  0.00  0.00    +0.000 A 
ATOM      5  C   UNL     1       3.170   6.325  18.922  0.00  0.00    +0.000 A 
ATOM      6  C   UNL     1       4.078   6.135  17.859  0.00  0.00    +0.000 A 
ENDROOT
BRANCH   5   7
ATOM      7  C   UNL     1       2.332   7.537  19.038  0.00  0.00    +0.000 A 
ATOM      8  C   UNL     1       2.070   8.373  17.942  0.00  0.00    +0.000 A 
ATOM      9  C   UNL     1       1.298   9.525  18.090  0.00  0.00    +0.000 A 
ATOM     10  C   UNL     1       0.783   9.815  19.340  0.00  0.00    +0.000 A 
ATOM     11  N   UNL     1       0.985   9.040  20.422  0.00  0.00    +0.000 NA
ATOM     12  C   UNL     1       1.747   7.932  20.247  0.00  0.00    +0.000 A 
ENDBRANCH   5   7
BRANCH   1  14
ATOM     13  N   UNL     1       5.212   4.831  15.356  0.00  0.00    +0.000 N 
ATOM     14  C   UNL     1       5.711   4.609  16.631  0.00  0.00    +0.000 C 
ATOM     15  O   UNL     1       6.816   4.169  16.926  0.00  0.00    +0.000 OA
ATOM     16  H   UNL     1       4.322   5.284  15.238  0.00  0.00    +0.000 HD
BRANCH  13  22
ATOM     17  C   UNL     1       5.654   2.145  11.409  0.00  0.00    +0.000 C 
ATOM     18  C   UNL     1       6.198   3.260  12.248  0.00  0.00    +0.000 A 
ATOM     19  C   UNL     1       7.349   3.946  11.895  0.00  0.00    +0.000 A 
ATOM     20  C   UNL     1       7.795   4.962  12.733  0.00  0.00    +0.000 A 
ATOM     21  C   UNL     1       7.079   5.258  13.896  0.00  0.00    +0.000 A 
ATOM     22  C   UNL     1       5.933   4.528  14.183  0.00  0.00    +0.000 A 
ATOM     23  N   UNL     1       5.502   3.553  13.367  0.00  0.00    +0.000 NA
ENDBRANCH  13  22
ENDBRANCH   1  14
TORSDOF 3
ENDMDL
MODEL 7
REMARK VINA RESULT:      -7.6      2.389      8.527
REMARK  Name = 
REMARK  4 active torsions:
REMARK  status: ('A' for Active; 'I' for Inactive)
REMARK    1  A    between atoms: C_1  and  C_2
REMARK    2  A    between atoms: C_6  and  N_7
REMARK    3  A    between atoms: C_8  and  C_10
REMARK    4  A    between atoms: C_14  and  C_15
REMARK                            x       y       z     vdW  Elec       q    Type
REMARK                         _______ _______ _______ _____ _____    ______ ____
ROOT
ATOM      1  C   UNL     1       4.674   5.012  17.878  0.00  0.00    +0.000 A 
ATOM      2  C   UNL     1       4.433   4.004  18.801  0.00  0.00    +0.000 A 
ATOM      3  N   UNL     1       3.561   4.116  19.829  0.00  0.00    +0.000 NA
ATOM      4  C   UNL     1       2.873   5.277  19.915  0.00  0.00    +0.000 A 
ATOM      5  C   UNL     1       3.020   6.369  19.050  0.00  0.00    +0.000 A 
ATOM      6  C   UNL     1       3.963   6.210  18.012  0.00  0.00    +0.000 A 
ENDROOT
BRANCH   5   7
ATOM      7  C   UNL     1       2.220   7.601  19.207  0.00  0.00    +0.000 A 
ATOM      8  C   UNL     1       1.963   8.469  18.135  0.00  0.00    +0.000 A 
ATOM      9  C   UNL     1       1.228   9.640  18.323  0.00  0.00    +0.000 A 
ATOM     10  C   UNL     1       0.742   9.916  19.587  0.00  0.00    +0.000 A 
ATOM     11  N   UNL     1       0.941   9.110  20.648  0.00  0.00    +0.000 NA
ATOM     12  C   UNL     1       1.667   7.985  20.434  0.00  0.00    +0.000 A 
ENDBRANCH   5   7
BRANCH   1  14
ATOM     13  N   UNL     1       5.112   4.920  15.473  0.00  0.00    +0.000 N 
ATOM     14  C   UNL     1       5.592   4.703  16.756  0.00  0.00    +0.000 C 
ATOM     15  O   UNL     1       6.704   4.294  17.070  0.00  0.00    +0.000 OA
ATOM     16  H   UNL     1       4.211   5.346  15.341  0.00  0.00    +0.000 HD
BRANCH  13  22
ATOM     17  C   UNL     1       8.909   5.951  12.732  0.00  0.00    +0.000 C 
ATOM     18  C   UNL     1       7.695   5.099  12.943  0.00  0.00    +0.000 A 
ATOM     19  C   UNL     1       7.329   4.111  12.044  0.00  0.00    +0.000 A 
ATOM     20  C   UNL     1       6.182   3.371  12.307  0.00  0.00    +0.000 A 
ATOM     21  C   UNL     1       5.436   3.644  13.456  0.00  0.00    +0.000 A 
ATOM     22  C   UNL     1       5.866   4.649  14.312  0.00  0.00    +0.000 A 
ATOM     23  N   UNL     1       6.979   5.356  14.059  0.00  0.00    +0.000 NA
ENDBRANCH  13  22
ENDBRANCH   1  14
TORSDOF 3
ENDMDL
MODEL 8
REMARK VINA RESULT:      -7.6      2.009      8.608
REMARK  Name = 
REMARK  4 active torsions:
REMARK  status: ('A' for Active; 'I' for Inactive)
REMARK    1  A    between atoms: C_1  and  C_2
REMARK    2  A    between atoms: C_6  and  N_7
REMARK    3  A    between atoms: C_8  and  C_10
REMARK    4  A    between atoms: C_14  and  C_15
REMARK                            x       y       z     vdW  Elec       q    Type
REMARK                         _______ _______ _______ _____ _____    ______ ____
ROOT
ATOM      1  C   UNL     1       4.308   5.826  17.450  0.00  0.00    +0.000 A 
ATOM      2  C   UNL     1       4.399   4.663  18.201  0.00  0.00    +0.000 A 
ATOM      3  N   UNL     1       3.774   4.480  19.387  0.00  0.00    +0.000 NA
ATOM      4  C   UNL     1       2.992   5.495  19.821  0.00  0.00    +0.000 A 
ATOM      5  C   UNL     1       2.814   6.716  19.160  0.00  0.00    +0.000 A 
ATOM      6  C   UNL     1       3.511   6.866  17.943  0.00  0.00    +0.000 A 
ENDROOT
BRANCH   5   7
ATOM      7  C   UNL     1       1.932   7.772  19.700  0.00  0.00    +0.000 A 
ATOM      8  C   UNL     1       1.385   7.704  20.990  0.00  0.00    +0.000 A 
ATOM      9  C   UNL     1       0.533   8.704  21.460  0.00  0.00    +0.000 A 
ATOM     10  C   UNL     1       0.253   9.773  20.629  0.00  0.00    +0.000 A 
ATOM     11  N   UNL     1       0.764   9.901  19.390  0.00  0.00    +0.000 NA
ATOM     12  C   UNL     1       1.582   8.908  18.960  0.00  0.00    +0.000 A 
ENDBRANCH   5   7
BRANCH   1  14
ATOM     13  N   UNL     1       5.356   4.611  15.604  0.00  0.00    +0.000 N 
ATOM     14  C   UNL     1       4.980   5.838  16.129  0.00  0.00    +0.000 C 
ATOM     15  O   UNL     1       5.128   6.939  15.612  0.00  0.00    +0.000 OA
ATOM     16  H   UNL     1       5.098   3.762  16.079  0.00  0.00    +0.000 HD
BRANCH  13  22
ATOM     17  C   UNL     1       8.924   5.980  12.709  0.00  0.00    +0.000 C 
ATOM     18  C   UNL     1       7.738   5.091  12.922  0.00  0.00    +0.000 A 
ATOM     19  C   UNL     1       7.315   4.192  11.955  0.00  0.00    +0.000 A 
ATOM     20  C   UNL     1       6.198   3.410  12.226  0.00  0.00    +0.000 A 
ATOM     21  C   UNL     1       5.539   3.551  13.449  0.00  0.00    +0.000 A 
ATOM     22  C   UNL     1       6.022   4.472  14.369  0.00  0.00    +0.000 A 
ATOM     23  N   UNL     1       7.106   5.221  14.108  0.00  0.00    +0.000 NA
ENDBRANCH  13  22
ENDBRANCH   1  14
TORSDOF 3
ENDMDL
MODEL 9
REMARK VINA RESULT:      -7.6      2.108      8.576
REMARK  Name = 
REMARK  4 active torsions:
REMARK  status: ('A' for Active; 'I' for Inactive)
REMARK    1  A    between atoms: C_1  and  C_2
REMARK    2  A    between atoms: C_6  and  N_7
REMARK    3  A    between atoms: C_8  and  C_10
REMARK    4  A    between atoms: C_14  and  C_15
REMARK                            x       y       z     vdW  Elec       q    Type
REMARK                         _______ _______ _______ _____ _____    ______ ____
ROOT
ATOM      1  C   UNL     1       4.392   5.856  17.428  0.00  0.00    +0.000 A 
ATOM      2  C   UNL     1       4.593   4.762  18.258  0.00  0.00    +0.000 A 
ATOM      3  N   UNL     1       4.028   4.627  19.479  0.00  0.00    +0.000 NA
ATOM      4  C   UNL     1       3.192   5.616  19.871  0.00  0.00    +0.000 A 
ATOM      5  C   UNL     1       2.902   6.769  19.130  0.00  0.00    +0.000 A 
ATOM      6  C   UNL     1       3.542   6.873  17.877  0.00  0.00    +0.000 A 
ENDROOT
BRANCH   5   7
ATOM      7  C   UNL     1       1.968   7.800  19.628  0.00  0.00    +0.000 A 
ATOM      8  C   UNL     1       1.394   7.736  20.907  0.00  0.00    +0.000 A 
ATOM      9  C   UNL     1       0.493   8.711  21.336  0.00  0.00    +0.000 A 
ATOM     10  C   UNL     1       0.192   9.752  20.478  0.00  0.00    +0.000 A 
ATOM     11  N   UNL     1       0.727   9.875  19.248  0.00  0.00    +0.000 NA
ATOM     12  C   UNL     1       1.592   8.906  18.857  0.00  0.00    +0.000 A 
ENDBRANCH   5   7
BRANCH   1  14
ATOM     13  N   UNL     1       5.411   4.571  15.613  0.00  0.00    +0.000 N 
ATOM     14  C   UNL     1       5.012   5.814  16.083  0.00  0.00    +0.000 C 
ATOM     15  O   UNL     1       5.102   6.887  15.499  0.00  0.00    +0.000 OA
ATOM     16  H   UNL     1       5.202   3.743  16.146  0.00  0.00    +0.000 HD
BRANCH  13  22
ATOM     17  C   UNL     1       5.489   2.314  11.384  0.00  0.00    +0.000 C 
ATOM     18  C   UNL     1       6.122   3.325  12.290  0.00  0.00    +0.000 A 
ATOM     19  C   UNL     1       7.260   4.026  11.924  0.00  0.00    +0.000 A 
ATOM     20  C   UNL     1       7.792   4.939  12.827  0.00  0.00    +0.000 A 
ATOM     21  C   UNL     1       7.173   5.121  14.066  0.00  0.00    +0.000 A 
ATOM     22  C   UNL     1       6.034   4.383  14.363  0.00  0.00    +0.000 A 
ATOM     23  N   UNL     1       5.519   3.507  13.484  0.00  0.00    +0.000 NA
ENDBRANCH  13  22
ENDBRANCH   1  14
TORSDOF 3
ENDMDL
