MODEL 1
REMARK VINA RESULT:      -9.1      0.000      0.000
REMARK  Name = 
REMARK  4 active torsions:
REMARK  status: ('A' for Active; 'I' for Inactive)
REMARK    1  A    between atoms: C_1  and  C_2
REMARK    2  A    between atoms: C_4  and  C_5
REMARK    3  A    between atoms: C_8  and  C_9
REMARK    4  A    between atoms: C_19  and  C_20
REMARK                            x       y       z     vdW  Elec       q    Type
REMARK                         _______ _______ _______ _____ _____    ______ ____
ROOT
ATOM      1  C   UNL     1      -2.602  12.624  19.427  0.00  0.00    +0.000 C 
ATOM      2  C   UNL     1      -1.589  11.825  20.167  0.00  0.00    +0.000 A 
ATOM      3  N   UNL     1      -0.762  10.988  19.428  0.00  0.00    +0.000 NA
ATOM      4  C   UNL     1       0.034  10.301  20.220  0.00  0.00    +0.000 A 
ATOM      5  S   UNL     1      -0.092  10.703  21.882  0.00  0.00    +0.000 S 
ATOM      6  C   UNL     1      -1.359  11.820  21.538  0.00  0.00    +0.000 A 
ENDROOT
BRANCH   6   7
ATOM      7  C   UNL     1      -2.028  12.544  22.625  0.00  0.00    +0.000 A 
ATOM      8  C   UNL     1      -1.564  13.747  23.116  0.00  0.00    +0.000 A 
ATOM      9  C   UNL     1      -2.261  14.267  24.176  0.00  0.00    +0.000 A 
ATOM     10  N   UNL     1      -3.343  13.677  24.708  0.00  0.00    +0.000 NA
ATOM     11  C   UNL     1      -3.742  12.538  24.139  0.00  0.00    +0.000 A 
ATOM     12  N   UNL     1      -4.854  11.922  24.673  0.00  0.00    +0.000 N 
ATOM     13  N   UNL     1      -3.121  11.932  23.125  0.00  0.00    +0.000 NA
ATOM     14  H   UNL     1      -4.972  12.210  25.632  0.00  0.00    +0.000 HD
ATOM     15  H   UNL     1      -4.822  10.930  24.486  0.00  0.00    +0.000 HD
ENDBRANCH   6   7
BRANCH   4  16
ATOM     16  C   UNL     1       0.976   9.271  19.751  0.00  0.00    +0.000 A 
ATOM     17  C   UNL     1       1.459   9.333  18.436  0.00  0.00    +0.000 A 
ATOM     18  C   UNL     1       2.286   8.328  17.927  0.00  0.00    +0.000 A 
ATOM     19  C   UNL     1       2.638   7.237  18.725  0.00  0.00    +0.000 A 
ATOM     20  C   UNL     1       2.187   7.174  20.044  0.00  0.00    +0.000 A 
ATOM     21  C   UNL     1       1.362   8.184  20.552  0.00  0.00    +0.000 A 
BRANCH  19  22
ATOM     22  C   UNL     1       3.445   6.153  18.167  0.00  0.00    +0.000 C 
ATOM     23  C   UNL     1       2.963   4.980  17.722  0.00  0.00    +0.000 C 
ATOM     24  C   UNL     1       3.890   3.885  17.245  0.00  0.00    +0.000 C 
ATOM     25  C   UNL     1       3.686   2.624  18.085  0.00  0.00    +0.000 C 
ATOM     26  C   UNL     1       2.219   2.191  18.127  0.00  0.00    +0.000 C 
ATOM     27  C   UNL     1       1.297   3.334  18.557  0.00  0.00    +0.000 C 
ATOM     28  C   UNL     1       1.507   4.582  17.697  0.00  0.00    +0.000 C 
ENDBRANCH  19  22
ENDBRANCH   4  16
TORSDOF 3
ENDMDL
MODEL 2
REMARK VINA RESULT:      -8.7      0.781      1.225
REMARK  Name = 
REMARK  4 active torsions:
REMARK  status: ('A' for Active; 'I' for Inactive)
REMARK    1  A    between atoms: C_1  and  C_2
REMARK    2  A    between atoms: C_4  and  C_5
REMARK    3  A    between atoms: C_8  and  C_9
REMARK    4  A    between atoms: C_19  and  C_20
REMARK                            x       y       z     vdW  Elec       q    Type
REMARK                         _______ _______ _______ _____ _____    ______ ____
ROOT
ATOM      1  C   UNL     1      -0.821  13.661  19.201  0.00  0.00    +0.000 C 
ATOM      2  C   UNL     1      -0.368  12.435  19.909  0.00  0.00    +0.000 A 
ATOM      3  N   UNL     1       0.352  11.497  19.178  0.00  0.00    +0.000 NA
ATOM      4  C   UNL     1       0.628  10.442  19.916  0.00  0.00    +0.000 A 
ATOM      5  S   UNL     1       0.134  10.568  21.553  0.00  0.00    +0.000 S 
ATOM      6  C   UNL     1      -0.574  12.108  21.244  0.00  0.00    +0.000 A 
ENDROOT
BRANCH   6   7
ATOM      7  C   UNL     1      -1.289  12.825  22.306  0.00  0.00    +0.000 A 
ATOM      8  C   UNL     1      -0.808  13.985  22.878  0.00  0.00    +0.000 A 
ATOM      9  C   UNL     1      -1.560  14.500  23.903  0.00  0.00    +0.000 A 
ATOM     10  N   UNL     1      -2.706  13.945  24.328  0.00  0.00    +0.000 NA
ATOM     11  C   UNL     1      -3.113  12.849  23.686  0.00  0.00    +0.000 A 
ATOM     12  N   UNL     1      -4.290  12.270  24.111  0.00  0.00    +0.000 N 
ATOM     13  N   UNL     1      -2.445  12.251  22.698  0.00  0.00    +0.000 NA
ATOM     14  H   UNL     1      -4.467  12.529  25.069  0.00  0.00    +0.000 HD
ATOM     15  H   UNL     1      -4.290  11.285  23.888  0.00  0.00    +0.000 HD
ENDBRANCH   6   7
BRANCH   4  16
ATOM     16  C   UNL     1       1.312   9.240  19.413  0.00  0.00    +0.000 A 
ATOM     17  C   UNL     1       1.538   8.165  20.285  0.00  0.00    +0.000 A 
ATOM     18  C   UNL     1       2.259   7.042  19.870  0.00  0.00    +0.000 A 
ATOM     19  C   UNL     1       2.775   6.979  18.574  0.00  0.00    +0.000 A 
ATOM     20  C   UNL     1       2.536   8.029  17.686  0.00  0.00    +0.000 A 
ATOM     21  C   UNL     1       1.810   9.150  18.103  0.00  0.00    +0.000 A 
BRANCH  19  22
ATOM     22  C   UNL     1       3.589   5.835  18.165  0.00  0.00    +0.000 C 
ATOM     23  C   UNL     1       3.105   4.659  17.728  0.00  0.00    +0.000 C 
ATOM     24  C   UNL     1       4.028   3.504  17.414  0.00  0.00    +0.000 C 
ATOM     25  C   UNL     1       3.676   2.300  18.289  0.00  0.00    +0.000 C 
ATOM     26  C   UNL     1       2.195   1.928  18.188  0.00  0.00    +0.000 C 
ATOM     27  C   UNL     1       1.284   3.130  18.453  0.00  0.00    +0.000 C 
ATOM     28  C   UNL     1       1.644   4.318  17.561  0.00  0.00    +0.000 C 
ENDBRANCH  19  22
ENDBRANCH   4  16
TORSDOF 3
ENDMDL
MODEL 3
REMARK VINA RESULT:      -8.6      0.871      1.412
REMARK  Name = 
REMARK  4 active torsions:
REMARK  status: ('A' for Active; 'I' for Inactive)
REMARK    1  A    between atoms: C_1  and  C_2
REMARK    2  A    between atoms: C_4  and  C_5
REMARK    3  A    between atoms: C_8  and  C_9
REMARK    4  A    between atoms: C_19  and  C_20
REMARK                            x       y       z     vdW  Elec       q    Type
REMARK                         _______ _______ _______ _____ _____    ______ ____
ROOT
ATOM      1  C   UNL     1      -2.566  12.453  19.402  0.00  0.00    +0.000 C 
ATOM      2  C   UNL     1      -1.497  11.703  20.113  0.00  0.00    +0.000 A 
ATOM      3  N   UNL     1      -0.707  10.840  19.364  0.00  0.00    +0.000 NA
ATOM      4  C   UNL     1       0.148  10.202  20.136  0.00  0.00    +0.000 A 
ATOM      5  S   UNL     1       0.122  10.685  21.781  0.00  0.00    +0.000 S 
ATOM      6  C   UNL     1      -1.179  11.769  21.465  0.00  0.00    +0.000 A 
ENDROOT
BRANCH   6   7
ATOM      7  C   UNL     1      -1.788  12.538  22.556  0.00  0.00    +0.000 A 
ATOM      8  C   UNL     1      -3.010  12.213  23.108  0.00  0.00    +0.000 A 
ATOM      9  C   UNL     1      -3.474  13.066  24.075  0.00  0.00    +0.000 A 
ATOM     10  N   UNL     1      -2.794  14.145  24.495  0.00  0.00    +0.000 NA
ATOM     11  C   UNL     1      -1.602  14.356  23.933  0.00  0.00    +0.000 A 
ATOM     12  N   UNL     1      -0.892  15.458  24.356  0.00  0.00    +0.000 N 
ATOM     13  N   UNL     1      -1.072  13.605  22.965  0.00  0.00    +0.000 NA
ATOM     14  H   UNL     1      -1.526  16.142  24.738  0.00  0.00    +0.000 HD
ATOM     15  H   UNL     1      -0.262  15.764  23.627  0.00  0.00    +0.000 HD
ENDBRANCH   6   7
BRANCH   4  16
ATOM     16  C   UNL     1       1.073   9.161  19.658  0.00  0.00    +0.000 A 
ATOM     17  C   UNL     1       1.536   9.211  18.336  0.00  0.00    +0.000 A 
ATOM     18  C   UNL     1       2.347   8.196  17.819  0.00  0.00    +0.000 A 
ATOM     19  C   UNL     1       2.700   7.105  18.617  0.00  0.00    +0.000 A 
ATOM     20  C   UNL     1       2.268   7.054  19.943  0.00  0.00    +0.000 A 
ATOM     21  C   UNL     1       1.461   8.074  20.459  0.00  0.00    +0.000 A 
BRANCH  19  22
ATOM     22  C   UNL     1       3.488   6.011  18.053  0.00  0.00    +0.000 C 
ATOM     23  C   UNL     1       2.991   4.832  17.641  0.00  0.00    +0.000 C 
ATOM     24  C   UNL     1       3.901   3.728  17.154  0.00  0.00    +0.000 C 
ATOM     25  C   UNL     1       3.721   2.480  18.021  0.00  0.00    +0.000 C 
ATOM     26  C   UNL     1       2.255   2.051  18.114  0.00  0.00    +0.000 C 
ATOM     27  C   UNL     1       1.348   3.204  18.552  0.00  0.00    +0.000 C 
ATOM     28  C   UNL     1       1.534   4.436  17.667  0.00  0.00    +0.000 C 
ENDBRANCH  19  22
ENDBRANCH   4  16
TORSDOF 3
ENDMDL
MODEL 4
REMARK VINA RESULT:      -8.5      1.071      1.813
REMARK  Name = 
REMARK  4 active torsions:
REMARK  status: ('A' for Active; 'I' for Inactive)
REMARK    1  A    between atoms: C_1  and  C_2
REMARK    2  A    between atoms: C_4  and  C_5
REMARK    3  A    between atoms: C_8  and  C_9
REMARK    4  A    between atoms: C_19  and  C_20
REMARK                            x       y       z     vdW  Elec       q    Type
REMARK                         _______ _______ _______ _____ _____    ______ ____
ROOT
ATOM      1  C   UNL     1      -0.315  14.024  19.978  0.00  0.00    +0.000 C 
ATOM      2  C   UNL     1      -0.169  12.630  20.478  0.00  0.00    +0.000 A 
ATOM      3  N   UNL     1       0.596  11.751  19.721  0.00  0.00    +0.000 NA
ATOM      4  C   UNL     1       0.581  10.546  20.250  0.00  0.00    +0.000 A 
ATOM      5  S   UNL     1      -0.260  10.431  21.740  0.00  0.00    +0.000 S 
ATOM      6  C   UNL     1      -0.710  12.091  21.639  0.00  0.00    +0.000 A 
ENDROOT
BRANCH   6   7
ATOM      7  C   UNL     1      -1.570  12.693  22.664  0.00  0.00    +0.000 A 
ATOM      8  C   UNL     1      -2.839  12.228  22.940  0.00  0.00    +0.000 A 
ATOM      9  C   UNL     1      -3.542  12.936  23.881  0.00  0.00    +0.000 A 
ATOM     10  N   UNL     1      -3.045  14.004  24.524  0.00  0.00    +0.000 NA
ATOM     11  C   UNL     1      -1.794  14.354  24.221  0.00  0.00    +0.000 A 
ATOM     12  N   UNL     1      -1.269  15.447  24.877  0.00  0.00    +0.000 N 
ATOM     13  N   UNL     1      -1.034  13.753  23.304  0.00  0.00    +0.000 NA
ATOM     14  H   UNL     1      -2.018  16.041  25.196  0.00  0.00    +0.000 HD
ATOM     15  H   UNL     1      -0.546  15.873  24.313  0.00  0.00    +0.000 HD
ENDBRANCH   6   7
BRANCH   4  16
ATOM     16  C   UNL     1       1.231   9.371  19.646  0.00  0.00    +0.000 A 
ATOM     17  C   UNL     1       1.540   8.268  20.455  0.00  0.00    +0.000 A 
ATOM     18  C   UNL     1       2.233   7.170  19.938  0.00  0.00    +0.000 A 
ATOM     19  C   UNL     1       2.638   7.161  18.601  0.00  0.00    +0.000 A 
ATOM     20  C   UNL     1       2.315   8.240  17.777  0.00  0.00    +0.000 A 
ATOM     21  C   UNL     1       1.617   9.336  18.296  0.00  0.00    +0.000 A 
BRANCH  19  22
ATOM     22  C   UNL     1       3.424   6.043  18.082  0.00  0.00    +0.000 C 
ATOM     23  C   UNL     1       2.920   4.861  17.684  0.00  0.00    +0.000 C 
ATOM     24  C   UNL     1       3.825   3.734  17.246  0.00  0.00    +0.000 C 
ATOM     25  C   UNL     1       3.605   2.509  18.136  0.00  0.00    +0.000 C 
ATOM     26  C   UNL     1       2.131   2.103  18.201  0.00  0.00    +0.000 C 
ATOM     27  C   UNL     1       1.231   3.278  18.590  0.00  0.00    +0.000 C 
ATOM     28  C   UNL     1       1.457   4.488  17.682  0.00  0.00    +0.000 C 
ENDBRANCH  19  22
ENDBRANCH   4  16
TORSDOF 3
ENDMDL
MODEL 5
REMARK VINA RESULT:      -8.2      1.592      1.916
REMARK  Name = 
REMARK  4 active torsions:
REMARK  status: ('A' for Active; 'I' for Inactive)
REMARK    1  A    between atoms: C_1  and  C_2
REMARK    2  A    between atoms: C_4  and  C_5
REMARK    3  A    between atoms: C_8  and  C_9
REMARK    4  A    between atoms: C_19  and  C_20
REMARK                            x       y       z     vdW  Elec       q    Type
REMARK                         _______ _______ _______ _____ _____    ______ ____
ROOT
ATOM      1  C   UNL     1       0.247  13.841  19.283  0.00  0.00    +0.000 C 
ATOM      2  C   UNL     1       0.098  12.414  19.672  0.00  0.00    +0.000 A 
ATOM      3  N   UNL     1       1.075  11.524  19.243  0.00  0.00    +0.000 NA
ATOM      4  C   UNL     1       0.777  10.294  19.606  0.00  0.00    +0.000 A 
ATOM      5  S   UNL     1      -0.632  10.157  20.574  0.00  0.00    +0.000 S 
ATOM      6  C   UNL     1      -0.918  11.850  20.436  0.00  0.00    +0.000 A 
ENDROOT
BRANCH   6   7
ATOM      7  C   UNL     1      -2.110  12.455  21.040  0.00  0.00    +0.000 A 
ATOM      8  C   UNL     1      -2.280  12.566  22.405  0.00  0.00    +0.000 A 
ATOM      9  C   UNL     1      -3.476  13.096  22.816  0.00  0.00    +0.000 A 
ATOM     10  N   UNL     1      -4.429  13.510  21.967  0.00  0.00    +0.000 NA
ATOM     11  C   UNL     1      -4.158  13.402  20.666  0.00  0.00    +0.000 A 
ATOM     12  N   UNL     1      -5.127  13.827  19.782  0.00  0.00    +0.000 N 
ATOM     13  N   UNL     1      -3.041  12.876  20.160  0.00  0.00    +0.000 NA
ATOM     14  H   UNL     1      -6.029  13.798  20.231  0.00  0.00    +0.000 HD
ATOM     15  H   UNL     1      -5.030  13.339  18.903  0.00  0.00    +0.000 HD
ENDBRANCH   6   7
BRANCH   4  16
ATOM     16  C   UNL     1       1.571   9.110  19.239  0.00  0.00    +0.000 A 
ATOM     17  C   UNL     1       2.121   9.026  17.951  0.00  0.00    +0.000 A 
ATOM     18  C   UNL     1       2.808   7.882  17.536  0.00  0.00    +0.000 A 
ATOM     19  C   UNL     1       2.950   6.795  18.402  0.00  0.00    +0.000 A 
ATOM     20  C   UNL     1       2.432   6.874  19.695  0.00  0.00    +0.000 A 
ATOM     21  C   UNL     1       1.748   8.022  20.110  0.00  0.00    +0.000 A 
BRANCH  19  22
ATOM     22  C   UNL     1       3.607   5.573  17.941  0.00  0.00    +0.000 C 
ATOM     23  C   UNL     1       2.983   4.414  17.672  0.00  0.00    +0.000 C 
ATOM     24  C   UNL     1       3.763   3.179  17.286  0.00  0.00    +0.000 C 
ATOM     25  C   UNL     1       3.492   2.054  18.287  0.00  0.00    +0.000 C 
ATOM     26  C   UNL     1       1.995   1.788  18.461  0.00  0.00    +0.000 C 
ATOM     27  C   UNL     1       1.221   3.065  18.793  0.00  0.00    +0.000 C 
ATOM     28  C   UNL     1       1.497   4.173  17.775  0.00  0.00    +0.000 C 
ENDBRANCH  19  22
ENDBRANCH   4  16
TORSDOF 3
ENDMDL
MODEL 6
REMARK VINA RESULT:      -8.2      1.380      2.148
REMARK  Name = 
REMARK  4 active torsions:
REMARK  status: ('A' for Active; 'I' for Inactive)
REMARK    1  A    between atoms: C_1  and  C_2
REMARK    2  A    between atoms: C_4  and  C_5
REMARK    3  A    between atoms: C_8  and  C_9
REMARK    4  A    between atoms: C_19  and  C_20
REMARK                            x       y       z     vdW  Elec       q    Type
REMARK                         _______ _______ _______ _____ _____    ______ ____
ROOT
ATOM      1  C   UNL     1      -0.723  13.415  19.174  0.00  0.00    +0.000 C 
ATOM      2  C   UNL     1      -0.288  12.206  19.924  0.00  0.00    +0.000 A 
ATOM      3  N   UNL     1       0.442  11.247  19.234  0.00  0.00    +0.000 NA
ATOM      4  C   UNL     1       0.699  10.212  20.005  0.00  0.00    +0.000 A 
ATOM      5  S   UNL     1       0.173  10.384  21.628  0.00  0.00    +0.000 S 
ATOM      6  C   UNL     1      -0.522  11.917  21.264  0.00  0.00    +0.000 A 
ENDROOT
BRANCH   6   7
ATOM      7  C   UNL     1      -1.256  12.665  22.292  0.00  0.00    +0.000 A 
ATOM      8  C   UNL     1      -0.780  13.837  22.843  0.00  0.00    +0.000 A 
ATOM      9  C   UNL     1      -1.550  14.383  23.838  0.00  0.00    +0.000 A 
ATOM     10  N   UNL     1      -2.708  13.845  24.254  0.00  0.00    +0.000 NA
ATOM     11  C   UNL     1      -3.107  12.734  23.633  0.00  0.00    +0.000 A 
ATOM     12  N   UNL     1      -4.296  12.172  24.048  0.00  0.00    +0.000 N 
ATOM     13  N   UNL     1      -2.422  12.107  22.675  0.00  0.00    +0.000 NA
ATOM     14  H   UNL     1      -4.491  12.456  24.995  0.00  0.00    +0.000 HD
ATOM     15  H   UNL     1      -4.296  11.181  23.851  0.00  0.00    +0.000 HD
ENDBRANCH   6   7
BRANCH   4  16
ATOM     16  C   UNL     1       1.388   8.994  19.549  0.00  0.00    +0.000 A 
ATOM     17  C   UNL     1       1.792   8.897  18.209  0.00  0.00    +0.000 A 
ATOM     18  C   UNL     1       2.372   7.725  17.717  0.00  0.00    +0.000 A 
ATOM     19  C   UNL     1       2.550   6.623  18.557  0.00  0.00    +0.000 A 
ATOM     20  C   UNL     1       2.177   6.713  19.898  0.00  0.00    +0.000 A 
ATOM     21  C   UNL     1       1.601   7.889  20.390  0.00  0.00    +0.000 A 
BRANCH  19  22
ATOM     22  C   UNL     1       3.092   5.374  18.022  0.00  0.00    +0.000 C 
ATOM     23  C   UNL     1       4.378   5.170  17.687  0.00  0.00    +0.000 C 
ATOM     24  C   UNL     1       4.823   3.871  17.057  0.00  0.00    +0.000 C 
ATOM     25  C   UNL     1       5.446   4.140  15.686  0.00  0.00    +0.000 C 
ATOM     26  C   UNL     1       6.561   5.186  15.757  0.00  0.00    +0.000 C 
ATOM     27  C   UNL     1       6.100   6.469  16.452  0.00  0.00    +0.000 C 
ATOM     28  C   UNL     1       5.491   6.179  17.825  0.00  0.00    +0.000 C 
ENDBRANCH  19  22
ENDBRANCH   4  16
TORSDOF 3
ENDMDL
MODEL 7
REMARK VINA RESULT:      -8.1      2.133      2.757
REMARK  Name = 
REMARK  4 active torsions:
REMARK  status: ('A' for Active; 'I' for Inactive)
REMARK    1  A    between atoms: C_1  and  C_2
REMARK    2  A    between atoms: C_4  and  C_5
REMARK    3  A    between atoms: C_8  and  C_9
REMARK    4  A    between atoms: C_19  and  C_20
REMARK                            x       y       z     vdW  Elec       q    Type
REMARK                         _______ _______ _______ _____ _____    ______ ____
ROOT
ATOM      1  C   UNL     1      -1.383  11.611  23.137  0.00  0.00    +0.000 C 
ATOM      2  C   UNL     1      -0.561  11.532  21.900  0.00  0.00    +0.000 A 
ATOM      3  N   UNL     1      -0.162  10.273  21.470  0.00  0.00    +0.000 NA
ATOM      4  C   UNL     1       0.608  10.365  20.407  0.00  0.00    +0.000 A 
ATOM      5  S   UNL     1       0.804  11.959  19.804  0.00  0.00    +0.000 S 
ATOM      6  C   UNL     1      -0.140  12.588  21.100  0.00  0.00    +0.000 A 
ENDROOT
BRANCH   6   7
ATOM      7  C   UNL     1      -0.345  14.035  21.237  0.00  0.00    +0.000 A 
ATOM      8  C   UNL     1       0.513  14.845  21.952  0.00  0.00    +0.000 A 
ATOM      9  C   UNL     1       0.151  16.165  22.041  0.00  0.00    +0.000 A 
ATOM     10  N   UNL     1      -0.950  16.668  21.461  0.00  0.00    +0.000 NA
ATOM     11  C   UNL     1      -1.696  15.817  20.756  0.00  0.00    +0.000 A 
ATOM     12  N   UNL     1      -2.828  16.321  20.152  0.00  0.00    +0.000 N 
ATOM     13  N   UNL     1      -1.450  14.511  20.629  0.00  0.00    +0.000 NA
ATOM     14  H   UNL     1      -3.128  17.151  20.638  0.00  0.00    +0.000 HD
ATOM     15  H   UNL     1      -3.509  15.585  20.025  0.00  0.00    +0.000 HD
ENDBRANCH   6   7
BRANCH   4  16
ATOM     16  C   UNL     1       1.257   9.215  19.755  0.00  0.00    +0.000 A 
ATOM     17  C   UNL     1       1.562   8.079  20.518  0.00  0.00    +0.000 A 
ATOM     18  C   UNL     1       2.253   7.001  19.957  0.00  0.00    +0.000 A 
ATOM     19  C   UNL     1       2.661   7.047  18.622  0.00  0.00    +0.000 A 
ATOM     20  C   UNL     1       2.341   8.160  17.843  0.00  0.00    +0.000 A 
ATOM     21  C   UNL     1       1.645   9.235  18.406  0.00  0.00    +0.000 A 
BRANCH  19  22
ATOM     22  C   UNL     1       3.445   5.950  18.058  0.00  0.00    +0.000 C 
ATOM     23  C   UNL     1       2.945   4.770  17.652  0.00  0.00    +0.000 C 
ATOM     24  C   UNL     1       3.851   3.663  17.165  0.00  0.00    +0.000 C 
ATOM     25  C   UNL     1       3.673   2.419  18.037  0.00  0.00    +0.000 C 
ATOM     26  C   UNL     1       2.207   1.992  18.137  0.00  0.00    +0.000 C 
ATOM     27  C   UNL     1       1.303   3.147  18.575  0.00  0.00    +0.000 C 
ATOM     28  C   UNL     1       1.488   4.377  17.685  0.00  0.00    +0.000 C 
ENDBRANCH  19  22
ENDBRANCH   4  16
TORSDOF 3
ENDMDL
MODEL 8
REMARK VINA RESULT:      -8.0      2.681      3.292
REMARK  Name = 
REMARK  4 active torsions:
REMARK  status: ('A' for Active; 'I' for Inactive)
REMARK    1  A    between atoms: C_1  and  C_2
REMARK    2  A    between atoms: C_4  and  C_5
REMARK    3  A    between atoms: C_8  and  C_9
REMARK    4  A    between atoms: C_19  and  C_20
REMARK                            x       y       z     vdW  Elec       q    Type
REMARK                         _______ _______ _______ _____ _____    ______ ____
ROOT
ATOM      1  C   UNL     1      -2.934  11.807  18.974  0.00  0.00    +0.000 C 
ATOM      2  C   UNL     1      -1.453  11.698  19.070  0.00  0.00    +0.000 A 
ATOM      3  N   UNL     1      -0.884  10.449  18.855  0.00  0.00    +0.000 NA
ATOM      4  C   UNL     1       0.419  10.493  19.036  0.00  0.00    +0.000 A 
ATOM      5  S   UNL     1       1.041  12.057  19.364  0.00  0.00    +0.000 S 
ATOM      6  C   UNL     1      -0.550  12.717  19.346  0.00  0.00    +0.000 A 
ENDROOT
BRANCH   6   7
ATOM      7  C   UNL     1      -0.769  14.138  19.639  0.00  0.00    +0.000 A 
ATOM      8  C   UNL     1      -1.482  14.572  20.738  0.00  0.00    +0.000 A 
ATOM      9  C   UNL     1      -1.654  15.928  20.840  0.00  0.00    +0.000 A 
ATOM     10  N   UNL     1      -1.154  16.804  19.954  0.00  0.00    +0.000 NA
ATOM     11  C   UNL     1      -0.442  16.294  18.947  0.00  0.00    +0.000 A 
ATOM     12  N   UNL     1       0.081  17.182  18.032  0.00  0.00    +0.000 N 
ATOM     13  N   UNL     1      -0.238  14.992  18.740  0.00  0.00    +0.000 NA
ATOM     14  H   UNL     1      -0.459  18.032  18.039  0.00  0.00    +0.000 HD
ATOM     15  H   UNL     1       0.212  16.723  17.142  0.00  0.00    +0.000 HD
ENDBRANCH   6   7
BRANCH   4  16
ATOM     16  C   UNL     1       1.303   9.318  18.960  0.00  0.00    +0.000 A 
ATOM     17  C   UNL     1       1.988   9.054  17.765  0.00  0.00    +0.000 A 
ATOM     18  C   UNL     1       2.769   7.903  17.624  0.00  0.00    +0.000 A 
ATOM     19  C   UNL     1       2.871   6.990  18.677  0.00  0.00    +0.000 A 
ATOM     20  C   UNL     1       2.216   7.253  19.881  0.00  0.00    +0.000 A 
ATOM     21  C   UNL     1       1.439   8.408  20.021  0.00  0.00    +0.000 A 
BRANCH  19  22
ATOM     22  C   UNL     1       3.630   5.753  18.503  0.00  0.00    +0.000 C 
ATOM     23  C   UNL     1       3.111   4.575  18.117  0.00  0.00    +0.000 C 
ATOM     24  C   UNL     1       3.965   3.329  18.052  0.00  0.00    +0.000 C 
ATOM     25  C   UNL     1       3.396   2.255  18.980  0.00  0.00    +0.000 C 
ATOM     26  C   UNL     1       1.915   1.982  18.704  0.00  0.00    +0.000 C 
ATOM     27  C   UNL     1       1.084   3.267  18.718  0.00  0.00    +0.000 C 
ATOM     28  C   UNL     1       1.663   4.323  17.776  0.00  0.00    +0.000 C 
ENDBRANCH  19  22
ENDBRANCH   4  16
TORSDOF 3
ENDMDL
MODEL 9
REMARK VINA RESULT:      -8.0      1.282      1.537
REMARK  Name = 
REMARK  4 active torsions:
REMARK  status: ('A' for Active; 'I' for Inactive)
REMARK    1  A    between atoms: C_1  and  C_2
REMARK    2  A    between atoms: C_4  and  C_5
REMARK    3  A    between atoms: C_8  and  C_9
REMARK    4  A    between atoms: C_19  and  C_20
REMARK                            x       y       z     vdW  Elec       q    Type
REMARK                         _______ _______ _______ _____ _____    ______ ____
ROOT
ATOM      1  C   UNL     1       0.749  13.836  20.846  0.00  0.00    +0.000 C 
ATOM      2  C   UNL     1       0.349  12.413  20.686  0.00  0.00    +0.000 A 
ATOM      3  N   UNL     1       1.316  11.518  20.245  0.00  0.00    +0.000 NA
ATOM      4  C   UNL     1       0.803  10.316  20.090  0.00  0.00    +0.000 A 
ATOM      5  S   UNL     1      -0.838  10.174  20.568  0.00  0.00    +0.000 S 
ATOM      6  C   UNL     1      -0.899  11.856  20.935  0.00  0.00    +0.000 A 
ENDROOT
BRANCH   6   7
ATOM      7  C   UNL     1      -2.152  12.474  21.386  0.00  0.00    +0.000 A 
ATOM      8  C   UNL     1      -2.832  13.412  20.637  0.00  0.00    +0.000 A 
ATOM      9  C   UNL     1      -3.952  13.943  21.223  0.00  0.00    +0.000 A 
ATOM     10  N   UNL     1      -4.395  13.577  22.437  0.00  0.00    +0.000 NA
ATOM     11  C   UNL     1      -3.694  12.632  23.067  0.00  0.00    +0.000 A 
ATOM     12  N   UNL     1      -4.139  12.244  24.313  0.00  0.00    +0.000 N 
ATOM     13  N   UNL     1      -2.577  12.071  22.601  0.00  0.00    +0.000 NA
ATOM     14  H   UNL     1      -4.688  12.984  24.721  0.00  0.00    +0.000 HD
ATOM     15  H   UNL     1      -3.368  11.883  24.858  0.00  0.00    +0.000 HD
ENDBRANCH   6   7
BRANCH   4  16
ATOM     16  C   UNL     1       1.548   9.162  19.561  0.00  0.00    +0.000 A 
ATOM     17  C   UNL     1       2.000   9.188  18.234  0.00  0.00    +0.000 A 
ATOM     18  C   UNL     1       2.637   8.079  17.669  0.00  0.00    +0.000 A 
ATOM     19  C   UNL     1       2.824   6.918  18.423  0.00  0.00    +0.000 A 
ATOM     20  C   UNL     1       2.404   6.886  19.753  0.00  0.00    +0.000 A 
ATOM     21  C   UNL     1       1.771   7.999  20.317  0.00  0.00    +0.000 A 
BRANCH  19  22
ATOM     22  C   UNL     1       3.426   5.736  17.808  0.00  0.00    +0.000 C 
ATOM     23  C   UNL     1       2.792   4.572  17.586  0.00  0.00    +0.000 C 
ATOM     24  C   UNL     1       3.527   3.376  17.026  0.00  0.00    +0.000 C 
ATOM     25  C   UNL     1       3.440   2.203  18.003  0.00  0.00    +0.000 C 
ATOM     26  C   UNL     1       1.995   1.888  18.396  0.00  0.00    +0.000 C 
ATOM     27  C   UNL     1       1.257   3.128  18.905  0.00  0.00    +0.000 C 
ATOM     28  C   UNL     1       1.345   4.285  17.909  0.00  0.00    +0.000 C 
ENDBRANCH  19  22
ENDBRANCH   4  16
TORSDOF 3
ENDMDL
