MODEL 1
REMARK VINA RESULT:      -7.5      0.000      0.000
REMARK  Name = 
REMARK  5 active torsions:
REMARK  status: ('A' for Active; 'I' for Inactive)
REMARK    1  A    between atoms: C_1  and  C_2
REMARK    2  A    between atoms: C_5  and  C_6
REMARK    3  A    between atoms: C_6  and  C_7
REMARK    4  A    between atoms: C_6  and  C_8
REMARK    5  A    between atoms: C_17  and  C_18
REMARK                            x       y       z     vdW  Elec       q    Type
REMARK                         _______ _______ _______ _____ _____    ______ ____
ROOT
ATOM      1  C   UNL     1       5.884   5.730  17.880  0.00  0.00    +0.000 C 
ATOM      2  C   UNL     1       7.214   5.345  18.557  0.00  0.00    +0.000 C 
ENDROOT
BRANCH   1   3
ATOM      3  C   UNL     1       5.970   5.366  16.405  0.00  0.00    +0.000 A 
ATOM      4  N   UNL     1       6.939   5.793  15.617  0.00  0.00    +0.000 NA
ATOM      5  C   UNL     1       6.890   5.135  14.397  0.00  0.00    +0.000 A 
ATOM      6  C   UNL     1       7.815   5.282  13.340  0.00  0.00    +0.000 A 
ATOM      7  C   UNL     1       7.673   4.514  12.179  0.00  0.00    +0.000 A 
ATOM      8  C   UNL     1       6.617   3.612  12.056  0.00  0.00    +0.000 A 
ATOM      9  C   UNL     1       5.678   3.464  13.082  0.00  0.00    +0.000 A 
ATOM     10  C   UNL     1       5.842   4.230  14.248  0.00  0.00    +0.000 A 
ATOM     11  S   UNL     1       4.888   4.239  15.679  0.00  0.00    +0.000 S 
ENDBRANCH   1   3
BRANCH   1  16
ATOM     12  C   UNL     1       1.193   3.609  20.717  0.00  0.00    +0.000 C 
ATOM     13  C   UNL     1       2.387   4.152  19.987  0.00  0.00    +0.000 A 
ATOM     14  C   UNL     1       3.581   3.442  19.946  0.00  0.00    +0.000 A 
ATOM     15  C   UNL     1       4.686   3.960  19.270  0.00  0.00    +0.000 A 
ATOM     16  C   UNL     1       4.641   5.208  18.611  0.00  0.00    +0.000 A 
ATOM     17  C   UNL     1       3.421   5.925  18.637  0.00  0.00    +0.000 A 
ATOM     18  C   UNL     1       3.228   7.273  17.994  0.00  0.00    +0.000 C 
ATOM     19  C   UNL     1       2.318   5.391  19.338  0.00  0.00    +0.000 A 
ENDBRANCH   1  16
TORSDOF 2
ENDMDL
MODEL 2
REMARK VINA RESULT:      -7.1      1.401      1.790
REMARK  Name = 
REMARK  5 active torsions:
REMARK  status: ('A' for Active; 'I' for Inactive)
REMARK    1  A    between atoms: C_1  and  C_2
REMARK    2  A    between atoms: C_5  and  C_6
REMARK    3  A    between atoms: C_6  and  C_7
REMARK    4  A    between atoms: C_6  and  C_8
REMARK    5  A    between atoms: C_17  and  C_18
REMARK                            x       y       z     vdW  Elec       q    Type
REMARK                         _______ _______ _______ _____ _____    ______ ____
ROOT
ATOM      1  C   UNL     1       5.204   5.210  17.844  0.00  0.00    +0.000 C 
ATOM      2  C   UNL     1       6.289   5.111  18.934  0.00  0.00    +0.000 C 
ENDROOT
BRANCH   1   3
ATOM      3  C   UNL     1       5.839   4.887  16.500  0.00  0.00    +0.000 A 
ATOM      4  N   UNL     1       5.283   4.072  15.622  0.00  0.00    +0.000 NA
ATOM      5  C   UNL     1       5.960   4.136  14.414  0.00  0.00    +0.000 A 
ATOM      6  C   UNL     1       5.600   3.459  13.227  0.00  0.00    +0.000 A 
ATOM      7  C   UNL     1       6.345   3.656  12.059  0.00  0.00    +0.000 A 
ATOM      8  C   UNL     1       7.448   4.508  12.064  0.00  0.00    +0.000 A 
ATOM      9  C   UNL     1       7.835   5.174  13.232  0.00  0.00    +0.000 A 
ATOM     10  C   UNL     1       7.068   4.979  14.392  0.00  0.00    +0.000 A 
ATOM     11  S   UNL     1       7.265   5.681  15.949  0.00  0.00    +0.000 S 
ENDBRANCH   1   3
BRANCH   1  16
ATOM     12  C   UNL     1       0.384   2.082  19.086  0.00  0.00    +0.000 C 
ATOM     13  C   UNL     1       1.611   2.884  18.764  0.00  0.00    +0.000 A 
ATOM     14  C   UNL     1       2.856   2.272  18.661  0.00  0.00    +0.000 A 
ATOM     15  C   UNL     1       3.990   3.030  18.367  0.00  0.00    +0.000 A 
ATOM     16  C   UNL     1       3.926   4.425  18.168  0.00  0.00    +0.000 A 
ATOM     17  C   UNL     1       2.658   5.047  18.256  0.00  0.00    +0.000 A 
ATOM     18  C   UNL     1       2.437   6.527  18.084  0.00  0.00    +0.000 C 
ATOM     19  C   UNL     1       1.524   4.267  18.568  0.00  0.00    +0.000 A 
ENDBRANCH   1  16
TORSDOF 2
ENDMDL
MODEL 3
REMARK VINA RESULT:      -6.8      2.670      6.299
REMARK  Name = 
REMARK  5 active torsions:
REMARK  status: ('A' for Active; 'I' for Inactive)
REMARK    1  A    between atoms: C_1  and  C_2
REMARK    2  A    between atoms: C_5  and  C_6
REMARK    3  A    between atoms: C_6  and  C_7
REMARK    4  A    between atoms: C_6  and  C_8
REMARK    5  A    between atoms: C_17  and  C_18
REMARK                            x       y       z     vdW  Elec       q    Type
REMARK                         _______ _______ _______ _____ _____    ______ ____
ROOT
ATOM      1  C   UNL     1       5.025   4.315  16.658  0.00  0.00    +0.000 C 
ATOM      2  C   UNL     1       5.768   3.105  16.058  0.00  0.00    +0.000 C 
ENDROOT
BRANCH   1   3
ATOM      3  C   UNL     1       4.042   3.809  17.702  0.00  0.00    +0.000 A 
ATOM      4  N   UNL     1       4.424   3.211  18.816  0.00  0.00    +0.000 NA
ATOM      5  C   UNL     1       3.344   3.057  19.673  0.00  0.00    +0.000 A 
ATOM      6  C   UNL     1       3.395   2.529  20.982  0.00  0.00    +0.000 A 
ATOM      7  C   UNL     1       2.232   2.481  21.759  0.00  0.00    +0.000 A 
ATOM      8  C   UNL     1       1.022   2.940  21.243  0.00  0.00    +0.000 A 
ATOM      9  C   UNL     1       0.944   3.449  19.943  0.00  0.00    +0.000 A 
ATOM     10  C   UNL     1       2.121   3.507  19.180  0.00  0.00    +0.000 A 
ATOM     11  S   UNL     1       2.350   4.110  17.586  0.00  0.00    +0.000 S 
ENDBRANCH   1   3
BRANCH   1  16
ATOM     12  C   UNL     1       8.650   8.542  18.541  0.00  0.00    +0.000 C 
ATOM     13  C   UNL     1       7.719   7.467  18.061  0.00  0.00    +0.000 A 
ATOM     14  C   UNL     1       7.860   6.155  18.500  0.00  0.00    +0.000 A 
ATOM     15  C   UNL     1       6.991   5.163  18.042  0.00  0.00    +0.000 A 
ATOM     16  C   UNL     1       5.953   5.443  17.128  0.00  0.00    +0.000 A 
ATOM     17  C   UNL     1       5.798   6.780  16.693  0.00  0.00    +0.000 A 
ATOM     18  C   UNL     1       4.748   7.226  15.709  0.00  0.00    +0.000 C 
ATOM     19  C   UNL     1       6.695   7.768  17.157  0.00  0.00    +0.000 A 
ENDBRANCH   1  16
TORSDOF 2
ENDMDL
MODEL 4
REMARK VINA RESULT:      -6.7      1.858      3.382
REMARK  Name = 
REMARK  5 active torsions:
REMARK  status: ('A' for Active; 'I' for Inactive)
REMARK    1  A    between atoms: C_1  and  C_2
REMARK    2  A    between atoms: C_5  and  C_6
REMARK    3  A    between atoms: C_6  and  C_7
REMARK    4  A    between atoms: C_6  and  C_8
REMARK    5  A    between atoms: C_17  and  C_18
REMARK                            x       y       z     vdW  Elec       q    Type
REMARK                         _______ _______ _______ _____ _____    ______ ____
ROOT
ATOM      1  C   UNL     1       3.230   3.641  18.593  0.00  0.00    +0.000 C 
ATOM      2  C   UNL     1       2.152   2.739  17.962  0.00  0.00    +0.000 C 
ENDROOT
BRANCH   1   3
ATOM      3  C   UNL     1       4.359   3.820  17.589  0.00  0.00    +0.000 A 
ATOM      4  N   UNL     1       4.213   3.582  16.298  0.00  0.00    +0.000 NA
ATOM      5  C   UNL     1       5.322   4.035  15.599  0.00  0.00    +0.000 A 
ATOM      6  C   UNL     1       5.480   4.016  14.196  0.00  0.00    +0.000 A 
ATOM      7  C   UNL     1       6.634   4.557  13.618  0.00  0.00    +0.000 A 
ATOM      8  C   UNL     1       7.634   5.103  14.421  0.00  0.00    +0.000 A 
ATOM      9  C   UNL     1       7.508   5.114  15.814  0.00  0.00    +0.000 A 
ATOM     10  C   UNL     1       6.338   4.583  16.379  0.00  0.00    +0.000 A 
ATOM     11  S   UNL     1       5.880   4.494  18.034  0.00  0.00    +0.000 S 
ENDBRANCH   1   3
BRANCH   1  16
ATOM     12  C   UNL     1       1.157   8.690  20.775  0.00  0.00    +0.000 C 
ATOM     13  C   UNL     1       1.689   7.399  20.224  0.00  0.00    +0.000 A 
ATOM     14  C   UNL     1       2.245   7.344  18.951  0.00  0.00    +0.000 A 
ATOM     15  C   UNL     1       2.731   6.137  18.447  0.00  0.00    +0.000 A 
ATOM     16  C   UNL     1       2.679   4.940  19.194  0.00  0.00    +0.000 A 
ATOM     17  C   UNL     1       2.129   4.998  20.496  0.00  0.00    +0.000 A 
ATOM     18  C   UNL     1       1.991   3.802  21.402  0.00  0.00    +0.000 C 
ATOM     19  C   UNL     1       1.629   6.226  20.983  0.00  0.00    +0.000 A 
ENDBRANCH   1  16
TORSDOF 2
ENDMDL
MODEL 5
REMARK VINA RESULT:      -6.6      2.206      6.597
REMARK  Name = 
REMARK  5 active torsions:
REMARK  status: ('A' for Active; 'I' for Inactive)
REMARK    1  A    between atoms: C_1  and  C_2
REMARK    2  A    between atoms: C_5  and  C_6
REMARK    3  A    between atoms: C_6  and  C_7
REMARK    4  A    between atoms: C_6  and  C_8
REMARK    5  A    between atoms: C_17  and  C_18
REMARK                            x       y       z     vdW  Elec       q    Type
REMARK                         _______ _______ _______ _____ _____    ______ ____
ROOT
ATOM      1  C   UNL     1       4.211   4.373  17.943  0.00  0.00    +0.000 C 
ATOM      2  C   UNL     1       4.819   3.600  19.129  0.00  0.00    +0.000 C 
ENDROOT
BRANCH   1   3
ATOM      3  C   UNL     1       3.579   5.652  18.472  0.00  0.00    +0.000 A 
ATOM      4  N   UNL     1       3.413   6.730  17.728  0.00  0.00    +0.000 NA
ATOM      5  C   UNL     1       2.623   7.655  18.394  0.00  0.00    +0.000 A 
ATOM      6  C   UNL     1       2.176   8.889  17.872  0.00  0.00    +0.000 A 
ATOM      7  C   UNL     1       1.335   9.705  18.637  0.00  0.00    +0.000 A 
ATOM      8  C   UNL     1       0.947   9.311  19.917  0.00  0.00    +0.000 A 
ATOM      9  C   UNL     1       1.393   8.103  20.461  0.00  0.00    +0.000 A 
ATOM     10  C   UNL     1       2.222   7.287  19.676  0.00  0.00    +0.000 A 
ATOM     11  S   UNL     1       2.889   5.746  20.048  0.00  0.00    +0.000 S 
ENDBRANCH   1   3
BRANCH   1  16
ATOM     12  C   UNL     1       7.806   5.027  13.338  0.00  0.00    +0.000 C 
ATOM     13  C   UNL     1       6.893   4.857  14.518  0.00  0.00    +0.000 A 
ATOM     14  C   UNL     1       5.636   4.282  14.369  0.00  0.00    +0.000 A 
ATOM     15  C   UNL     1       4.794   4.135  15.473  0.00  0.00    +0.000 A 
ATOM     16  C   UNL     1       5.174   4.560  16.764  0.00  0.00    +0.000 A 
ATOM     17  C   UNL     1       6.459   5.131  16.920  0.00  0.00    +0.000 A 
ATOM     18  C   UNL     1       6.995   5.644  18.231  0.00  0.00    +0.000 C 
ATOM     19  C   UNL     1       7.292   5.284  15.790  0.00  0.00    +0.000 A 
ENDBRANCH   1  16
TORSDOF 2
ENDMDL
MODEL 6
REMARK VINA RESULT:      -6.6      1.740      6.715
REMARK  Name = 
REMARK  5 active torsions:
REMARK  status: ('A' for Active; 'I' for Inactive)
REMARK    1  A    between atoms: C_1  and  C_2
REMARK    2  A    between atoms: C_5  and  C_6
REMARK    3  A    between atoms: C_6  and  C_7
REMARK    4  A    between atoms: C_6  and  C_8
REMARK    5  A    between atoms: C_17  and  C_18
REMARK                            x       y       z     vdW  Elec       q    Type
REMARK                         _______ _______ _______ _____ _____    ______ ____
ROOT
ATOM      1  C   UNL     1       4.954   6.129  17.706  0.00  0.00    +0.000 C 
ATOM      2  C   UNL     1       4.257   7.487  17.490  0.00  0.00    +0.000 C 
ENDROOT
BRANCH   1   3
ATOM      3  C   UNL     1       4.005   5.215  18.466  0.00  0.00    +0.000 A 
ATOM      4  N   UNL     1       4.423   4.195  19.193  0.00  0.00    +0.000 NA
ATOM      5  C   UNL     1       3.376   3.679  19.942  0.00  0.00    +0.000 A 
ATOM      6  C   UNL     1       3.471   2.635  20.889  0.00  0.00    +0.000 A 
ATOM      7  C   UNL     1       2.339   2.248  21.615  0.00  0.00    +0.000 A 
ATOM      8  C   UNL     1       1.116   2.881  21.401  0.00  0.00    +0.000 A 
ATOM      9  C   UNL     1       0.994   3.904  20.456  0.00  0.00    +0.000 A 
ATOM     10  C   UNL     1       2.141   4.292  19.745  0.00  0.00    +0.000 A 
ATOM     11  S   UNL     1       2.314   5.530  18.564  0.00  0.00    +0.000 S 
ENDBRANCH   1   3
BRANCH   1  16
ATOM     12  C   UNL     1       7.138   3.876  12.735  0.00  0.00    +0.000 C 
ATOM     13  C   UNL     1       6.582   4.445  14.008  0.00  0.00    +0.000 A 
ATOM     14  C   UNL     1       5.363   5.114  14.016  0.00  0.00    +0.000 A 
ATOM     15  C   UNL     1       4.859   5.645  15.205  0.00  0.00    +0.000 A 
ATOM     16  C   UNL     1       5.554   5.530  16.428  0.00  0.00    +0.000 A 
ATOM     17  C   UNL     1       6.786   4.835  16.424  0.00  0.00    +0.000 A 
ATOM     18  C   UNL     1       7.646   4.647  17.647  0.00  0.00    +0.000 C 
ATOM     19  C   UNL     1       7.287   4.317  15.210  0.00  0.00    +0.000 A 
ENDBRANCH   1  16
TORSDOF 2
ENDMDL
MODEL 7
REMARK VINA RESULT:      -6.5      1.432      2.940
REMARK  Name = 
REMARK  5 active torsions:
REMARK  status: ('A' for Active; 'I' for Inactive)
REMARK    1  A    between atoms: C_1  and  C_2
REMARK    2  A    between atoms: C_5  and  C_6
REMARK    3  A    between atoms: C_6  and  C_7
REMARK    4  A    between atoms: C_6  and  C_8
REMARK    5  A    between atoms: C_17  and  C_18
REMARK                            x       y       z     vdW  Elec       q    Type
REMARK                         _______ _______ _______ _____ _____    ______ ____
ROOT
ATOM      1  C   UNL     1       4.632   4.212  17.978  0.00  0.00    +0.000 C 
ATOM      2  C   UNL     1       3.797   2.917  17.972  0.00  0.00    +0.000 C 
ENDROOT
BRANCH   1   3
ATOM      3  C   UNL     1       5.475   4.250  16.712  0.00  0.00    +0.000 A 
ATOM      4  N   UNL     1       5.130   3.619  15.604  0.00  0.00    +0.000 NA
ATOM      5  C   UNL     1       5.956   4.003  14.558  0.00  0.00    +0.000 A 
ATOM      6  C   UNL     1       5.833   3.591  13.212  0.00  0.00    +0.000 A 
ATOM      7  C   UNL     1       6.706   4.101  12.245  0.00  0.00    +0.000 A 
ATOM      8  C   UNL     1       7.704   5.004  12.605  0.00  0.00    +0.000 A 
ATOM      9  C   UNL     1       7.857   5.412  13.934  0.00  0.00    +0.000 A 
ATOM     10  C   UNL     1       6.964   4.905  14.891  0.00  0.00    +0.000 A 
ATOM     11  S   UNL     1       6.873   5.245  16.574  0.00  0.00    +0.000 S 
ENDBRANCH   1   3
BRANCH   1  16
ATOM     12  C   UNL     1       1.540   9.122  18.916  0.00  0.00    +0.000 C 
ATOM     13  C   UNL     1       2.332   7.868  18.683  0.00  0.00    +0.000 A 
ATOM     14  C   UNL     1       3.115   7.722  17.544  0.00  0.00    +0.000 A 
ATOM     15  C   UNL     1       3.842   6.549  17.336  0.00  0.00    +0.000 A 
ATOM     16  C   UNL     1       3.812   5.478  18.255  0.00  0.00    +0.000 A 
ATOM     17  C   UNL     1       3.028   5.632  19.422  0.00  0.00    +0.000 A 
ATOM     18  C   UNL     1       2.886   4.571  20.482  0.00  0.00    +0.000 C 
ATOM     19  C   UNL     1       2.288   6.820  19.609  0.00  0.00    +0.000 A 
ENDBRANCH   1  16
TORSDOF 2
ENDMDL
MODEL 8
REMARK VINA RESULT:      -6.5      2.456      4.504
REMARK  Name = 
REMARK  5 active torsions:
REMARK  status: ('A' for Active; 'I' for Inactive)
REMARK    1  A    between atoms: C_1  and  C_2
REMARK    2  A    between atoms: C_5  and  C_6
REMARK    3  A    between atoms: C_6  and  C_7
REMARK    4  A    between atoms: C_6  and  C_8
REMARK    5  A    between atoms: C_17  and  C_18
REMARK                            x       y       z     vdW  Elec       q    Type
REMARK                         _______ _______ _______ _____ _____    ______ ____
ROOT
ATOM      1  C   UNL     1       2.659   5.841  19.560  0.00  0.00    +0.000 C 
ATOM      2  C   UNL     1       1.514   4.809  19.528  0.00  0.00    +0.000 C 
ENDROOT
BRANCH   1   3
ATOM      3  C   UNL     1       3.786   5.339  18.671  0.00  0.00    +0.000 A 
ATOM      4  N   UNL     1       3.588   4.905  17.439  0.00  0.00    +0.000 NA
ATOM      5  C   UNL     1       4.802   4.722  16.794  0.00  0.00    +0.000 A 
ATOM      6  C   UNL     1       4.974   4.339  15.445  0.00  0.00    +0.000 A 
ATOM      7  C   UNL     1       6.262   4.243  14.907  0.00  0.00    +0.000 A 
ATOM      8  C   UNL     1       7.377   4.511  15.699  0.00  0.00    +0.000 A 
ATOM      9  C   UNL     1       7.233   4.872  17.042  0.00  0.00    +0.000 A 
ATOM     10  C   UNL     1       5.934   4.981  17.565  0.00  0.00    +0.000 A 
ATOM     11  S   UNL     1       5.439   5.439  19.147  0.00  0.00    +0.000 S 
ENDBRANCH   1   3
BRANCH   1  16
ATOM     12  C   UNL     1       0.983  11.353  18.391  0.00  0.00    +0.000 C 
ATOM     13  C   UNL     1       1.413   9.947  18.696  0.00  0.00    +0.000 A 
ATOM     14  C   UNL     1       2.134   9.206  17.767  0.00  0.00    +0.000 A 
ATOM     15  C   UNL     1       2.523   7.897  18.060  0.00  0.00    +0.000 A 
ATOM     16  C   UNL     1       2.204   7.280  19.288  0.00  0.00    +0.000 A 
ATOM     17  C   UNL     1       1.485   8.040  20.241  0.00  0.00    +0.000 A 
ATOM     18  C   UNL     1       1.061   7.511  21.587  0.00  0.00    +0.000 C 
ATOM     19  C   UNL     1       1.088   9.356  19.922  0.00  0.00    +0.000 A 
ENDBRANCH   1  16
TORSDOF 2
ENDMDL
MODEL 9
REMARK VINA RESULT:      -6.5      1.876      6.664
REMARK  Name = 
REMARK  5 active torsions:
REMARK  status: ('A' for Active; 'I' for Inactive)
REMARK    1  A    between atoms: C_1  and  C_2
REMARK    2  A    between atoms: C_5  and  C_6
REMARK    3  A    between atoms: C_6  and  C_7
REMARK    4  A    between atoms: C_6  and  C_8
REMARK    5  A    between atoms: C_17  and  C_18
REMARK                            x       y       z     vdW  Elec       q    Type
REMARK                         _______ _______ _______ _____ _____    ______ ____
ROOT
ATOM      1  C   UNL     1       4.594   6.551  17.849  0.00  0.00    +0.000 C 
ATOM      2  C   UNL     1       3.475   7.539  17.466  0.00  0.00    +0.000 C 
ENDROOT
BRANCH   1   3
ATOM      3  C   UNL     1       4.041   5.566  18.868  0.00  0.00    +0.000 A 
ATOM      4  N   UNL     1       2.818   5.654  19.358  0.00  0.00    +0.000 NA
ATOM      5  C   UNL     1       2.510   4.514  20.086  0.00  0.00    +0.000 A 
ATOM      6  C   UNL     1       1.265   4.229  20.689  0.00  0.00    +0.000 A 
ATOM      7  C   UNL     1       1.075   3.011  21.351  0.00  0.00    +0.000 A 
ATOM      8  C   UNL     1       2.113   2.083  21.429  0.00  0.00    +0.000 A 
ATOM      9  C   UNL     1       3.360   2.352  20.856  0.00  0.00    +0.000 A 
ATOM     10  C   UNL     1       3.531   3.571  20.181  0.00  0.00    +0.000 A 
ATOM     11  S   UNL     1       4.916   4.163  19.351  0.00  0.00    +0.000 S 
ENDBRANCH   1   3
BRANCH   1  16
ATOM     12  C   UNL     1       7.182   4.063  13.195  0.00  0.00    +0.000 C 
ATOM     13  C   UNL     1       6.527   4.696  14.387  0.00  0.00    +0.000 A 
ATOM     14  C   UNL     1       5.165   4.539  14.619  0.00  0.00    +0.000 A 
ATOM     15  C   UNL     1       4.565   5.138  15.728  0.00  0.00    +0.000 A 
ATOM     16  C   UNL     1       5.302   5.917  16.645  0.00  0.00    +0.000 A 
ATOM     17  C   UNL     1       6.692   6.064  16.420  0.00  0.00    +0.000 A 
ATOM     18  C   UNL     1       7.602   6.878  17.303  0.00  0.00    +0.000 C 
ATOM     19  C   UNL     1       7.277   5.463  15.285  0.00  0.00    +0.000 A 
ENDBRANCH   1  16
TORSDOF 2
ENDMDL
