MODEL 1
REMARK VINA RESULT:      -6.8      0.000      0.000
REMARK  Name = 
REMARK  5 active torsions:
REMARK  status: ('A' for Active; 'I' for Inactive)
REMARK    1  A    between atoms: C_1  and  O_2
REMARK    2  A    between atoms: O_2  and  C_3
REMARK    3  A    between atoms: C_6  and  C_7
REMARK    4  A    between atoms: C_10  and  S_11
REMARK    5  A    between atoms: S_11  and  C_12
REMARK                            x       y       z     vdW  Elec       q    Type
REMARK                         _______ _______ _______ _____ _____    ______ ____
ROOT
ATOM      1  C   UNL     1       4.683   4.071  18.975  0.00  0.00    +0.000 C 
ATOM      2  N   UNL     1       5.112   3.145  19.773  0.00  0.00    +0.000 NA
ATOM      3  O   UNL     1       4.007   2.357  20.158  0.00  0.00    +0.000 OA
ATOM      4  C   UNL     1       2.881   2.714  19.345  0.00  0.00    +0.000 C 
ATOM      5  C   UNL     1       3.231   4.012  18.659  0.00  0.00    +0.000 C 
ENDROOT
BRANCH   1   9
ATOM      6  C   UNL     1       7.234   7.182  17.481  0.00  0.00    +0.000 A 
ATOM      7  C   UNL     1       7.677   6.309  18.475  0.00  0.00    +0.000 A 
ATOM      8  C   UNL     1       6.850   5.283  18.941  0.00  0.00    +0.000 A 
ATOM      9  C   UNL     1       5.557   5.135  18.426  0.00  0.00    +0.000 A 
ATOM     10  C   UNL     1       5.109   6.015  17.433  0.00  0.00    +0.000 A 
ATOM     11  C   UNL     1       5.946   7.035  16.964  0.00  0.00    +0.000 A 
BRANCH   6  13
ATOM     12  C   UNL     1       8.225   9.258  18.034  0.00  0.00    +0.000 C 
ATOM     13  O   UNL     1       8.120   8.163  17.133  0.00  0.00    +0.000 OA
ENDBRANCH   6  13
ENDBRANCH   1   9
BRANCH   4  14
ATOM     14  S   UNL     1       1.341   2.848  20.251  0.00  0.00    +0.000 S 
ATOM     15  C   UNL     1       1.180   4.597  20.508  0.00  0.00    +0.000 C 
ATOM     16  O   UNL     1       0.245   2.416  19.407  0.00  0.00    +0.000 OA
ATOM     17  O   UNL     1       1.544   2.236  21.554  0.00  0.00    +0.000 OA
ENDBRANCH   4  14
TORSDOF 3
ENDMDL
MODEL 2
REMARK VINA RESULT:      -6.8      0.185      1.185
REMARK  Name = 
REMARK  5 active torsions:
REMARK  status: ('A' for Active; 'I' for Inactive)
REMARK    1  A    between atoms: C_1  and  O_2
REMARK    2  A    between atoms: O_2  and  C_3
REMARK    3  A    between atoms: C_6  and  C_7
REMARK    4  A    between atoms: C_10  and  S_11
REMARK    5  A    between atoms: S_11  and  C_12
REMARK                            x       y       z     vdW  Elec       q    Type
REMARK                         _______ _______ _______ _____ _____    ______ ____
ROOT
ATOM      1  C   UNL     1       4.713   4.119  18.986  0.00  0.00    +0.000 C 
ATOM      2  N   UNL     1       5.099   3.109  19.700  0.00  0.00    +0.000 NA
ATOM      3  O   UNL     1       3.967   2.314  19.976  0.00  0.00    +0.000 OA
ATOM      4  C   UNL     1       2.872   2.777  19.173  0.00  0.00    +0.000 C 
ATOM      5  C   UNL     1       3.270   4.127  18.629  0.00  0.00    +0.000 C 
ENDROOT
BRANCH   1   9
ATOM      6  C   UNL     1       7.337   7.254  17.680  0.00  0.00    +0.000 A 
ATOM      7  C   UNL     1       6.042   7.146  17.171  0.00  0.00    +0.000 A 
ATOM      8  C   UNL     1       5.185   6.136  17.617  0.00  0.00    +0.000 A 
ATOM      9  C   UNL     1       5.626   5.210  18.569  0.00  0.00    +0.000 A 
ATOM     10  C   UNL     1       6.928   5.314  19.076  0.00  0.00    +0.000 A 
ATOM     11  C   UNL     1       7.779   6.334  18.631  0.00  0.00    +0.000 A 
BRANCH   6  13
ATOM     12  C   UNL     1       8.286   9.402  17.966  0.00  0.00    +0.000 C 
ATOM     13  O   UNL     1       8.090   8.260  17.142  0.00  0.00    +0.000 OA
ENDBRANCH   6  13
ENDBRANCH   1   9
BRANCH   4  14
ATOM     14  S   UNL     1       1.311   2.859  20.048  0.00  0.00    +0.000 S 
ATOM     15  C   UNL     1       1.091   4.601  20.312  0.00  0.00    +0.000 C 
ATOM     16  O   UNL     1       0.245   2.400  19.179  0.00  0.00    +0.000 OA
ATOM     17  O   UNL     1       1.505   2.245  21.351  0.00  0.00    +0.000 OA
ENDBRANCH   4  14
TORSDOF 3
ENDMDL
MODEL 3
REMARK VINA RESULT:      -6.7      1.995      2.584
REMARK  Name = 
REMARK  5 active torsions:
REMARK  status: ('A' for Active; 'I' for Inactive)
REMARK    1  A    between atoms: C_1  and  O_2
REMARK    2  A    between atoms: O_2  and  C_3
REMARK    3  A    between atoms: C_6  and  C_7
REMARK    4  A    between atoms: C_10  and  S_11
REMARK    5  A    between atoms: S_11  and  C_12
REMARK                            x       y       z     vdW  Elec       q    Type
REMARK                         _______ _______ _______ _____ _____    ______ ____
ROOT
ATOM      1  C   UNL     1       4.504   3.433  18.520  0.00  0.00    +0.000 C 
ATOM      2  N   UNL     1       4.965   3.092  19.682  0.00  0.00    +0.000 NA
ATOM      3  O   UNL     1       3.885   2.615  20.456  0.00  0.00    +0.000 OA
ATOM      4  C   UNL     1       2.742   2.457  19.603  0.00  0.00    +0.000 C 
ATOM      5  C   UNL     1       3.051   3.186  18.319  0.00  0.00    +0.000 C 
ENDROOT
BRANCH   1   9
ATOM      6  C   UNL     1       6.926   5.130  15.411  0.00  0.00    +0.000 A 
ATOM      7  C   UNL     1       5.679   4.575  15.124  0.00  0.00    +0.000 A 
ATOM      8  C   UNL     1       4.884   4.044  16.144  0.00  0.00    +0.000 A 
ATOM      9  C   UNL     1       5.344   4.048  17.466  0.00  0.00    +0.000 A 
ATOM     10  C   UNL     1       6.599   4.600  17.755  0.00  0.00    +0.000 A 
ATOM     11  C   UNL     1       7.385   5.139  16.728  0.00  0.00    +0.000 A 
BRANCH   6  13
ATOM     12  C   UNL     1       7.422   4.875  13.112  0.00  0.00    +0.000 C 
ATOM     13  O   UNL     1       7.622   5.586  14.327  0.00  0.00    +0.000 OA
ENDBRANCH   6  13
ENDBRANCH   1   9
BRANCH   4  14
ATOM     14  S   UNL     1       1.208   3.030  20.328  0.00  0.00    +0.000 S 
ATOM     15  C   UNL     1       1.436   4.789  20.408  0.00  0.00    +0.000 C 
ATOM     16  O   UNL     1       0.113   2.762  19.417  0.00  0.00    +0.000 OA
ATOM     17  O   UNL     1       1.157   2.538  21.694  0.00  0.00    +0.000 OA
ENDBRANCH   4  14
TORSDOF 3
ENDMDL
MODEL 4
REMARK VINA RESULT:      -6.6      2.137      2.456
REMARK  Name = 
REMARK  5 active torsions:
REMARK  status: ('A' for Active; 'I' for Inactive)
REMARK    1  A    between atoms: C_1  and  O_2
REMARK    2  A    between atoms: O_2  and  C_3
REMARK    3  A    between atoms: C_6  and  C_7
REMARK    4  A    between atoms: C_10  and  S_11
REMARK    5  A    between atoms: S_11  and  C_12
REMARK                            x       y       z     vdW  Elec       q    Type
REMARK                         _______ _______ _______ _____ _____    ______ ____
ROOT
ATOM      1  C   UNL     1       4.609   3.472  18.360  0.00  0.00    +0.000 C 
ATOM      2  N   UNL     1       5.089   3.349  19.556  0.00  0.00    +0.000 NA
ATOM      3  O   UNL     1       4.045   2.919  20.402  0.00  0.00    +0.000 OA
ATOM      4  C   UNL     1       2.920   2.548  19.592  0.00  0.00    +0.000 C 
ATOM      5  C   UNL     1       3.179   3.092  18.209  0.00  0.00    +0.000 C 
ENDROOT
BRANCH   1   9
ATOM      6  C   UNL     1       6.936   5.024  15.105  0.00  0.00    +0.000 A 
ATOM      7  C   UNL     1       7.456   4.980  16.399  0.00  0.00    +0.000 A 
ATOM      8  C   UNL     1       6.702   4.452  17.450  0.00  0.00    +0.000 A 
ATOM      9  C   UNL     1       5.406   3.979  17.217  0.00  0.00    +0.000 A 
ATOM     10  C   UNL     1       4.880   4.028  15.919  0.00  0.00    +0.000 A 
ATOM     11  C   UNL     1       5.645   4.550  14.868  0.00  0.00    +0.000 A 
BRANCH   6  13
ATOM     12  C   UNL     1       7.630   5.091  12.844  0.00  0.00    +0.000 C 
ATOM     13  O   UNL     1       7.755   5.592  14.169  0.00  0.00    +0.000 OA
ENDBRANCH   6  13
ENDBRANCH   1   9
BRANCH   4  14
ATOM     14  S   UNL     1       1.345   3.111  20.232  0.00  0.00    +0.000 S 
ATOM     15  C   UNL     1       1.572   4.867  20.363  0.00  0.00    +0.000 C 
ATOM     16  O   UNL     1       0.308   2.867  19.249  0.00  0.00    +0.000 OA
ATOM     17  O   UNL     1       1.208   2.591  21.582  0.00  0.00    +0.000 OA
ENDBRANCH   4  14
TORSDOF 3
ENDMDL
MODEL 5
REMARK VINA RESULT:      -6.6      2.301      2.811
REMARK  Name = 
REMARK  5 active torsions:
REMARK  status: ('A' for Active; 'I' for Inactive)
REMARK    1  A    between atoms: C_1  and  O_2
REMARK    2  A    between atoms: O_2  and  C_3
REMARK    3  A    between atoms: C_6  and  C_7
REMARK    4  A    between atoms: C_10  and  S_11
REMARK    5  A    between atoms: S_11  and  C_12
REMARK                            x       y       z     vdW  Elec       q    Type
REMARK                         _______ _______ _______ _____ _____    ______ ____
ROOT
ATOM      1  C   UNL     1       4.602   3.605  18.163  0.00  0.00    +0.000 C 
ATOM      2  N   UNL     1       5.041   3.317  19.347  0.00  0.00    +0.000 NA
ATOM      3  O   UNL     1       3.952   2.847  20.112  0.00  0.00    +0.000 OA
ATOM      4  C   UNL     1       2.834   2.634  19.238  0.00  0.00    +0.000 C 
ATOM      5  C   UNL     1       3.161   3.321  17.935  0.00  0.00    +0.000 C 
ENDROOT
BRANCH   1   9
ATOM      6  C   UNL     1       7.113   5.229  15.085  0.00  0.00    +0.000 A 
ATOM      7  C   UNL     1       6.306   4.118  14.838  0.00  0.00    +0.000 A 
ATOM      8  C   UNL     1       5.474   3.608  15.837  0.00  0.00    +0.000 A 
ATOM      9  C   UNL     1       5.457   4.198  17.106  0.00  0.00    +0.000 A 
ATOM     10  C   UNL     1       6.271   5.309  17.358  0.00  0.00    +0.000 A 
ATOM     11  C   UNL     1       7.096   5.821  16.348  0.00  0.00    +0.000 A 
BRANCH   6  13
ATOM     12  C   UNL     1       7.589   5.051  12.774  0.00  0.00    +0.000 C 
ATOM     13  O   UNL     1       7.907   5.614  14.041  0.00  0.00    +0.000 OA
ENDBRANCH   6  13
ENDBRANCH   1   9
BRANCH   4  14
ATOM     14  S   UNL     1       1.271   3.202  19.904  0.00  0.00    +0.000 S 
ATOM     15  C   UNL     1       1.334   2.656  21.592  0.00  0.00    +0.000 C 
ATOM     16  O   UNL     1       1.243   4.651  19.903  0.00  0.00    +0.000 OA
ATOM     17  O   UNL     1       0.215   2.451  19.246  0.00  0.00    +0.000 OA
ENDBRANCH   4  14
TORSDOF 3
ENDMDL
MODEL 6
REMARK VINA RESULT:      -6.5      2.421      2.801
REMARK  Name = 
REMARK  5 active torsions:
REMARK  status: ('A' for Active; 'I' for Inactive)
REMARK    1  A    between atoms: C_1  and  O_2
REMARK    2  A    between atoms: O_2  and  C_3
REMARK    3  A    between atoms: C_6  and  C_7
REMARK    4  A    between atoms: C_10  and  S_11
REMARK    5  A    between atoms: S_11  and  C_12
REMARK                            x       y       z     vdW  Elec       q    Type
REMARK                         _______ _______ _______ _____ _____    ______ ____
ROOT
ATOM      1  C   UNL     1       4.648   3.559  18.057  0.00  0.00    +0.000 C 
ATOM      2  N   UNL     1       5.071   3.501  19.280  0.00  0.00    +0.000 NA
ATOM      3  O   UNL     1       3.995   3.087  20.093  0.00  0.00    +0.000 OA
ATOM      4  C   UNL     1       2.919   2.654  19.247  0.00  0.00    +0.000 C 
ATOM      5  C   UNL     1       3.236   3.140  17.855  0.00  0.00    +0.000 C 
ENDROOT
BRANCH   1   9
ATOM      6  C   UNL     1       7.076   5.021  14.834  0.00  0.00    +0.000 A 
ATOM      7  C   UNL     1       7.364   5.358  16.157  0.00  0.00    +0.000 A 
ATOM      8  C   UNL     1       6.583   4.860  17.204  0.00  0.00    +0.000 A 
ATOM      9  C   UNL     1       5.490   4.031  16.931  0.00  0.00    +0.000 A 
ATOM     10  C   UNL     1       5.195   3.697  15.603  0.00  0.00    +0.000 A 
ATOM     11  C   UNL     1       5.988   4.192  14.560  0.00  0.00    +0.000 A 
BRANCH   6  13
ATOM     12  C   UNL     1       7.708   5.155  12.558  0.00  0.00    +0.000 C 
ATOM     13  O   UNL     1       7.890   5.595  13.898  0.00  0.00    +0.000 OA
ENDBRANCH   6  13
ENDBRANCH   1   9
BRANCH   4  14
ATOM     14  S   UNL     1       1.303   3.210  19.783  0.00  0.00    +0.000 S 
ATOM     15  C   UNL     1       1.273   2.757  21.500  0.00  0.00    +0.000 C 
ATOM     16  O   UNL     1       1.237   4.655  19.701  0.00  0.00    +0.000 OA
ATOM     17  O   UNL     1       0.310   2.394  19.104  0.00  0.00    +0.000 OA
ENDBRANCH   4  14
TORSDOF 3
ENDMDL
MODEL 7
REMARK VINA RESULT:      -6.5      2.281      3.017
REMARK  Name = 
REMARK  5 active torsions:
REMARK  status: ('A' for Active; 'I' for Inactive)
REMARK    1  A    between atoms: C_1  and  O_2
REMARK    2  A    between atoms: O_2  and  C_3
REMARK    3  A    between atoms: C_6  and  C_7
REMARK    4  A    between atoms: C_10  and  S_11
REMARK    5  A    between atoms: S_11  and  C_12
REMARK                            x       y       z     vdW  Elec       q    Type
REMARK                         _______ _______ _______ _____ _____    ______ ____
ROOT
ATOM      1  C   UNL     1       4.192   5.021  18.855  0.00  0.00    +0.000 C 
ATOM      2  N   UNL     1       3.513   6.040  19.276  0.00  0.00    +0.000 NA
ATOM      3  O   UNL     1       2.610   5.585  20.260  0.00  0.00    +0.000 OA
ATOM      4  C   UNL     1       2.942   4.231  20.598  0.00  0.00    +0.000 C 
ATOM      5  C   UNL     1       3.885   3.732  19.531  0.00  0.00    +0.000 C 
ENDROOT
BRANCH   1   9
ATOM      6  C   UNL     1       7.015   5.227  15.629  0.00  0.00    +0.000 A 
ATOM      7  C   UNL     1       5.696   5.649  15.455  0.00  0.00    +0.000 A 
ATOM      8  C   UNL     1       4.788   5.601  16.516  0.00  0.00    +0.000 A 
ATOM      9  C   UNL     1       5.190   5.109  17.762  0.00  0.00    +0.000 A 
ATOM     10  C   UNL     1       6.511   4.678  17.937  0.00  0.00    +0.000 A 
ATOM     11  C   UNL     1       7.419   4.738  16.871  0.00  0.00    +0.000 A 
BRANCH   6  13
ATOM     12  C   UNL     1       7.219   4.787  13.313  0.00  0.00    +0.000 C 
ATOM     13  O   UNL     1       7.797   5.291  14.510  0.00  0.00    +0.000 OA
ENDBRANCH   6  13
ENDBRANCH   1   9
BRANCH   4  14
ATOM     14  S   UNL     1       1.521   3.154  20.771  0.00  0.00    +0.000 S 
ATOM     15  C   UNL     1       1.795   1.926  19.518  0.00  0.00    +0.000 C 
ATOM     16  O   UNL     1       1.568   2.495  22.061  0.00  0.00    +0.000 OA
ATOM     17  O   UNL     1       0.344   3.913  20.382  0.00  0.00    +0.000 OA
ENDBRANCH   4  14
TORSDOF 3
ENDMDL
MODEL 8
REMARK VINA RESULT:      -6.5      4.271      5.975
REMARK  Name = 
REMARK  5 active torsions:
REMARK  status: ('A' for Active; 'I' for Inactive)
REMARK    1  A    between atoms: C_1  and  O_2
REMARK    2  A    between atoms: O_2  and  C_3
REMARK    3  A    between atoms: C_6  and  C_7
REMARK    4  A    between atoms: C_10  and  S_11
REMARK    5  A    between atoms: S_11  and  C_12
REMARK                            x       y       z     vdW  Elec       q    Type
REMARK                         _______ _______ _______ _____ _____    ______ ____
ROOT
ATOM      1  C   UNL     1       3.623   6.046  18.037  0.00  0.00    +0.000 C 
ATOM      2  N   UNL     1       3.172   4.944  17.528  0.00  0.00    +0.000 NA
ATOM      3  O   UNL     1       4.276   4.187  17.082  0.00  0.00    +0.000 OA
ATOM      4  C   UNL     1       5.479   4.796  17.570  0.00  0.00    +0.000 C 
ATOM      5  C   UNL     1       5.104   6.173  18.059  0.00  0.00    +0.000 C 
ENDROOT
BRANCH   1   9
ATOM      6  C   UNL     1       1.137   9.236  19.471  0.00  0.00    +0.000 A 
ATOM      7  C   UNL     1       1.642   9.252  18.170  0.00  0.00    +0.000 A 
ATOM      8  C   UNL     1       2.432   8.199  17.702  0.00  0.00    +0.000 A 
ATOM      9  C   UNL     1       2.740   7.124  18.543  0.00  0.00    +0.000 A 
ATOM     10  C   UNL     1       2.239   7.110  19.851  0.00  0.00    +0.000 A 
ATOM     11  C   UNL     1       1.440   8.165  20.311  0.00  0.00    +0.000 A 
BRANCH   6  13
ATOM     12  C   UNL     1       1.130  11.555  19.944  0.00  0.00    +0.000 C 
ATOM     13  O   UNL     1       0.406  10.337  19.823  0.00  0.00    +0.000 OA
ENDBRANCH   6  13
ENDBRANCH   1   9
BRANCH   4  14
ATOM     14  S   UNL     1       6.801   4.867  16.364  0.00  0.00    +0.000 S 
ATOM     15  C   UNL     1       6.225   3.789  15.076  0.00  0.00    +0.000 C 
ATOM     16  O   UNL     1       6.889   6.207  15.820  0.00  0.00    +0.000 OA
ATOM     17  O   UNL     1       7.972   4.242  16.958  0.00  0.00    +0.000 OA
ENDBRANCH   4  14
TORSDOF 3
ENDMDL
MODEL 9
REMARK VINA RESULT:      -6.4      4.257      5.993
REMARK  Name = 
REMARK  5 active torsions:
REMARK  status: ('A' for Active; 'I' for Inactive)
REMARK    1  A    between atoms: C_1  and  O_2
REMARK    2  A    between atoms: O_2  and  C_3
REMARK    3  A    between atoms: C_6  and  C_7
REMARK    4  A    between atoms: C_10  and  S_11
REMARK    5  A    between atoms: S_11  and  C_12
REMARK                            x       y       z     vdW  Elec       q    Type
REMARK                         _______ _______ _______ _____ _____    ______ ____
ROOT
ATOM      1  C   UNL     1       3.680   6.115  18.017  0.00  0.00    +0.000 C 
ATOM      2  N   UNL     1       3.210   5.017  17.515  0.00  0.00    +0.000 NA
ATOM      3  O   UNL     1       4.303   4.236  17.080  0.00  0.00    +0.000 OA
ATOM      4  C   UNL     1       5.515   4.827  17.569  0.00  0.00    +0.000 C 
ATOM      5  C   UNL     1       5.163   6.215  18.044  0.00  0.00    +0.000 C 
ENDROOT
BRANCH   1   9
ATOM      6  C   UNL     1       1.107   9.225  19.475  0.00  0.00    +0.000 A 
ATOM      7  C   UNL     1       1.467   8.152  20.292  0.00  0.00    +0.000 A 
ATOM      8  C   UNL     1       2.324   7.154  19.818  0.00  0.00    +0.000 A 
ATOM      9  C   UNL     1       2.814   7.213  18.510  0.00  0.00    +0.000 A 
ATOM     10  C   UNL     1       2.449   8.286  17.686  0.00  0.00    +0.000 A 
ATOM     11  C   UNL     1       1.597   9.287  18.170  0.00  0.00    +0.000 A 
BRANCH   6  13
ATOM     12  C   UNL     1       0.121  11.374  19.382  0.00  0.00    +0.000 C 
ATOM     13  O   UNL     1       0.240  10.118  20.039  0.00  0.00    +0.000 OA
ENDBRANCH   6  13
ENDBRANCH   1   9
BRANCH   4  14
ATOM     14  S   UNL     1       6.843   4.864  16.368  0.00  0.00    +0.000 S 
ATOM     15  C   UNL     1       6.235   3.819  15.068  0.00  0.00    +0.000 C 
ATOM     16  O   UNL     1       6.980   6.206  15.838  0.00  0.00    +0.000 OA
ATOM     17  O   UNL     1       7.989   4.193  16.960  0.00  0.00    +0.000 OA
ENDBRANCH   4  14
TORSDOF 3
ENDMDL
