MODEL 1
REMARK VINA RESULT:      -6.8      0.000      0.000
REMARK  Name = 
REMARK  15 active torsions:
REMARK  status: ('A' for Active; 'I' for Inactive)
REMARK    1  A    between atoms: C_1  and  O_2
REMARK    2  A    between atoms: O_2  and  C_3
REMARK    3  A    between atoms: C_8  and  O_9
REMARK    4  A    between atoms: O_9  and  C_10
REMARK    5  A    between atoms: C_11  and  C_12
REMARK    6  A    between atoms: C_12  and  C_13
REMARK    7  A    between atoms: C_13  and  C_14
REMARK    8  A    between atoms: C_14  and  C_15
REMARK    9  A    between atoms: C_15  and  C_16
REMARK   10  A    between atoms: C_16  and  O_17
REMARK   11  A    between atoms: O_17  and  C_18
REMARK   12  A    between atoms: C_18  and  C_20
REMARK   13  A    between atoms: C_20  and  C_21
REMARK   14  A    between atoms: C_21  and  C_22
REMARK   15  A    between atoms: N_28  and  C_29
REMARK                            x       y       z     vdW  Elec       q    Type
REMARK                         _______ _______ _______ _____ _____    ______ ____
ROOT
ATOM      1  C   UNL     1       0.746   9.991  19.071  0.00  0.00    +0.000 C 
ENDROOT
BRANCH   1   8
ATOM      2  C   UNL     1      -4.015  10.841  17.693  0.00  0.00    +0.000 A 
ATOM      3  C   UNL     1      -3.599  11.623  18.781  0.00  0.00    +0.000 A 
ATOM      4  C   UNL     1      -2.242  11.833  19.048  0.00  0.00    +0.000 A 
ATOM      5  C   UNL     1      -1.273  11.291  18.192  0.00  0.00    +0.000 A 
ATOM      6  C   UNL     1      -1.708  10.619  17.031  0.00  0.00    +0.000 A 
ATOM      7  C   UNL     1      -3.062  10.349  16.790  0.00  0.00    +0.000 A 
ATOM      8  C   UNL     1       0.223  11.365  18.534  0.00  0.00    +0.000 C 
ATOM      9  N   UNL     1       0.505  12.510  19.434  0.00  0.00    +0.000 NA
ATOM     10  C   UNL     1       1.903  12.647  19.821  0.00  0.00    +0.000 C 
ATOM     11  C   UNL     1      -0.375  12.513  20.609  0.00  0.00    +0.000 C 
ATOM     12  C   UNL     1      -1.829  12.731  20.184  0.00  0.00    +0.000 C 
BRANCH   2  14
ATOM     13  C   UNL     1      -6.112  11.003  18.785  0.00  0.00    +0.000 C 
ATOM     14  O   UNL     1      -5.377  10.695  17.605  0.00  0.00    +0.000 OA
ENDBRANCH   2  14
BRANCH   7  15
ATOM     15  O   UNL     1      -3.508   9.650  15.702  0.00  0.00    +0.000 OA
ATOM     16  C   UNL     1      -3.358  10.235  14.416  0.00  0.00    +0.000 C 
ENDBRANCH   7  15
ENDBRANCH   1   8
BRANCH   1  17
ATOM     17  C   UNL     1       1.875   9.390  18.224  0.00  0.00    +0.000 C 
BRANCH  17  18
ATOM     18  C   UNL     1       1.856   7.868  18.166  0.00  0.00    +0.000 C 
BRANCH  18  19
ATOM     19  C   UNL     1       2.497   7.315  19.437  0.00  0.00    +0.000 C 
BRANCH  19  20
ATOM     20  C   UNL     1       2.086   5.877  19.697  0.00  0.00    +0.000 C 
BRANCH  20  21
ATOM     21  O   UNL     1       3.251   5.096  19.989  0.00  0.00    +0.000 OA
BRANCH  21  22
ATOM     22  C   UNL     1       3.392   3.926  19.311  0.00  0.00    +0.000 C 
ATOM     23  O   UNL     1       3.719   2.858  19.814  0.00  0.00    +0.000 OA
BRANCH  22  24
ATOM     24  C   UNL     1       3.018   4.091  17.859  0.00  0.00    +0.000 C 
BRANCH  24  25
ATOM     25  C   UNL     1       4.238   3.946  16.952  0.00  0.00    +0.000 C 
BRANCH  25  26
ATOM     26  C   UNL     1       5.314   4.956  17.242  0.00  0.00    +0.000 A 
ATOM     27  C   UNL     1       6.528   4.545  17.813  0.00  0.00    +0.000 A 
ATOM     28  C   UNL     1       7.550   5.470  18.035  0.00  0.00    +0.000 A 
ATOM     29  C   UNL     1       7.358   6.811  17.700  0.00  0.00    +0.000 A 
ATOM     30  C   UNL     1       6.144   7.231  17.155  0.00  0.00    +0.000 A 
ATOM     31  C   UNL     1       5.126   6.309  16.929  0.00  0.00    +0.000 A 
ENDBRANCH  25  26
ENDBRANCH  24  25
ENDBRANCH  22  24
ENDBRANCH  21  22
ENDBRANCH  20  21
ENDBRANCH  19  20
ENDBRANCH  18  19
ENDBRANCH  17  18
ENDBRANCH   1  17
TORSDOF 12
ENDMDL
MODEL 2
REMARK VINA RESULT:      -6.8      2.274      2.589
REMARK  Name = 
REMARK  15 active torsions:
REMARK  status: ('A' for Active; 'I' for Inactive)
REMARK    1  A    between atoms: C_1  and  O_2
REMARK    2  A    between atoms: O_2  and  C_3
REMARK    3  A    between atoms: C_8  and  O_9
REMARK    4  A    between atoms: O_9  and  C_10
REMARK    5  A    between atoms: C_11  and  C_12
REMARK    6  A    between atoms: C_12  and  C_13
REMARK    7  A    between atoms: C_13  and  C_14
REMARK    8  A    between atoms: C_14  and  C_15
REMARK    9  A    between atoms: C_15  and  C_16
REMARK   10  A    between atoms: C_16  and  O_17
REMARK   11  A    between atoms: O_17  and  C_18
REMARK   12  A    between atoms: C_18  and  C_20
REMARK   13  A    between atoms: C_20  and  C_21
REMARK   14  A    between atoms: C_21  and  C_22
REMARK   15  A    between atoms: N_28  and  C_29
REMARK                            x       y       z     vdW  Elec       q    Type
REMARK                         _______ _______ _______ _____ _____    ______ ____
ROOT
ATOM      1  C   UNL     1      -0.241  10.108  19.230  0.00  0.00    +0.000 C 
ENDROOT
BRANCH   1   8
ATOM      2  C   UNL     1      -4.814  11.532  17.697  0.00  0.00    +0.000 A 
ATOM      3  C   UNL     1      -4.461  12.043  18.955  0.00  0.00    +0.000 A 
ATOM      4  C   UNL     1      -3.124  12.105  19.364  0.00  0.00    +0.000 A 
ATOM      5  C   UNL     1      -2.110  11.689  18.491  0.00  0.00    +0.000 A 
ATOM      6  C   UNL     1      -2.471  11.302  17.184  0.00  0.00    +0.000 A 
ATOM      7  C   UNL     1      -3.808  11.176  16.788  0.00  0.00    +0.000 A 
ATOM      8  C   UNL     1      -0.649  11.594  18.956  0.00  0.00    +0.000 C 
ATOM      9  N   UNL     1      -0.394  12.508  20.097  0.00  0.00    +0.000 NA
ATOM     10  C   UNL     1       0.969  12.471  20.612  0.00  0.00    +0.000 C 
ATOM     11  C   UNL     1      -1.375  12.325  21.175  0.00  0.00    +0.000 C 
ATOM     12  C   UNL     1      -2.772  12.720  20.694  0.00  0.00    +0.000 C 
BRANCH   2  14
ATOM     13  C   UNL     1      -6.971  11.114  18.588  0.00  0.00    +0.000 C 
ATOM     14  O   UNL     1      -6.168  11.496  17.475  0.00  0.00    +0.000 OA
ENDBRANCH   2  14
BRANCH   7  15
ATOM     15  O   UNL     1      -4.188  10.747  15.545  0.00  0.00    +0.000 OA
ATOM     16  C   UNL     1      -3.180  10.300  14.649  0.00  0.00    +0.000 C 
ENDBRANCH   7  15
ENDBRANCH   1   8
BRANCH   1  17
ATOM     17  C   UNL     1       0.871   9.596  18.306  0.00  0.00    +0.000 C 
BRANCH  17  18
ATOM     18  C   UNL     1       1.862   8.666  18.994  0.00  0.00    +0.000 C 
BRANCH  18  19
ATOM     19  C   UNL     1       2.362   7.637  17.982  0.00  0.00    +0.000 C 
BRANCH  19  20
ATOM     20  C   UNL     1       2.514   6.261  18.604  0.00  0.00    +0.000 C 
BRANCH  20  21
ATOM     21  O   UNL     1       3.145   5.383  17.664  0.00  0.00    +0.000 OA
BRANCH  21  22
ATOM     22  C   UNL     1       4.504   5.323  17.695  0.00  0.00    +0.000 C 
ATOM     23  O   UNL     1       5.175   5.112  18.697  0.00  0.00    +0.000 OA
BRANCH  22  24
ATOM     24  C   UNL     1       5.085   5.477  16.312  0.00  0.00    +0.000 C 
BRANCH  24  25
ATOM     25  C   UNL     1       5.748   4.184  15.842  0.00  0.00    +0.000 C 
BRANCH  25  26
ATOM     26  C   UNL     1       6.248   4.256  14.425  0.00  0.00    +0.000 A 
ATOM     27  C   UNL     1       7.312   5.110  14.099  0.00  0.00    +0.000 A 
ATOM     28  C   UNL     1       7.815   5.142  12.797  0.00  0.00    +0.000 A 
ATOM     29  C   UNL     1       7.248   4.331  11.813  0.00  0.00    +0.000 A 
ATOM     30  C   UNL     1       6.173   3.498  12.125  0.00  0.00    +0.000 A 
ATOM     31  C   UNL     1       5.673   3.462  13.424  0.00  0.00    +0.000 A 
ENDBRANCH  25  26
ENDBRANCH  24  25
ENDBRANCH  22  24
ENDBRANCH  21  22
ENDBRANCH  20  21
ENDBRANCH  19  20
ENDBRANCH  18  19
ENDBRANCH  17  18
ENDBRANCH   1  17
TORSDOF 12
ENDMDL
MODEL 3
REMARK VINA RESULT:      -6.8      6.058      8.991
REMARK  Name = 
REMARK  15 active torsions:
REMARK  status: ('A' for Active; 'I' for Inactive)
REMARK    1  A    between atoms: C_1  and  O_2
REMARK    2  A    between atoms: O_2  and  C_3
REMARK    3  A    between atoms: C_8  and  O_9
REMARK    4  A    between atoms: O_9  and  C_10
REMARK    5  A    between atoms: C_11  and  C_12
REMARK    6  A    between atoms: C_12  and  C_13
REMARK    7  A    between atoms: C_13  and  C_14
REMARK    8  A    between atoms: C_14  and  C_15
REMARK    9  A    between atoms: C_15  and  C_16
REMARK   10  A    between atoms: C_16  and  O_17
REMARK   11  A    between atoms: O_17  and  C_18
REMARK   12  A    between atoms: C_18  and  C_20
REMARK   13  A    between atoms: C_20  and  C_21
REMARK   14  A    between atoms: C_21  and  C_22
REMARK   15  A    between atoms: N_28  and  C_29
REMARK                            x       y       z     vdW  Elec       q    Type
REMARK                         _______ _______ _______ _____ _____    ______ ____
ROOT
ATOM      1  C   UNL     1       9.361  11.771  18.767  0.00  0.00    +0.000 C 
ENDROOT
BRANCH   1   8
ATOM      2  C   UNL     1       6.877  15.925  20.130  0.00  0.00    +0.000 A 
ATOM      3  C   UNL     1       8.264  16.017  20.314  0.00  0.00    +0.000 A 
ATOM      4  C   UNL     1       9.145  15.163  19.640  0.00  0.00    +0.000 A 
ATOM      5  C   UNL     1       8.641  14.225  18.729  0.00  0.00    +0.000 A 
ATOM      6  C   UNL     1       7.258  14.233  18.456  0.00  0.00    +0.000 A 
ATOM      7  C   UNL     1       6.363  15.039  19.173  0.00  0.00    +0.000 A 
ATOM      8  C   UNL     1       9.555  13.168  18.088  0.00  0.00    +0.000 C 
ATOM      9  N   UNL     1      10.964  13.633  18.058  0.00  0.00    +0.000 NA
ATOM     10  C   UNL     1      11.903  12.682  17.477  0.00  0.00    +0.000 C 
ATOM     11  C   UNL     1      11.417  14.090  19.378  0.00  0.00    +0.000 C 
ATOM     12  C   UNL     1      10.632  15.331  19.809  0.00  0.00    +0.000 C 
BRANCH   2  14
ATOM     13  C   UNL     1       6.122  18.150  20.447  0.00  0.00    +0.000 C 
ATOM     14  O   UNL     1       6.157  16.801  20.904  0.00  0.00    +0.000 OA
ENDBRANCH   2  14
BRANCH   7  15
ATOM     15  O   UNL     1       5.010  15.025  18.970  0.00  0.00    +0.000 OA
ATOM     16  C   UNL     1       4.520  15.312  17.667  0.00  0.00    +0.000 C 
ENDBRANCH   7  15
ENDBRANCH   1   8
BRANCH   1  17
ATOM     17  C   UNL     1       8.803  10.701  17.820  0.00  0.00    +0.000 C 
BRANCH  17  18
ATOM     18  C   UNL     1       8.585   9.347  18.483  0.00  0.00    +0.000 C 
BRANCH  18  19
ATOM     19  C   UNL     1       7.791   8.451  17.534  0.00  0.00    +0.000 C 
BRANCH  19  20
ATOM     20  C   UNL     1       7.691   7.028  18.052  0.00  0.00    +0.000 C 
BRANCH  20  21
ATOM     21  O   UNL     1       7.085   6.201  17.051  0.00  0.00    +0.000 OA
BRANCH  21  22
ATOM     22  C   UNL     1       5.769   6.421  16.788  0.00  0.00    +0.000 C 
ATOM     23  O   UNL     1       5.318   6.781  15.708  0.00  0.00    +0.000 OA
BRANCH  22  24
ATOM     24  C   UNL     1       4.913   6.090  17.985  0.00  0.00    +0.000 C 
BRANCH  24  25
ATOM     25  C   UNL     1       3.427   6.171  17.645  0.00  0.00    +0.000 C 
BRANCH  25  26
ATOM     26  C   UNL     1       2.581   5.229  18.456  0.00  0.00    +0.000 A 
ATOM     27  C   UNL     1       2.394   5.458  19.828  0.00  0.00    +0.000 A 
ATOM     28  C   UNL     1       1.567   4.617  20.575  0.00  0.00    +0.000 A 
ATOM     29  C   UNL     1       0.936   3.536  19.958  0.00  0.00    +0.000 A 
ATOM     30  C   UNL     1       1.138   3.288  18.600  0.00  0.00    +0.000 A 
ATOM     31  C   UNL     1       1.959   4.129  17.853  0.00  0.00    +0.000 A 
ENDBRANCH  25  26
ENDBRANCH  24  25
ENDBRANCH  22  24
ENDBRANCH  21  22
ENDBRANCH  20  21
ENDBRANCH  19  20
ENDBRANCH  18  19
ENDBRANCH  17  18
ENDBRANCH   1  17
TORSDOF 12
ENDMDL
MODEL 4
REMARK VINA RESULT:      -6.7      1.086      1.351
REMARK  Name = 
REMARK  15 active torsions:
REMARK  status: ('A' for Active; 'I' for Inactive)
REMARK    1  A    between atoms: C_1  and  O_2
REMARK    2  A    between atoms: O_2  and  C_3
REMARK    3  A    between atoms: C_8  and  O_9
REMARK    4  A    between atoms: O_9  and  C_10
REMARK    5  A    between atoms: C_11  and  C_12
REMARK    6  A    between atoms: C_12  and  C_13
REMARK    7  A    between atoms: C_13  and  C_14
REMARK    8  A    between atoms: C_14  and  C_15
REMARK    9  A    between atoms: C_15  and  C_16
REMARK   10  A    between atoms: C_16  and  O_17
REMARK   11  A    between atoms: O_17  and  C_18
REMARK   12  A    between atoms: C_18  and  C_20
REMARK   13  A    between atoms: C_20  and  C_21
REMARK   14  A    between atoms: C_21  and  C_22
REMARK   15  A    between atoms: N_28  and  C_29
REMARK                            x       y       z     vdW  Elec       q    Type
REMARK                         _______ _______ _______ _____ _____    ______ ____
ROOT
ATOM      1  C   UNL     1       0.528  10.708  19.280  0.00  0.00    +0.000 C 
ENDROOT
BRANCH   1   8
ATOM      2  C   UNL     1      -4.282  10.986  17.841  0.00  0.00    +0.000 A 
ATOM      3  C   UNL     1      -3.982  11.793  18.948  0.00  0.00    +0.000 A 
ATOM      4  C   UNL     1      -2.665  12.164  19.240  0.00  0.00    +0.000 A 
ATOM      5  C   UNL     1      -1.625  11.763  18.390  0.00  0.00    +0.000 A 
ATOM      6  C   UNL     1      -1.957  11.065  17.211  0.00  0.00    +0.000 A 
ATOM      7  C   UNL     1      -3.263  10.634  16.945  0.00  0.00    +0.000 A 
ATOM      8  C   UNL     1      -0.155  12.016  18.758  0.00  0.00    +0.000 C 
ATOM      9  N   UNL     1      -0.029  13.170  19.682  0.00  0.00    +0.000 NA
ATOM     10  C   UNL     1       1.336  13.472  20.093  0.00  0.00    +0.000 C 
ATOM     11  C   UNL     1      -0.919  13.041  20.843  0.00  0.00    +0.000 C 
ATOM     12  C   UNL     1      -2.382  13.085  20.399  0.00  0.00    +0.000 C 
BRANCH   2  14
ATOM     13  C   UNL     1      -6.384  10.798  18.921  0.00  0.00    +0.000 C 
ATOM     14  O   UNL     1      -5.615  10.674  17.729  0.00  0.00    +0.000 OA
ENDBRANCH   2  14
BRANCH   7  15
ATOM     15  O   UNL     1      -3.604   9.905  15.838  0.00  0.00    +0.000 OA
ATOM     16  C   UNL     1      -3.284  10.433  14.558  0.00  0.00    +0.000 C 
ENDBRANCH   7  15
ENDBRANCH   1   8
BRANCH   1  17
ATOM     17  C   UNL     1       1.644  10.190  18.364  0.00  0.00    +0.000 C 
BRANCH  17  18
ATOM     18  C   UNL     1       1.622   8.680  18.161  0.00  0.00    +0.000 C 
BRANCH  18  19
ATOM     19  C   UNL     1       1.961   7.996  19.484  0.00  0.00    +0.000 C 
BRANCH  19  20
ATOM     20  C   UNL     1       2.654   6.663  19.269  0.00  0.00    +0.000 C 
BRANCH  20  21
ATOM     21  O   UNL     1       2.299   6.147  17.982  0.00  0.00    +0.000 OA
BRANCH  21  22
ATOM     22  C   UNL     1       2.137   4.800  17.883  0.00  0.00    +0.000 C 
ATOM     23  O   UNL     1       1.165   4.243  17.389  0.00  0.00    +0.000 OA
BRANCH  22  24
ATOM     24  C   UNL     1       3.353   4.068  18.395  0.00  0.00    +0.000 C 
BRANCH  24  25
ATOM     25  C   UNL     1       4.462   4.033  17.347  0.00  0.00    +0.000 C 
BRANCH  25  26
ATOM     26  C   UNL     1       5.631   4.915  17.691  0.00  0.00    +0.000 A 
ATOM     27  C   UNL     1       6.127   5.823  16.744  0.00  0.00    +0.000 A 
ATOM     28  C   UNL     1       7.178   6.681  17.075  0.00  0.00    +0.000 A 
ATOM     29  C   UNL     1       7.744   6.626  18.350  0.00  0.00    +0.000 A 
ATOM     30  C   UNL     1       7.271   5.708  19.288  0.00  0.00    +0.000 A 
ATOM     31  C   UNL     1       6.221   4.854  18.960  0.00  0.00    +0.000 A 
ENDBRANCH  25  26
ENDBRANCH  24  25
ENDBRANCH  22  24
ENDBRANCH  21  22
ENDBRANCH  20  21
ENDBRANCH  19  20
ENDBRANCH  18  19
ENDBRANCH  17  18
ENDBRANCH   1  17
TORSDOF 12
ENDMDL
MODEL 5
REMARK VINA RESULT:      -6.7      0.927      1.403
REMARK  Name = 
REMARK  15 active torsions:
REMARK  status: ('A' for Active; 'I' for Inactive)
REMARK    1  A    between atoms: C_1  and  O_2
REMARK    2  A    between atoms: O_2  and  C_3
REMARK    3  A    between atoms: C_8  and  O_9
REMARK    4  A    between atoms: O_9  and  C_10
REMARK    5  A    between atoms: C_11  and  C_12
REMARK    6  A    between atoms: C_12  and  C_13
REMARK    7  A    between atoms: C_13  and  C_14
REMARK    8  A    between atoms: C_14  and  C_15
REMARK    9  A    between atoms: C_15  and  C_16
REMARK   10  A    between atoms: C_16  and  O_17
REMARK   11  A    between atoms: O_17  and  C_18
REMARK   12  A    between atoms: C_18  and  C_20
REMARK   13  A    between atoms: C_20  and  C_21
REMARK   14  A    between atoms: C_21  and  C_22
REMARK   15  A    between atoms: N_28  and  C_29
REMARK                            x       y       z     vdW  Elec       q    Type
REMARK                         _______ _______ _______ _____ _____    ______ ____
ROOT
ATOM      1  C   UNL     1       0.513   9.859  18.982  0.00  0.00    +0.000 C 
ENDROOT
BRANCH   1   8
ATOM      2  C   UNL     1      -4.201  11.003  17.656  0.00  0.00    +0.000 A 
ATOM      3  C   UNL     1      -3.763  11.680  18.804  0.00  0.00    +0.000 A 
ATOM      4  C   UNL     1      -2.399  11.814  19.092  0.00  0.00    +0.000 A 
ATOM      5  C   UNL     1      -1.447  11.302  18.199  0.00  0.00    +0.000 A 
ATOM      6  C   UNL     1      -1.900  10.742  16.988  0.00  0.00    +0.000 A 
ATOM      7  C   UNL     1      -3.262  10.546  16.721  0.00  0.00    +0.000 A 
ATOM      8  C   UNL     1       0.048  11.290  18.552  0.00  0.00    +0.000 C 
ATOM      9  N   UNL     1       0.369  12.349  19.540  0.00  0.00    +0.000 NA
ATOM     10  C   UNL     1       1.769  12.400  19.943  0.00  0.00    +0.000 C 
ATOM     11  C   UNL     1      -0.518  12.295  20.709  0.00  0.00    +0.000 C 
ATOM     12  C   UNL     1      -1.959  12.604  20.297  0.00  0.00    +0.000 C 
BRANCH   2  14
ATOM     13  C   UNL     1      -6.285  10.911  18.782  0.00  0.00    +0.000 C 
ATOM     14  O   UNL     1      -5.567  10.919  17.552  0.00  0.00    +0.000 OA
ENDBRANCH   2  14
BRANCH   7  15
ATOM     15  O   UNL     1      -3.728   9.952  15.580  0.00  0.00    +0.000 OA
ATOM     16  C   UNL     1      -3.003  10.149  14.373  0.00  0.00    +0.000 C 
ENDBRANCH   7  15
ENDBRANCH   1   8
BRANCH   1  17
ATOM     17  C   UNL     1       1.818   9.410  18.312  0.00  0.00    +0.000 C 
BRANCH  17  18
ATOM     18  C   UNL     1       1.962   7.898  18.197  0.00  0.00    +0.000 C 
BRANCH  18  19
ATOM     19  C   UNL     1       2.309   7.327  19.571  0.00  0.00    +0.000 C 
BRANCH  19  20
ATOM     20  C   UNL     1       1.701   5.952  19.781  0.00  0.00    +0.000 C 
BRANCH  20  21
ATOM     21  O   UNL     1       2.226   5.380  20.984  0.00  0.00    +0.000 OA
BRANCH  21  22
ATOM     22  C   UNL     1       2.257   4.022  21.057  0.00  0.00    +0.000 C 
ATOM     23  O   UNL     1       2.216   3.373  22.095  0.00  0.00    +0.000 OA
BRANCH  22  24
ATOM     24  C   UNL     1       2.274   3.405  19.681  0.00  0.00    +0.000 C 
BRANCH  24  25
ATOM     25  C   UNL     1       3.684   2.978  19.281  0.00  0.00    +0.000 C 
BRANCH  25  26
ATOM     26  C   UNL     1       4.432   4.040  18.523  0.00  0.00    +0.000 A 
ATOM     27  C   UNL     1       4.085   4.330  17.195  0.00  0.00    +0.000 A 
ATOM     28  C   UNL     1       4.740   5.351  16.503  0.00  0.00    +0.000 A 
ATOM     29  C   UNL     1       5.753   6.077  17.132  0.00  0.00    +0.000 A 
ATOM     30  C   UNL     1       6.120   5.777  18.444  0.00  0.00    +0.000 A 
ATOM     31  C   UNL     1       5.464   4.762  19.136  0.00  0.00    +0.000 A 
ENDBRANCH  25  26
ENDBRANCH  24  25
ENDBRANCH  22  24
ENDBRANCH  21  22
ENDBRANCH  20  21
ENDBRANCH  19  20
ENDBRANCH  18  19
ENDBRANCH  17  18
ENDBRANCH   1  17
TORSDOF 12
ENDMDL
MODEL 6
REMARK VINA RESULT:      -6.6      1.317      1.488
REMARK  Name = 
REMARK  15 active torsions:
REMARK  status: ('A' for Active; 'I' for Inactive)
REMARK    1  A    between atoms: C_1  and  O_2
REMARK    2  A    between atoms: O_2  and  C_3
REMARK    3  A    between atoms: C_8  and  O_9
REMARK    4  A    between atoms: O_9  and  C_10
REMARK    5  A    between atoms: C_11  and  C_12
REMARK    6  A    between atoms: C_12  and  C_13
REMARK    7  A    between atoms: C_13  and  C_14
REMARK    8  A    between atoms: C_14  and  C_15
REMARK    9  A    between atoms: C_15  and  C_16
REMARK   10  A    between atoms: C_16  and  O_17
REMARK   11  A    between atoms: O_17  and  C_18
REMARK   12  A    between atoms: C_18  and  C_20
REMARK   13  A    between atoms: C_20  and  C_21
REMARK   14  A    between atoms: C_21  and  C_22
REMARK   15  A    between atoms: N_28  and  C_29
REMARK                            x       y       z     vdW  Elec       q    Type
REMARK                         _______ _______ _______ _____ _____    ______ ____
ROOT
ATOM      1  C   UNL     1       0.285  10.355  18.776  0.00  0.00    +0.000 C 
ENDROOT
BRANCH   1   8
ATOM      2  C   UNL     1      -4.494  11.357  17.572  0.00  0.00    +0.000 A 
ATOM      3  C   UNL     1      -4.119  11.852  18.830  0.00  0.00    +0.000 A 
ATOM      4  C   UNL     1      -2.772  12.036  19.165  0.00  0.00    +0.000 A 
ATOM      5  C   UNL     1      -1.777  11.763  18.217  0.00  0.00    +0.000 A 
ATOM      6  C   UNL     1      -2.175  11.393  16.917  0.00  0.00    +0.000 A 
ATOM      7  C   UNL     1      -3.515  11.144  16.592  0.00  0.00    +0.000 A 
ATOM      8  C   UNL     1      -0.287  11.801  18.594  0.00  0.00    +0.000 C 
ATOM      9  N   UNL     1      -0.057  12.690  19.760  0.00  0.00    +0.000 NA
ATOM     10  C   UNL     1       1.331  12.774  20.194  0.00  0.00    +0.000 C 
ATOM     11  C   UNL     1      -0.947  12.363  20.881  0.00  0.00    +0.000 C 
ATOM     12  C   UNL     1      -2.404  12.631  20.500  0.00  0.00    +0.000 C 
BRANCH   2  14
ATOM     13  C   UNL     1      -6.590  11.037  18.632  0.00  0.00    +0.000 C 
ATOM     14  O   UNL     1      -5.849  11.190  17.426  0.00  0.00    +0.000 OA
ENDBRANCH   2  14
BRANCH   7  15
ATOM     15  O   UNL     1      -3.925  10.728  15.354  0.00  0.00    +0.000 OA
ATOM     16  C   UNL     1      -3.000  10.020  14.540  0.00  0.00    +0.000 C 
ENDBRANCH   7  15
ENDBRANCH   1   8
BRANCH   1  17
ATOM     17  C   UNL     1       1.513  10.067  17.904  0.00  0.00    +0.000 C 
BRANCH  17  18
ATOM     18  C   UNL     1       2.038   8.643  18.034  0.00  0.00    +0.000 C 
BRANCH  18  19
ATOM     19  C   UNL     1       1.336   7.959  19.205  0.00  0.00    +0.000 C 
BRANCH  19  20
ATOM     20  C   UNL     1       2.311   7.188  20.076  0.00  0.00    +0.000 C 
BRANCH  20  21
ATOM     21  O   UNL     1       1.653   6.038  20.620  0.00  0.00    +0.000 OA
BRANCH  21  22
ATOM     22  C   UNL     1       2.386   4.896  20.713  0.00  0.00    +0.000 C 
ATOM     23  O   UNL     1       2.107   3.937  21.421  0.00  0.00    +0.000 OA
BRANCH  22  24
ATOM     24  C   UNL     1       3.561   4.928  19.768  0.00  0.00    +0.000 C 
BRANCH  24  25
ATOM     25  C   UNL     1       3.212   4.286  18.426  0.00  0.00    +0.000 C 
BRANCH  25  26
ATOM     26  C   UNL     1       4.139   4.695  17.315  0.00  0.00    +0.000 A 
ATOM     27  C   UNL     1       4.815   3.718  16.570  0.00  0.00    +0.000 A 
ATOM     28  C   UNL     1       5.636   4.089  15.503  0.00  0.00    +0.000 A 
ATOM     29  C   UNL     1       5.796   5.439  15.187  0.00  0.00    +0.000 A 
ATOM     30  C   UNL     1       5.147   6.417  15.940  0.00  0.00    +0.000 A 
ATOM     31  C   UNL     1       4.324   6.048  17.002  0.00  0.00    +0.000 A 
ENDBRANCH  25  26
ENDBRANCH  24  25
ENDBRANCH  22  24
ENDBRANCH  21  22
ENDBRANCH  20  21
ENDBRANCH  19  20
ENDBRANCH  18  19
ENDBRANCH  17  18
ENDBRANCH   1  17
TORSDOF 12
ENDMDL
MODEL 7
REMARK VINA RESULT:      -6.6      6.053      8.833
REMARK  Name = 
REMARK  15 active torsions:
REMARK  status: ('A' for Active; 'I' for Inactive)
REMARK    1  A    between atoms: C_1  and  O_2
REMARK    2  A    between atoms: O_2  and  C_3
REMARK    3  A    between atoms: C_8  and  O_9
REMARK    4  A    between atoms: O_9  and  C_10
REMARK    5  A    between atoms: C_11  and  C_12
REMARK    6  A    between atoms: C_12  and  C_13
REMARK    7  A    between atoms: C_13  and  C_14
REMARK    8  A    between atoms: C_14  and  C_15
REMARK    9  A    between atoms: C_15  and  C_16
REMARK   10  A    between atoms: C_16  and  O_17
REMARK   11  A    between atoms: O_17  and  C_18
REMARK   12  A    between atoms: C_18  and  C_20
REMARK   13  A    between atoms: C_20  and  C_21
REMARK   14  A    between atoms: C_21  and  C_22
REMARK   15  A    between atoms: N_28  and  C_29
REMARK                            x       y       z     vdW  Elec       q    Type
REMARK                         _______ _______ _______ _____ _____    ______ ____
ROOT
ATOM      1  C   UNL     1       9.087  11.350  18.853  0.00  0.00    +0.000 C 
ENDROOT
BRANCH   1   8
ATOM      2  C   UNL     1       7.115  15.956  19.284  0.00  0.00    +0.000 A 
ATOM      3  C   UNL     1       8.384  15.834  19.869  0.00  0.00    +0.000 A 
ATOM      4  C   UNL     1       9.250  14.793  19.514  0.00  0.00    +0.000 A 
ATOM      5  C   UNL     1       8.866  13.877  18.525  0.00  0.00    +0.000 A 
ATOM      6  C   UNL     1       7.646  14.090  17.854  0.00  0.00    +0.000 A 
ATOM      7  C   UNL     1       6.745  15.089  18.246  0.00  0.00    +0.000 A 
ATOM      8  C   UNL     1       9.717  12.635  18.219  0.00  0.00    +0.000 C 
ATOM      9  N   UNL     1      11.136  12.856  18.594  0.00  0.00    +0.000 NA
ATOM     10  C   UNL     1      12.013  11.719  18.349  0.00  0.00    +0.000 C 
ATOM     11  C   UNL     1      11.267  13.342  19.974  0.00  0.00    +0.000 C 
ATOM     12  C   UNL     1      10.631  14.727  20.113  0.00  0.00    +0.000 C 
BRANCH   2  14
ATOM     13  C   UNL     1       5.591  16.713  20.934  0.00  0.00    +0.000 C 
ATOM     14  O   UNL     1       6.376  17.001  19.781  0.00  0.00    +0.000 OA
ENDBRANCH   2  14
BRANCH   7  15
ATOM     15  O   UNL     1       5.528  15.282  17.651  0.00  0.00    +0.000 OA
ATOM     16  C   UNL     1       4.425  14.511  18.106  0.00  0.00    +0.000 C 
ENDBRANCH   7  15
ENDBRANCH   1   8
BRANCH   1  17
ATOM     17  C   UNL     1       8.636  10.312  17.818  0.00  0.00    +0.000 C 
BRANCH  17  18
ATOM     18  C   UNL     1       8.306   8.950  18.415  0.00  0.00    +0.000 C 
BRANCH  18  19
ATOM     19  C   UNL     1       7.996   7.973  17.283  0.00  0.00    +0.000 C 
BRANCH  19  20
ATOM     20  C   UNL     1       6.833   7.060  17.628  0.00  0.00    +0.000 C 
BRANCH  20  21
ATOM     21  O   UNL     1       7.118   5.735  17.165  0.00  0.00    +0.000 OA
BRANCH  21  22
ATOM     22  C   UNL     1       6.835   5.465  15.862  0.00  0.00    +0.000 C 
ATOM     23  O   UNL     1       7.636   5.537  14.940  0.00  0.00    +0.000 OA
BRANCH  22  24
ATOM     24  C   UNL     1       5.413   4.987  15.703  0.00  0.00    +0.000 C 
BRANCH  24  25
ATOM     25  C   UNL     1       5.096   3.856  16.679  0.00  0.00    +0.000 C 
BRANCH  25  26
ATOM     26  C   UNL     1       3.810   4.065  17.430  0.00  0.00    +0.000 A 
ATOM     27  C   UNL     1       2.823   3.068  17.424  0.00  0.00    +0.000 A 
ATOM     28  C   UNL     1       1.649   3.235  18.162  0.00  0.00    +0.000 A 
ATOM     29  C   UNL     1       1.452   4.405  18.898  0.00  0.00    +0.000 A 
ATOM     30  C   UNL     1       2.419   5.411  18.888  0.00  0.00    +0.000 A 
ATOM     31  C   UNL     1       3.591   5.243  18.156  0.00  0.00    +0.000 A 
ENDBRANCH  25  26
ENDBRANCH  24  25
ENDBRANCH  22  24
ENDBRANCH  21  22
ENDBRANCH  20  21
ENDBRANCH  19  20
ENDBRANCH  18  19
ENDBRANCH  17  18
ENDBRANCH   1  17
TORSDOF 12
ENDMDL
MODEL 8
REMARK VINA RESULT:      -6.6      3.760      9.303
REMARK  Name = 
REMARK  15 active torsions:
REMARK  status: ('A' for Active; 'I' for Inactive)
REMARK    1  A    between atoms: C_1  and  O_2
REMARK    2  A    between atoms: O_2  and  C_3
REMARK    3  A    between atoms: C_8  and  O_9
REMARK    4  A    between atoms: O_9  and  C_10
REMARK    5  A    between atoms: C_11  and  C_12
REMARK    6  A    between atoms: C_12  and  C_13
REMARK    7  A    between atoms: C_13  and  C_14
REMARK    8  A    between atoms: C_14  and  C_15
REMARK    9  A    between atoms: C_15  and  C_16
REMARK   10  A    between atoms: C_16  and  O_17
REMARK   11  A    between atoms: O_17  and  C_18
REMARK   12  A    between atoms: C_18  and  C_20
REMARK   13  A    between atoms: C_20  and  C_21
REMARK   14  A    between atoms: C_21  and  C_22
REMARK   15  A    between atoms: N_28  and  C_29
REMARK                            x       y       z     vdW  Elec       q    Type
REMARK                         _______ _______ _______ _____ _____    ______ ____
ROOT
ATOM      1  C   UNL     1       1.570   4.771  17.901  0.00  0.00    +0.000 C 
ENDROOT
BRANCH   1   8
ATOM      2  C   UNL     1       6.583   4.995  17.567  0.00  0.00    +0.000 A 
ATOM      3  C   UNL     1       6.129   4.283  18.686  0.00  0.00    +0.000 A 
ATOM      4  C   UNL     1       4.828   3.768  18.741  0.00  0.00    +0.000 A 
ATOM      5  C   UNL     1       3.972   3.928  17.642  0.00  0.00    +0.000 A 
ATOM      6  C   UNL     1       4.485   4.531  16.476  0.00  0.00    +0.000 A 
ATOM      7  C   UNL     1       5.763   5.105  16.436  0.00  0.00    +0.000 A 
ATOM      8  C   UNL     1       2.493   3.518  17.721  0.00  0.00    +0.000 C 
ATOM      9  N   UNL     1       2.287   2.467  18.747  0.00  0.00    +0.000 NA
ATOM     10  C   UNL     1       0.905   2.028  18.897  0.00  0.00    +0.000 C 
ATOM     11  C   UNL     1       2.869   2.843  20.041  0.00  0.00    +0.000 C 
ATOM     12  C   UNL     1       4.391   2.951  19.928  0.00  0.00    +0.000 C 
BRANCH   2  14
ATOM     13  C   UNL     1       7.999   6.705  18.398  0.00  0.00    +0.000 C 
ATOM     14  O   UNL     1       7.864   5.472  17.699  0.00  0.00    +0.000 OA
ENDBRANCH   2  14
BRANCH   7  15
ATOM     15  O   UNL     1       6.265   5.747  15.337  0.00  0.00    +0.000 OA
ATOM     16  C   UNL     1       6.926   4.972  14.346  0.00  0.00    +0.000 C 
ENDBRANCH   7  15
ENDBRANCH   1   8
BRANCH   1  17
ATOM     17  C   UNL     1       2.336   6.050  18.260  0.00  0.00    +0.000 C 
BRANCH  17  18
ATOM     18  C   UNL     1       2.575   6.225  19.754  0.00  0.00    +0.000 C 
BRANCH  18  19
ATOM     19  C   UNL     1       1.301   6.766  20.401  0.00  0.00    +0.000 C 
BRANCH  19  20
ATOM     20  C   UNL     1       1.488   8.180  20.920  0.00  0.00    +0.000 C 
BRANCH  20  21
ATOM     21  O   UNL     1       0.237   8.671  21.416  0.00  0.00    +0.000 OA
BRANCH  21  22
ATOM     22  C   UNL     1       0.291   9.615  22.394  0.00  0.00    +0.000 C 
ATOM     23  O   UNL     1       1.101   9.630  23.312  0.00  0.00    +0.000 OA
BRANCH  22  24
ATOM     24  C   UNL     1      -0.734  10.697  22.162  0.00  0.00    +0.000 C 
BRANCH  24  25
ATOM     25  C   UNL     1      -0.813  11.079  20.686  0.00  0.00    +0.000 C 
BRANCH  25  26
ATOM     26  C   UNL     1       0.378  11.867  20.214  0.00  0.00    +0.000 A 
ATOM     27  C   UNL     1       1.027  11.513  19.021  0.00  0.00    +0.000 A 
ATOM     28  C   UNL     1       2.100  12.272  18.551  0.00  0.00    +0.000 A 
ATOM     29  C   UNL     1       2.537  13.381  19.278  0.00  0.00    +0.000 A 
ATOM     30  C   UNL     1       1.913  13.723  20.478  0.00  0.00    +0.000 A 
ATOM     31  C   UNL     1       0.840  12.969  20.945  0.00  0.00    +0.000 A 
ENDBRANCH  25  26
ENDBRANCH  24  25
ENDBRANCH  22  24
ENDBRANCH  21  22
ENDBRANCH  20  21
ENDBRANCH  19  20
ENDBRANCH  18  19
ENDBRANCH  17  18
ENDBRANCH   1  17
TORSDOF 12
ENDMDL
MODEL 9
REMARK VINA RESULT:      -6.5      3.030      9.553
REMARK  Name = 
REMARK  15 active torsions:
REMARK  status: ('A' for Active; 'I' for Inactive)
REMARK    1  A    between atoms: C_1  and  O_2
REMARK    2  A    between atoms: O_2  and  C_3
REMARK    3  A    between atoms: C_8  and  O_9
REMARK    4  A    between atoms: O_9  and  C_10
REMARK    5  A    between atoms: C_11  and  C_12
REMARK    6  A    between atoms: C_12  and  C_13
REMARK    7  A    between atoms: C_13  and  C_14
REMARK    8  A    between atoms: C_14  and  C_15
REMARK    9  A    between atoms: C_15  and  C_16
REMARK   10  A    between atoms: C_16  and  O_17
REMARK   11  A    between atoms: O_17  and  C_18
REMARK   12  A    between atoms: C_18  and  C_20
REMARK   13  A    between atoms: C_20  and  C_21
REMARK   14  A    between atoms: C_21  and  C_22
REMARK   15  A    between atoms: N_28  and  C_29
REMARK                            x       y       z     vdW  Elec       q    Type
REMARK                         _______ _______ _______ _____ _____    ______ ____
ROOT
ATOM      1  C   UNL     1       1.566   4.845  17.993  0.00  0.00    +0.000 C 
ENDROOT
BRANCH   1   8
ATOM      2  C   UNL     1       6.580   4.979  17.633  0.00  0.00    +0.000 A 
ATOM      3  C   UNL     1       6.119   4.270  18.751  0.00  0.00    +0.000 A 
ATOM      4  C   UNL     1       4.809   3.779  18.810  0.00  0.00    +0.000 A 
ATOM      5  C   UNL     1       3.950   3.960  17.718  0.00  0.00    +0.000 A 
ATOM      6  C   UNL     1       4.468   4.557  16.551  0.00  0.00    +0.000 A 
ATOM      7  C   UNL     1       5.756   5.108  16.506  0.00  0.00    +0.000 A 
ATOM      8  C   UNL     1       2.464   3.577  17.803  0.00  0.00    +0.000 C 
ATOM      9  N   UNL     1       2.244   2.525  18.826  0.00  0.00    +0.000 NA
ATOM     10  C   UNL     1       0.856   2.111  18.982  0.00  0.00    +0.000 C 
ATOM     11  C   UNL     1       2.841   2.885  20.118  0.00  0.00    +0.000 C 
ATOM     12  C   UNL     1       4.364   2.965  19.997  0.00  0.00    +0.000 C 
BRANCH   2  14
ATOM     13  C   UNL     1       8.039   6.624  18.519  0.00  0.00    +0.000 C 
ATOM     14  O   UNL     1       7.870   5.432  17.759  0.00  0.00    +0.000 OA
ENDBRANCH   2  14
BRANCH   7  15
ATOM     15  O   UNL     1       6.264   5.745  15.407  0.00  0.00    +0.000 OA
ATOM     16  C   UNL     1       6.860   4.957  14.386  0.00  0.00    +0.000 C 
ENDBRANCH   7  15
ENDBRANCH   1   8
BRANCH   1  17
ATOM     17  C   UNL     1       2.334   6.166  17.866  0.00  0.00    +0.000 C 
BRANCH  17  18
ATOM     18  C   UNL     1       2.932   6.659  19.178  0.00  0.00    +0.000 C 
BRANCH  18  19
ATOM     19  C   UNL     1       1.835   6.692  20.241  0.00  0.00    +0.000 C 
BRANCH  19  20
ATOM     20  C   UNL     1       0.940   7.909  20.091  0.00  0.00    +0.000 C 
BRANCH  20  21
ATOM     21  O   UNL     1       1.732   9.033  19.690  0.00  0.00    +0.000 OA
BRANCH  21  22
ATOM     22  C   UNL     1       1.341   9.690  18.565  0.00  0.00    +0.000 C 
ATOM     23  O   UNL     1       1.641   9.367  17.423  0.00  0.00    +0.000 OA
BRANCH  22  24
ATOM     24  C   UNL     1       0.419  10.837  18.899  0.00  0.00    +0.000 C 
BRANCH  24  25
ATOM     25  C   UNL     1      -0.975  10.337  19.272  0.00  0.00    +0.000 C 
BRANCH  25  26
ATOM     26  C   UNL     1      -1.981  10.509  18.168  0.00  0.00    +0.000 A 
ATOM     27  C   UNL     1      -3.078  11.364  18.345  0.00  0.00    +0.000 A 
ATOM     28  C   UNL     1      -3.987  11.568  17.304  0.00  0.00    +0.000 A 
ATOM     29  C   UNL     1      -3.809  10.907  16.087  0.00  0.00    +0.000 A 
ATOM     30  C   UNL     1      -2.734  10.035  15.914  0.00  0.00    +0.000 A 
ATOM     31  C   UNL     1      -1.825   9.835  16.949  0.00  0.00    +0.000 A 
ENDBRANCH  25  26
ENDBRANCH  24  25
ENDBRANCH  22  24
ENDBRANCH  21  22
ENDBRANCH  20  21
ENDBRANCH  19  20
ENDBRANCH  18  19
ENDBRANCH  17  18
ENDBRANCH   1  17
TORSDOF 12
ENDMDL
