MODEL 1
REMARK VINA RESULT:      -8.0      0.000      0.000
REMARK  Name = 
REMARK  4 active torsions:
REMARK  status: ('A' for Active; 'I' for Inactive)
REMARK    1  A    between atoms: O_1  and  C_2
REMARK    2  A    between atoms: C_2  and  C_3
REMARK    3  A    between atoms: N_12  and  C_13
REMARK    4  A    between atoms: C_13  and  C_14
REMARK                            x       y       z     vdW  Elec       q    Type
REMARK                         _______ _______ _______ _____ _____    ______ ____
ROOT
ATOM      1  C   UNL     1       2.690   6.762  19.011  0.00  0.00    +0.000 C 
ATOM      2  C   UNL     1       1.994   5.644  18.213  0.00  0.00    +0.000 C 
ATOM      3  C   UNL     1       2.968   4.545  17.779  0.00  0.00    +0.000 C 
ATOM      4  N   UNL     1       4.078   5.089  16.978  0.00  0.00    +0.000 NA
ATOM      5  C   UNL     1       4.820   6.078  17.778  0.00  0.00    +0.000 C 
ATOM      6  C   UNL     1       3.928   7.231  18.230  0.00  0.00    +0.000 C 
ENDROOT
BRANCH   1   7
ATOM      7  C   UNL     1       1.812   7.979  19.344  0.00  0.00    +0.000 A 
ATOM      8  C   UNL     1       1.469   8.880  18.312  0.00  0.00    +0.000 A 
ATOM      9  C   UNL     1       0.581   9.936  18.536  0.00  0.00    +0.000 A 
ATOM     10  C   UNL     1       0.049  10.121  19.804  0.00  0.00    +0.000 A 
ATOM     11  F   UNL     1      -0.822  11.116  20.017  0.00  0.00    +0.000 F 
ATOM     12  C   UNL     1       0.406   9.284  20.851  0.00  0.00    +0.000 A 
ATOM     13  C   UNL     1       1.285   8.222  20.624  0.00  0.00    +0.000 A 
ENDBRANCH   1   7
BRANCH   1  14
ATOM     14  O   UNL     1       3.120   6.193  20.258  0.00  0.00    +0.000 OA
ATOM     15  H   UNL     1       2.878   6.822  20.959  0.00  0.00    +0.000 HD
ENDBRANCH   1  14
BRANCH   4  16
ATOM     16  C   UNL     1       4.958   3.978  16.542  0.00  0.00    +0.000 C 
BRANCH  16  17
ATOM     17  C   UNL     1       5.972   4.445  15.534  0.00  0.00    +0.000 A 
ATOM     18  C   UNL     1       7.097   5.210  15.782  0.00  0.00    +0.000 A 
ATOM     19  N   UNL     1       7.803   5.332  14.618  0.00  0.00    +0.000 N 
ATOM     20  C   UNL     1       7.169   4.660  13.601  0.00  0.00    +0.000 A 
ATOM     21  C   UNL     1       7.555   4.465  12.268  0.00  0.00    +0.000 A 
ATOM     22  C   UNL     1       6.703   3.722  11.447  0.00  0.00    +0.000 A 
ATOM     23  C   UNL     1       5.496   3.225  11.932  0.00  0.00    +0.000 A 
ATOM     24  C   UNL     1       5.123   3.431  13.266  0.00  0.00    +0.000 A 
ATOM     25  C   UNL     1       5.986   4.141  14.130  0.00  0.00    +0.000 A 
ATOM     26  H   UNL     1       8.684   5.817  14.520  0.00  0.00    +0.000 HD
ENDBRANCH  16  17
ENDBRANCH   4  16
TORSDOF 4
ENDMDL
MODEL 2
REMARK VINA RESULT:      -8.0      0.426      1.065
REMARK  Name = 
REMARK  4 active torsions:
REMARK  status: ('A' for Active; 'I' for Inactive)
REMARK    1  A    between atoms: O_1  and  C_2
REMARK    2  A    between atoms: C_2  and  C_3
REMARK    3  A    between atoms: N_12  and  C_13
REMARK    4  A    between atoms: C_13  and  C_14
REMARK                            x       y       z     vdW  Elec       q    Type
REMARK                         _______ _______ _______ _____ _____    ______ ____
ROOT
ATOM      1  C   UNL     1       2.686   6.558  19.204  0.00  0.00    +0.000 C 
ATOM      2  C   UNL     1       1.957   5.457  18.412  0.00  0.00    +0.000 C 
ATOM      3  C   UNL     1       2.916   4.384  17.889  0.00  0.00    +0.000 C 
ATOM      4  N   UNL     1       3.973   4.966  17.043  0.00  0.00    +0.000 NA
ATOM      5  C   UNL     1       4.748   5.939  17.830  0.00  0.00    +0.000 C 
ATOM      6  C   UNL     1       3.872   7.066  18.368  0.00  0.00    +0.000 C 
ENDROOT
BRANCH   1   7
ATOM      7  C   UNL     1       1.815   7.753  19.624  0.00  0.00    +0.000 A 
ATOM      8  C   UNL     1       1.284   7.788  20.933  0.00  0.00    +0.000 A 
ATOM      9  C   UNL     1       0.582   8.902  21.402  0.00  0.00    +0.000 A 
ATOM     10  C   UNL     1       0.378   9.984  20.556  0.00  0.00    +0.000 A 
ATOM     11  F   UNL     1      -0.270  11.064  21.010  0.00  0.00    +0.000 F 
ATOM     12  C   UNL     1       0.844   9.959  19.249  0.00  0.00    +0.000 A 
ATOM     13  C   UNL     1       1.553   8.849  18.784  0.00  0.00    +0.000 A 
ENDBRANCH   1   7
BRANCH   1  14
ATOM     14  O   UNL     1       3.193   5.956  20.405  0.00  0.00    +0.000 OA
ATOM     15  H   UNL     1       3.563   5.091  20.159  0.00  0.00    +0.000 HD
ENDBRANCH   1  14
BRANCH   4  16
ATOM     16  C   UNL     1       4.838   3.880  16.523  0.00  0.00    +0.000 C 
BRANCH  16  17
ATOM     17  C   UNL     1       5.886   4.415  15.587  0.00  0.00    +0.000 A 
ATOM     18  C   UNL     1       6.965   5.215  15.918  0.00  0.00    +0.000 A 
ATOM     19  N   UNL     1       7.728   5.399  14.799  0.00  0.00    +0.000 N 
ATOM     20  C   UNL     1       7.177   4.733  13.730  0.00  0.00    +0.000 A 
ATOM     21  C   UNL     1       7.644   4.592  12.416  0.00  0.00    +0.000 A 
ATOM     22  C   UNL     1       6.868   3.842  11.529  0.00  0.00    +0.000 A 
ATOM     23  C   UNL     1       5.657   3.285  11.932  0.00  0.00    +0.000 A 
ATOM     24  C   UNL     1       5.205   3.436  13.247  0.00  0.00    +0.000 A 
ATOM     25  C   UNL     1       5.989   4.153  14.178  0.00  0.00    +0.000 A 
ATOM     26  H   UNL     1       8.593   5.921  14.764  0.00  0.00    +0.000 HD
ENDBRANCH  16  17
ENDBRANCH   4  16
TORSDOF 4
ENDMDL
MODEL 3
REMARK VINA RESULT:      -8.0      3.400      5.293
REMARK  Name = 
REMARK  4 active torsions:
REMARK  status: ('A' for Active; 'I' for Inactive)
REMARK    1  A    between atoms: O_1  and  C_2
REMARK    2  A    between atoms: C_2  and  C_3
REMARK    3  A    between atoms: N_12  and  C_13
REMARK    4  A    between atoms: C_13  and  C_14
REMARK                            x       y       z     vdW  Elec       q    Type
REMARK                         _______ _______ _______ _____ _____    ______ ____
ROOT
ATOM      1  C   UNL     1       0.380  10.079  19.126  0.00  0.00    +0.000 C 
ATOM      2  C   UNL     1       0.430   9.026  20.248  0.00  0.00    +0.000 C 
ATOM      3  C   UNL     1       1.776   8.297  20.302  0.00  0.00    +0.000 C 
ATOM      4  N   UNL     1       2.094   7.648  19.017  0.00  0.00    +0.000 NA
ATOM      5  C   UNL     1       2.161   8.668  17.958  0.00  0.00    +0.000 C 
ATOM      6  C   UNL     1       0.845   9.428  17.814  0.00  0.00    +0.000 C 
ENDROOT
BRANCH   1   7
ATOM      7  C   UNL     1      -0.990  10.740  18.905  0.00  0.00    +0.000 A 
ATOM      8  C   UNL     1      -1.804  10.292  17.841  0.00  0.00    +0.000 A 
ATOM      9  C   UNL     1      -3.102  10.780  17.665  0.00  0.00    +0.000 A 
ATOM     10  C   UNL     1      -3.592  11.743  18.536  0.00  0.00    +0.000 A 
ATOM     11  F   UNL     1      -4.844  12.192  18.388  0.00  0.00    +0.000 F 
ATOM     12  C   UNL     1      -2.799  12.240  19.561  0.00  0.00    +0.000 A 
ATOM     13  C   UNL     1      -1.505  11.746  19.741  0.00  0.00    +0.000 A 
ENDBRANCH   1   7
BRANCH   1  14
ATOM     14  O   UNL     1       1.304  11.121  19.477  0.00  0.00    +0.000 OA
ATOM     15  H   UNL     1       1.179  11.309  20.424  0.00  0.00    +0.000 HD
ENDBRANCH   1  14
BRANCH   4  16
ATOM     16  C   UNL     1       3.377   6.916  19.143  0.00  0.00    +0.000 C 
BRANCH  16  17
ATOM     17  C   UNL     1       3.345   5.620  18.382  0.00  0.00    +0.000 A 
ATOM     18  C   UNL     1       4.155   5.260  17.320  0.00  0.00    +0.000 A 
ATOM     19  N   UNL     1       3.873   3.968  16.978  0.00  0.00    +0.000 N 
ATOM     20  C   UNL     1       2.891   3.460  17.794  0.00  0.00    +0.000 A 
ATOM     21  C   UNL     1       2.335   2.175  17.847  0.00  0.00    +0.000 A 
ATOM     22  C   UNL     1       1.340   1.937  18.799  0.00  0.00    +0.000 A 
ATOM     23  C   UNL     1       0.895   2.954  19.639  0.00  0.00    +0.000 A 
ATOM     24  C   UNL     1       1.459   4.233  19.572  0.00  0.00    +0.000 A 
ATOM     25  C   UNL     1       2.497   4.491  18.649  0.00  0.00    +0.000 A 
ATOM     26  H   UNL     1       4.340   3.443  16.251  0.00  0.00    +0.000 HD
ENDBRANCH  16  17
ENDBRANCH   4  16
TORSDOF 4
ENDMDL
MODEL 4
REMARK VINA RESULT:      -7.9      3.454      8.818
REMARK  Name = 
REMARK  4 active torsions:
REMARK  status: ('A' for Active; 'I' for Inactive)
REMARK    1  A    between atoms: O_1  and  C_2
REMARK    2  A    between atoms: C_2  and  C_3
REMARK    3  A    between atoms: N_12  and  C_13
REMARK    4  A    between atoms: C_13  and  C_14
REMARK                            x       y       z     vdW  Elec       q    Type
REMARK                         _______ _______ _______ _____ _____    ______ ____
ROOT
ATOM      1  C   UNL     1       5.479   5.131  16.040  0.00  0.00    +0.000 C 
ATOM      2  C   UNL     1       5.231   6.641  16.204  0.00  0.00    +0.000 C 
ATOM      3  C   UNL     1       4.607   6.985  17.560  0.00  0.00    +0.000 C 
ATOM      4  N   UNL     1       3.342   6.262  17.775  0.00  0.00    +0.000 NA
ATOM      5  C   UNL     1       3.593   4.813  17.733  0.00  0.00    +0.000 C 
ATOM      6  C   UNL     1       4.189   4.375  16.399  0.00  0.00    +0.000 C 
ENDROOT
BRANCH   1   7
ATOM      7  C   UNL     1       5.953   4.689  14.646  0.00  0.00    +0.000 A 
ATOM      8  C   UNL     1       7.194   5.159  14.163  0.00  0.00    +0.000 A 
ATOM      9  C   UNL     1       7.723   4.700  12.953  0.00  0.00    +0.000 A 
ATOM     10  C   UNL     1       7.003   3.785  12.199  0.00  0.00    +0.000 A 
ATOM     11  F   UNL     1       7.518   3.321  11.053  0.00  0.00    +0.000 F 
ATOM     12  C   UNL     1       5.757   3.342  12.621  0.00  0.00    +0.000 A 
ATOM     13  C   UNL     1       5.234   3.795  13.835  0.00  0.00    +0.000 A 
ENDBRANCH   1   7
BRANCH   1  14
ATOM     14  O   UNL     1       6.505   4.762  16.975  0.00  0.00    +0.000 OA
ATOM     15  H   UNL     1       7.329   4.654  16.469  0.00  0.00    +0.000 HD
ENDBRANCH   1  14
BRANCH   4  16
ATOM     16  C   UNL     1       2.758   6.672  19.075  0.00  0.00    +0.000 C 
BRANCH  16  17
ATOM     17  C   UNL     1       2.037   7.986  18.963  0.00  0.00    +0.000 A 
ATOM     18  C   UNL     1       1.868   8.745  17.819  0.00  0.00    +0.000 A 
ATOM     19  N   UNL     1       1.074   9.815  18.123  0.00  0.00    +0.000 N 
ATOM     20  C   UNL     1       0.710   9.781  19.448  0.00  0.00    +0.000 A 
ATOM     21  C   UNL     1      -0.136  10.629  20.175  0.00  0.00    +0.000 A 
ATOM     22  C   UNL     1      -0.331  10.346  21.529  0.00  0.00    +0.000 A 
ATOM     23  C   UNL     1       0.320   9.276  22.138  0.00  0.00    +0.000 A 
ATOM     24  C   UNL     1       1.163   8.439  21.397  0.00  0.00    +0.000 A 
ATOM     25  C   UNL     1       1.346   8.676  20.017  0.00  0.00    +0.000 A 
ATOM     26  H   UNL     1       0.767  10.517  17.464  0.00  0.00    +0.000 HD
ENDBRANCH  16  17
ENDBRANCH   4  16
TORSDOF 4
ENDMDL
MODEL 5
REMARK VINA RESULT:      -7.9      3.330      5.316
REMARK  Name = 
REMARK  4 active torsions:
REMARK  status: ('A' for Active; 'I' for Inactive)
REMARK    1  A    between atoms: O_1  and  C_2
REMARK    2  A    between atoms: C_2  and  C_3
REMARK    3  A    between atoms: N_12  and  C_13
REMARK    4  A    between atoms: C_13  and  C_14
REMARK                            x       y       z     vdW  Elec       q    Type
REMARK                         _______ _______ _______ _____ _____    ______ ____
ROOT
ATOM      1  C   UNL     1       0.312   9.985  19.192  0.00  0.00    +0.000 C 
ATOM      2  C   UNL     1       0.467   8.899  20.272  0.00  0.00    +0.000 C 
ATOM      3  C   UNL     1       1.844   8.229  20.230  0.00  0.00    +0.000 C 
ATOM      4  N   UNL     1       2.120   7.638  18.909  0.00  0.00    +0.000 NA
ATOM      5  C   UNL     1       2.087   8.694  17.884  0.00  0.00    +0.000 C 
ATOM      6  C   UNL     1       0.733   9.398  17.835  0.00  0.00    +0.000 C 
ENDROOT
BRANCH   1   7
ATOM      7  C   UNL     1      -1.095  10.591  19.065  0.00  0.00    +0.000 A 
ATOM      8  C   UNL     1      -1.468  11.645  19.929  0.00  0.00    +0.000 A 
ATOM      9  C   UNL     1      -2.691  12.306  19.782  0.00  0.00    +0.000 A 
ATOM     10  C   UNL     1      -3.568  11.901  18.785  0.00  0.00    +0.000 A 
ATOM     11  F   UNL     1      -4.728  12.549  18.622  0.00  0.00    +0.000 F 
ATOM     12  C   UNL     1      -3.252  10.837  17.952  0.00  0.00    +0.000 A 
ATOM     13  C   UNL     1      -2.026  10.183  18.095  0.00  0.00    +0.000 A 
ENDBRANCH   1   7
BRANCH   1  14
ATOM     14  O   UNL     1       1.208  11.055  19.530  0.00  0.00    +0.000 OA
ATOM     15  H   UNL     1       0.745  11.889  19.335  0.00  0.00    +0.000 HD
ENDBRANCH   1  14
BRANCH   4  16
ATOM     16  C   UNL     1       3.439   6.960  18.941  0.00  0.00    +0.000 C 
BRANCH  16  17
ATOM     17  C   UNL     1       3.388   5.628  18.247  0.00  0.00    +0.000 A 
ATOM     18  C   UNL     1       4.185   5.207  17.197  0.00  0.00    +0.000 A 
ATOM     19  N   UNL     1       3.887   3.902  16.923  0.00  0.00    +0.000 N 
ATOM     20  C   UNL     1       2.907   3.446  17.772  0.00  0.00    +0.000 A 
ATOM     21  C   UNL     1       2.340   2.171  17.895  0.00  0.00    +0.000 A 
ATOM     22  C   UNL     1       1.351   1.990  18.865  0.00  0.00    +0.000 A 
ATOM     23  C   UNL     1       0.924   3.053  19.657  0.00  0.00    +0.000 A 
ATOM     24  C   UNL     1       1.500   4.322  19.521  0.00  0.00    +0.000 A 
ATOM     25  C   UNL     1       2.532   4.523  18.578  0.00  0.00    +0.000 A 
ATOM     26  H   UNL     1       4.342   3.337  16.219  0.00  0.00    +0.000 HD
ENDBRANCH  16  17
ENDBRANCH   4  16
TORSDOF 4
ENDMDL
MODEL 6
REMARK VINA RESULT:      -7.9      3.411      8.780
REMARK  Name = 
REMARK  4 active torsions:
REMARK  status: ('A' for Active; 'I' for Inactive)
REMARK    1  A    between atoms: O_1  and  C_2
REMARK    2  A    between atoms: C_2  and  C_3
REMARK    3  A    between atoms: N_12  and  C_13
REMARK    4  A    between atoms: C_13  and  C_14
REMARK                            x       y       z     vdW  Elec       q    Type
REMARK                         _______ _______ _______ _____ _____    ______ ____
ROOT
ATOM      1  C   UNL     1       5.645   5.051  16.138  0.00  0.00    +0.000 C 
ATOM      2  C   UNL     1       5.525   6.562  16.405  0.00  0.00    +0.000 C 
ATOM      3  C   UNL     1       4.802   6.865  17.720  0.00  0.00    +0.000 C 
ATOM      4  N   UNL     1       3.458   6.262  17.753  0.00  0.00    +0.000 NA
ATOM      5  C   UNL     1       3.574   4.801  17.612  0.00  0.00    +0.000 C 
ATOM      6  C   UNL     1       4.260   4.406  16.307  0.00  0.00    +0.000 C 
ENDROOT
BRANCH   1   7
ATOM      7  C   UNL     1       6.215   4.669  14.762  0.00  0.00    +0.000 A 
ATOM      8  C   UNL     1       5.510   3.743  13.960  0.00  0.00    +0.000 A 
ATOM      9  C   UNL     1       5.923   3.448  12.658  0.00  0.00    +0.000 A 
ATOM     10  C   UNL     1       7.064   4.055  12.152  0.00  0.00    +0.000 A 
ATOM     11  F   UNL     1       7.448   3.797  10.895  0.00  0.00    +0.000 F 
ATOM     12  C   UNL     1       7.807   4.930  12.932  0.00  0.00    +0.000 A 
ATOM     13  C   UNL     1       7.388   5.231  14.230  0.00  0.00    +0.000 A 
ENDBRANCH   1   7
BRANCH   1  14
ATOM     14  O   UNL     1       6.530   4.510  17.131  0.00  0.00    +0.000 OA
ATOM     15  H   UNL     1       6.596   3.553  16.966  0.00  0.00    +0.000 HD
ENDBRANCH   1  14
BRANCH   4  16
ATOM     16  C   UNL     1       2.786   6.630  19.023  0.00  0.00    +0.000 C 
BRANCH  16  17
ATOM     17  C   UNL     1       2.085   7.954  18.908  0.00  0.00    +0.000 A 
ATOM     18  C   UNL     1       1.952   8.728  17.768  0.00  0.00    +0.000 A 
ATOM     19  N   UNL     1       1.165   9.805  18.064  0.00  0.00    +0.000 N 
ATOM     20  C   UNL     1       0.769   9.761  19.380  0.00  0.00    +0.000 A 
ATOM     21  C   UNL     1      -0.083  10.613  20.096  0.00  0.00    +0.000 A 
ATOM     22  C   UNL     1      -0.315  10.317  21.442  0.00  0.00    +0.000 A 
ATOM     23  C   UNL     1       0.309   9.233  22.054  0.00  0.00    +0.000 A 
ATOM     24  C   UNL     1       1.158   8.393  21.325  0.00  0.00    +0.000 A 
ATOM     25  C   UNL     1       1.378   8.642  19.952  0.00  0.00    +0.000 A 
ATOM     26  H   UNL     1       0.883  10.518  17.406  0.00  0.00    +0.000 HD
ENDBRANCH  16  17
ENDBRANCH   4  16
TORSDOF 4
ENDMDL
MODEL 7
REMARK VINA RESULT:      -7.7      2.442      4.236
REMARK  Name = 
REMARK  4 active torsions:
REMARK  status: ('A' for Active; 'I' for Inactive)
REMARK    1  A    between atoms: O_1  and  C_2
REMARK    2  A    between atoms: C_2  and  C_3
REMARK    3  A    between atoms: N_12  and  C_13
REMARK    4  A    between atoms: C_13  and  C_14
REMARK                            x       y       z     vdW  Elec       q    Type
REMARK                         _______ _______ _______ _____ _____    ______ ____
ROOT
ATOM      1  C   UNL     1       0.541   9.801  19.009  0.00  0.00    +0.000 C 
ATOM      2  C   UNL     1       0.458   8.815  20.188  0.00  0.00    +0.000 C 
ATOM      3  C   UNL     1       1.771   8.056  20.406  0.00  0.00    +0.000 C 
ATOM      4  N   UNL     1       2.183   7.325  19.196  0.00  0.00    +0.000 NA
ATOM      5  C   UNL     1       2.375   8.278  18.091  0.00  0.00    +0.000 C 
ATOM      6  C   UNL     1       1.102   9.060  17.783  0.00  0.00    +0.000 C 
ENDROOT
BRANCH   1   7
ATOM      7  C   UNL     1      -0.783  10.482  18.626  0.00  0.00    +0.000 A 
ATOM      8  C   UNL     1      -1.459  10.060  17.459  0.00  0.00    +0.000 A 
ATOM      9  C   UNL     1      -2.719  10.565  17.128  0.00  0.00    +0.000 A 
ATOM     10  C   UNL     1      -3.306  11.521  17.945  0.00  0.00    +0.000 A 
ATOM     11  F   UNL     1      -4.525  11.988  17.647  0.00  0.00    +0.000 F 
ATOM     12  C   UNL     1      -2.645  11.993  19.071  0.00  0.00    +0.000 A 
ATOM     13  C   UNL     1      -1.390  11.481  19.406  0.00  0.00    +0.000 A 
ENDBRANCH   1   7
BRANCH   1  14
ATOM     14  O   UNL     1       1.462  10.838  19.382  0.00  0.00    +0.000 OA
ATOM     15  H   UNL     1       1.791  10.622  20.272  0.00  0.00    +0.000 HD
ENDBRANCH   1  14
BRANCH   4  16
ATOM     16  C   UNL     1       3.427   6.569  19.479  0.00  0.00    +0.000 C 
BRANCH  16  17
ATOM     17  C   UNL     1       3.688   5.528  18.427  0.00  0.00    +0.000 A 
ATOM     18  C   UNL     1       2.822   4.532  18.012  0.00  0.00    +0.000 A 
ATOM     19  N   UNL     1       3.400   3.859  16.973  0.00  0.00    +0.000 N 
ATOM     20  C   UNL     1       4.635   4.390  16.688  0.00  0.00    +0.000 A 
ATOM     21  C   UNL     1       5.548   4.063  15.676  0.00  0.00    +0.000 A 
ATOM     22  C   UNL     1       6.742   4.786  15.620  0.00  0.00    +0.000 A 
ATOM     23  C   UNL     1       7.026   5.773  16.560  0.00  0.00    +0.000 A 
ATOM     24  C   UNL     1       6.104   6.087  17.565  0.00  0.00    +0.000 A 
ATOM     25  C   UNL     1       4.870   5.402  17.621  0.00  0.00    +0.000 A 
ATOM     26  H   UNL     1       2.973   3.100  16.461  0.00  0.00    +0.000 HD
ENDBRANCH  16  17
ENDBRANCH   4  16
TORSDOF 4
ENDMDL
MODEL 8
REMARK VINA RESULT:      -7.7      4.050      6.082
REMARK  Name = 
REMARK  4 active torsions:
REMARK  status: ('A' for Active; 'I' for Inactive)
REMARK    1  A    between atoms: O_1  and  C_2
REMARK    2  A    between atoms: C_2  and  C_3
REMARK    3  A    between atoms: N_12  and  C_13
REMARK    4  A    between atoms: C_13  and  C_14
REMARK                            x       y       z     vdW  Elec       q    Type
REMARK                         _______ _______ _______ _____ _____    ______ ____
ROOT
ATOM      1  C   UNL     1       0.100  10.663  21.316  0.00  0.00    +0.000 C 
ATOM      2  C   UNL     1       0.405   9.424  22.176  0.00  0.00    +0.000 C 
ATOM      3  C   UNL     1       1.553   8.587  21.603  0.00  0.00    +0.000 C 
ATOM      4  N   UNL     1       1.275   8.158  20.221  0.00  0.00    +0.000 NA
ATOM      5  C   UNL     1       1.094   9.344  19.368  0.00  0.00    +0.000 C 
ATOM      6  C   UNL     1      -0.055  10.224  19.851  0.00  0.00    +0.000 C 
ENDROOT
BRANCH   1   7
ATOM      7  C   UNL     1      -1.143  11.466  21.737  0.00  0.00    +0.000 A 
ATOM      8  C   UNL     1      -1.845  12.205  20.759  0.00  0.00    +0.000 A 
ATOM      9  C   UNL     1      -3.043  12.858  21.065  0.00  0.00    +0.000 A 
ATOM     10  C   UNL     1      -3.537  12.803  22.360  0.00  0.00    +0.000 A 
ATOM     11  F   UNL     1      -4.698  13.404  22.651  0.00  0.00    +0.000 F 
ATOM     12  C   UNL     1      -2.844  12.127  23.355  0.00  0.00    +0.000 A 
ATOM     13  C   UNL     1      -1.652  11.467  23.047  0.00  0.00    +0.000 A 
ENDBRANCH   1   7
BRANCH   1  14
ATOM     14  O   UNL     1       1.230  11.543  21.417  0.00  0.00    +0.000 OA
ATOM     15  H   UNL     1       0.913  12.372  21.819  0.00  0.00    +0.000 HD
ENDBRANCH   1  14
BRANCH   4  16
ATOM     16  C   UNL     1       2.392   7.310  19.737  0.00  0.00    +0.000 C 
BRANCH  16  17
ATOM     17  C   UNL     1       2.067   5.848  19.868  0.00  0.00    +0.000 A 
ATOM     18  C   UNL     1       1.325   5.250  20.870  0.00  0.00    +0.000 A 
ATOM     19  N   UNL     1       1.181   3.924  20.570  0.00  0.00    +0.000 N 
ATOM     20  C   UNL     1       1.813   3.631  19.386  0.00  0.00    +0.000 A 
ATOM     21  C   UNL     1       1.875   2.428  18.669  0.00  0.00    +0.000 A 
ATOM     22  C   UNL     1       2.596   2.422  17.472  0.00  0.00    +0.000 A 
ATOM     23  C   UNL     1       3.256   3.566  17.029  0.00  0.00    +0.000 A 
ATOM     24  C   UNL     1       3.185   4.759  17.757  0.00  0.00    +0.000 A 
ATOM     25  C   UNL     1       2.429   4.805  18.949  0.00  0.00    +0.000 A 
ATOM     26  H   UNL     1       0.657   3.257  21.120  0.00  0.00    +0.000 HD
ENDBRANCH  16  17
ENDBRANCH   4  16
TORSDOF 4
ENDMDL
MODEL 9
REMARK VINA RESULT:      -7.6      4.757      8.725
REMARK  Name = 
REMARK  4 active torsions:
REMARK  status: ('A' for Active; 'I' for Inactive)
REMARK    1  A    between atoms: O_1  and  C_2
REMARK    2  A    between atoms: C_2  and  C_3
REMARK    3  A    between atoms: N_12  and  C_13
REMARK    4  A    between atoms: C_13  and  C_14
REMARK                            x       y       z     vdW  Elec       q    Type
REMARK                         _______ _______ _______ _____ _____    ______ ____
ROOT
ATOM      1  C   UNL     1       2.466   6.581  19.289  0.00  0.00    +0.000 C 
ATOM      2  C   UNL     1       2.079   7.386  18.035  0.00  0.00    +0.000 C 
ATOM      3  C   UNL     1       1.961   8.886  18.321  0.00  0.00    +0.000 C 
ATOM      4  N   UNL     1       0.984   9.160  19.389  0.00  0.00    +0.000 NA
ATOM      5  C   UNL     1       1.410   8.484  20.626  0.00  0.00    +0.000 C 
ATOM      6  C   UNL     1       1.525   6.974  20.440  0.00  0.00    +0.000 C 
ENDROOT
BRANCH   1   7
ATOM      7  C   UNL     1       2.447   5.052  19.121  0.00  0.00    +0.000 A 
ATOM      8  C   UNL     1       2.547   4.504  17.823  0.00  0.00    +0.000 A 
ATOM      9  C   UNL     1       2.650   3.124  17.624  0.00  0.00    +0.000 A 
ATOM     10  C   UNL     1       2.624   2.274  18.721  0.00  0.00    +0.000 A 
ATOM     11  F   UNL     1       2.750   0.954  18.537  0.00  0.00    +0.000 F 
ATOM     12  C   UNL     1       2.476   2.779  20.005  0.00  0.00    +0.000 A 
ATOM     13  C   UNL     1       2.383   4.158  20.204  0.00  0.00    +0.000 A 
ENDBRANCH   1   7
BRANCH   1  14
ATOM     14  O   UNL     1       3.807   6.954  19.641  0.00  0.00    +0.000 OA
ATOM     15  H   UNL     1       4.170   7.459  18.891  0.00  0.00    +0.000 HD
ENDBRANCH   1  14
BRANCH   4  16
ATOM     16  C   UNL     1       0.872  10.625  19.587  0.00  0.00    +0.000 C 
BRANCH  16  17
ATOM     17  C   UNL     1      -0.558  11.082  19.500  0.00  0.00    +0.000 A 
ATOM     18  C   UNL     1      -1.213  11.930  20.376  0.00  0.00    +0.000 A 
ATOM     19  N   UNL     1      -2.467  12.170  19.889  0.00  0.00    +0.000 N 
ATOM     20  C   UNL     1      -2.657  11.500  18.704  0.00  0.00    +0.000 A 
ATOM     21  C   UNL     1      -3.753  11.502  17.831  0.00  0.00    +0.000 A 
ATOM     22  C   UNL     1      -3.666  10.718  16.678  0.00  0.00    +0.000 A 
ATOM     23  C   UNL     1      -2.541   9.937  16.427  0.00  0.00    +0.000 A 
ATOM     24  C   UNL     1      -1.455   9.945  17.310  0.00  0.00    +0.000 A 
ATOM     25  C   UNL     1      -1.498  10.761  18.462  0.00  0.00    +0.000 A 
ATOM     26  H   UNL     1      -3.150  12.780  20.317  0.00  0.00    +0.000 HD
ENDBRANCH  16  17
ENDBRANCH   4  16
TORSDOF 4
ENDMDL
