MODEL 1
REMARK VINA RESULT:      -8.8      0.000      0.000
REMARK  Name = 
REMARK  10 active torsions:
REMARK  status: ('A' for Active; 'I' for Inactive)
REMARK    1  A    between atoms: C_1  and  C_2
REMARK    2  A    between atoms: C_6  and  C_7
REMARK    3  A    between atoms: C_8  and  N_9
REMARK    4  A    between atoms: C_10  and  C_12
REMARK    5  A    between atoms: C_12  and  C_13
REMARK    6  A    between atoms: C_12  and  N_23
REMARK    7  A    between atoms: C_13  and  C_14
REMARK    8  A    between atoms: C_24  and  C_26
REMARK    9  A    between atoms: C_26  and  C_27
REMARK   10  A    between atoms: C_27  and  C_28
REMARK                            x       y       z     vdW  Elec       q    Type
REMARK                         _______ _______ _______ _____ _____    ______ ____
ROOT
ATOM      1  C   UNL     1       6.612   5.130  17.365  0.00  0.00    +0.000 C 
ENDROOT
BRANCH   1   3
ATOM      2  N   UNL     1       4.371   4.330  18.252  0.00  0.00    +0.000 N 
ATOM      3  C   UNL     1       5.656   4.756  18.546  0.00  0.00    +0.000 C 
ATOM      4  O   UNL     1       6.134   4.742  19.686  0.00  0.00    +0.000 OA
ATOM      5  H   UNL     1       4.229   3.957  17.324  0.00  0.00    +0.000 HD
BRANCH   2  13
ATOM      6  C   UNL     1       3.670   1.569  18.987  0.00  0.00    +0.000 C 
ATOM      7  C   UNL     1       2.931   2.778  19.501  0.00  0.00    +0.000 A 
ATOM      8  C   UNL     1       1.868   2.511  20.392  0.00  0.00    +0.000 A 
ATOM      9  C   UNL     1       1.142   3.536  20.972  0.00  0.00    +0.000 A 
ATOM     10  C   UNL     1       1.469   4.845  20.659  0.00  0.00    +0.000 A 
ATOM     11  C   UNL     1       2.515   5.160  19.759  0.00  0.00    +0.000 A 
ATOM     12  C   UNL     1       2.677   6.639  19.507  0.00  0.00    +0.000 C 
ATOM     13  C   UNL     1       3.291   4.122  19.183  0.00  0.00    +0.000 A 
ENDBRANCH   2  13
ENDBRANCH   1   3
BRANCH   1  14
ATOM     14  N   UNL     1       7.518   6.152  17.944  0.00  0.00    +0.000 N 
ATOM     15  C   UNL     1       7.468   7.501  17.724  0.00  0.00    +0.000 C 
ATOM     16  O   UNL     1       6.713   8.024  16.914  0.00  0.00    +0.000 OA
ATOM     17  H   UNL     1       8.202   5.776  18.598  0.00  0.00    +0.000 HD
BRANCH  15  18
ATOM     18  C   UNL     1       8.450   8.285  18.586  0.00  0.00    +0.000 C 
BRANCH  18  19
ATOM     19  C   UNL     1       8.571   9.738  18.118  0.00  0.00    +0.000 C 
BRANCH  19  20
ATOM     20  C   UNL     1       9.492  10.652  18.903  0.00  0.00    +0.000 A 
ATOM     21  C   UNL     1      10.537  11.294  18.234  0.00  0.00    +0.000 A 
ATOM     22  C   UNL     1      11.410  12.132  18.928  0.00  0.00    +0.000 A 
ATOM     23  C   UNL     1      11.206  12.304  20.284  0.00  0.00    +0.000 A 
ATOM     24  N   UNL     1      10.208  11.709  20.968  0.00  0.00    +0.000 NA
ATOM     25  C   UNL     1       9.377  10.899  20.268  0.00  0.00    +0.000 A 
ENDBRANCH  19  20
ENDBRANCH  18  19
ENDBRANCH  15  18
ENDBRANCH   1  14
BRANCH   1  26
ATOM     26  C   UNL     1       5.942   5.610  16.062  0.00  0.00    +0.000 C 
BRANCH  26  27
ATOM     27  C   UNL     1       6.714   5.280  14.818  0.00  0.00    +0.000 A 
ATOM     28  C   UNL     1       7.974   5.748  14.483  0.00  0.00    +0.000 A 
ATOM     29  N   UNL     1       8.270   5.318  13.222  0.00  0.00    +0.000 N 
ATOM     30  C   UNL     1       7.264   4.510  12.751  0.00  0.00    +0.000 A 
ATOM     31  C   UNL     1       7.136   3.852  11.522  0.00  0.00    +0.000 A 
ATOM     32  C   UNL     1       6.009   3.050  11.334  0.00  0.00    +0.000 A 
ATOM     33  C   UNL     1       5.051   2.907  12.334  0.00  0.00    +0.000 A 
ATOM     34  C   UNL     1       5.184   3.592  13.546  0.00  0.00    +0.000 A 
ATOM     35  C   UNL     1       6.302   4.421  13.755  0.00  0.00    +0.000 A 
ATOM     36  H   UNL     1       9.110   5.546  12.707  0.00  0.00    +0.000 HD
ENDBRANCH  26  27
ENDBRANCH   1  26
TORSDOF 8
ENDMDL
MODEL 2
REMARK VINA RESULT:      -8.8      7.415      9.072
REMARK  Name = 
REMARK  10 active torsions:
REMARK  status: ('A' for Active; 'I' for Inactive)
REMARK    1  A    between atoms: C_1  and  C_2
REMARK    2  A    between atoms: C_6  and  C_7
REMARK    3  A    between atoms: C_8  and  N_9
REMARK    4  A    between atoms: C_10  and  C_12
REMARK    5  A    between atoms: C_12  and  C_13
REMARK    6  A    between atoms: C_12  and  N_23
REMARK    7  A    between atoms: C_13  and  C_14
REMARK    8  A    between atoms: C_24  and  C_26
REMARK    9  A    between atoms: C_26  and  C_27
REMARK   10  A    between atoms: C_27  and  C_28
REMARK                            x       y       z     vdW  Elec       q    Type
REMARK                         _______ _______ _______ _____ _____    ______ ____
ROOT
ATOM      1  C   UNL     1       1.274  10.369  18.763  0.00  0.00    +0.000 C 
ENDROOT
BRANCH   1   3
ATOM      2  N   UNL     1      -1.021  11.080  17.941  0.00  0.00    +0.000 N 
ATOM      3  C   UNL     1      -0.287  10.360  18.870  0.00  0.00    +0.000 C 
ATOM      4  O   UNL     1      -0.798   9.610  19.708  0.00  0.00    +0.000 OA
ATOM      5  H   UNL     1      -0.556  11.279  17.067  0.00  0.00    +0.000 HD
BRANCH   2  13
ATOM      6  C   UNL     1      -2.665  10.222  15.657  0.00  0.00    +0.000 C 
ATOM      7  C   UNL     1      -3.218  10.969  16.844  0.00  0.00    +0.000 A 
ATOM      8  C   UNL     1      -4.606  11.228  16.811  0.00  0.00    +0.000 A 
ATOM      9  C   UNL     1      -5.244  11.863  17.861  0.00  0.00    +0.000 A 
ATOM     10  C   UNL     1      -4.494  12.255  18.958  0.00  0.00    +0.000 A 
ATOM     11  C   UNL     1      -3.098  12.033  19.027  0.00  0.00    +0.000 A 
ATOM     12  C   UNL     1      -2.456  12.583  20.277  0.00  0.00    +0.000 C 
ATOM     13  C   UNL     1      -2.435  11.353  17.975  0.00  0.00    +0.000 A 
ENDBRANCH   2  13
ENDBRANCH   1   3
BRANCH   1  14
ATOM     14  N   UNL     1       1.600  11.756  18.352  0.00  0.00    +0.000 N 
ATOM     15  C   UNL     1       1.933  12.792  19.179  0.00  0.00    +0.000 C 
ATOM     16  O   UNL     1       1.894  12.719  20.401  0.00  0.00    +0.000 OA
ATOM     17  H   UNL     1       1.608  11.897  17.343  0.00  0.00    +0.000 HD
BRANCH  15  18
ATOM     18  C   UNL     1       2.353  14.049  18.426  0.00  0.00    +0.000 C 
BRANCH  18  19
ATOM     19  C   UNL     1       1.956  15.318  19.186  0.00  0.00    +0.000 C 
BRANCH  19  20
ATOM     20  C   UNL     1       1.192  16.381  18.421  0.00  0.00    +0.000 A 
ATOM     21  C   UNL     1       1.897  17.248  17.582  0.00  0.00    +0.000 A 
ATOM     22  C   UNL     1       1.229  18.246  16.874  0.00  0.00    +0.000 A 
ATOM     23  C   UNL     1      -0.142  18.344  17.027  0.00  0.00    +0.000 A 
ATOM     24  N   UNL     1      -0.863  17.526  17.820  0.00  0.00    +0.000 NA
ATOM     25  C   UNL     1      -0.185  16.568  18.498  0.00  0.00    +0.000 A 
ENDBRANCH  19  20
ENDBRANCH  18  19
ENDBRANCH  15  18
ENDBRANCH   1  14
BRANCH   1  26
ATOM     26  C   UNL     1       1.907   9.316  17.831  0.00  0.00    +0.000 C 
BRANCH  26  27
ATOM     27  C   UNL     1       2.366   8.072  18.533  0.00  0.00    +0.000 A 
ATOM     28  C   UNL     1       1.934   7.616  19.768  0.00  0.00    +0.000 A 
ATOM     29  N   UNL     1       2.681   6.526  20.108  0.00  0.00    +0.000 N 
ATOM     30  C   UNL     1       3.540   6.205  19.086  0.00  0.00    +0.000 A 
ATOM     31  C   UNL     1       4.485   5.177  18.991  0.00  0.00    +0.000 A 
ATOM     32  C   UNL     1       5.197   5.064  17.795  0.00  0.00    +0.000 A 
ATOM     33  C   UNL     1       4.973   5.940  16.737  0.00  0.00    +0.000 A 
ATOM     34  C   UNL     1       4.042   6.977  16.860  0.00  0.00    +0.000 A 
ATOM     35  C   UNL     1       3.323   7.124  18.061  0.00  0.00    +0.000 A 
ATOM     36  H   UNL     1       2.609   6.014  20.978  0.00  0.00    +0.000 HD
ENDBRANCH  26  27
ENDBRANCH   1  26
TORSDOF 8
ENDMDL
MODEL 3
REMARK VINA RESULT:      -8.7      6.937      8.580
REMARK  Name = 
REMARK  10 active torsions:
REMARK  status: ('A' for Active; 'I' for Inactive)
REMARK    1  A    between atoms: C_1  and  C_2
REMARK    2  A    between atoms: C_6  and  C_7
REMARK    3  A    between atoms: C_8  and  N_9
REMARK    4  A    between atoms: C_10  and  C_12
REMARK    5  A    between atoms: C_12  and  C_13
REMARK    6  A    between atoms: C_12  and  N_23
REMARK    7  A    between atoms: C_13  and  C_14
REMARK    8  A    between atoms: C_24  and  C_26
REMARK    9  A    between atoms: C_26  and  C_27
REMARK   10  A    between atoms: C_27  and  C_28
REMARK                            x       y       z     vdW  Elec       q    Type
REMARK                         _______ _______ _______ _____ _____    ______ ____
ROOT
ATOM      1  C   UNL     1       1.540   9.876  18.590  0.00  0.00    +0.000 C 
ENDROOT
BRANCH   1   3
ATOM      2  N   UNL     1      -0.774  10.653  17.891  0.00  0.00    +0.000 N 
ATOM      3  C   UNL     1       0.004  10.024  18.849  0.00  0.00    +0.000 C 
ATOM      4  O   UNL     1      -0.463   9.462  19.846  0.00  0.00    +0.000 OA
ATOM      5  H   UNL     1      -0.396  10.671  16.955  0.00  0.00    +0.000 HD
BRANCH   2  13
ATOM      6  C   UNL     1      -2.693   9.716  15.868  0.00  0.00    +0.000 C 
ATOM      7  C   UNL     1      -3.068  10.627  17.009  0.00  0.00    +0.000 A 
ATOM      8  C   UNL     1      -4.428  11.003  17.069  0.00  0.00    +0.000 A 
ATOM      9  C   UNL     1      -4.910  11.797  18.095  0.00  0.00    +0.000 A 
ATOM     10  C   UNL     1      -4.029  12.231  19.072  0.00  0.00    +0.000 A 
ATOM     11  C   UNL     1      -2.655  11.893  19.043  0.00  0.00    +0.000 A 
ATOM     12  C   UNL     1      -1.853  12.509  20.164  0.00  0.00    +0.000 C 
ATOM     13  C   UNL     1      -2.153  11.052  18.018  0.00  0.00    +0.000 A 
ENDBRANCH   2  13
ENDBRANCH   1   3
BRANCH   1  14
ATOM     14  N   UNL     1       1.945  11.199  18.054  0.00  0.00    +0.000 N 
ATOM     15  C   UNL     1       2.054  12.364  18.762  0.00  0.00    +0.000 C 
ATOM     16  O   UNL     1       1.715  12.475  19.934  0.00  0.00    +0.000 OA
ATOM     17  H   UNL     1       2.200  11.186  17.069  0.00  0.00    +0.000 HD
BRANCH  15  18
ATOM     18  C   UNL     1       2.635  13.511  17.943  0.00  0.00    +0.000 C 
BRANCH  18  19
ATOM     19  C   UNL     1       2.871  14.753  18.806  0.00  0.00    +0.000 C 
BRANCH  19  20
ATOM     20  C   UNL     1       2.149  16.027  18.411  0.00  0.00    +0.000 A 
ATOM     21  C   UNL     1       0.921  16.321  19.009  0.00  0.00    +0.000 A 
ATOM     22  C   UNL     1       0.224  17.477  18.660  0.00  0.00    +0.000 A 
ATOM     23  C   UNL     1       0.786  18.315  17.714  0.00  0.00    +0.000 A 
ATOM     24  N   UNL     1       1.970  18.073  17.116  0.00  0.00    +0.000 NA
ATOM     25  C   UNL     1       2.623  16.940  17.473  0.00  0.00    +0.000 A 
ENDBRANCH  19  20
ENDBRANCH  18  19
ENDBRANCH  15  18
ENDBRANCH   1  14
BRANCH   1  26
ATOM     26  C   UNL     1       1.976   8.714  17.675  0.00  0.00    +0.000 C 
BRANCH  26  27
ATOM     27  C   UNL     1       2.590   7.556  18.404  0.00  0.00    +0.000 A 
ATOM     28  C   UNL     1       2.208   7.066  19.642  0.00  0.00    +0.000 A 
ATOM     29  N   UNL     1       3.091   6.093  20.010  0.00  0.00    +0.000 N 
ATOM     30  C   UNL     1       4.000   5.876  19.004  0.00  0.00    +0.000 A 
ATOM     31  C   UNL     1       5.078   4.985  18.938  0.00  0.00    +0.000 A 
ATOM     32  C   UNL     1       5.815   4.950  17.753  0.00  0.00    +0.000 A 
ATOM     33  C   UNL     1       5.488   5.770  16.677  0.00  0.00    +0.000 A 
ATOM     34  C   UNL     1       4.424   6.673  16.770  0.00  0.00    +0.000 A 
ATOM     35  C   UNL     1       3.674   6.740  17.960  0.00  0.00    +0.000 A 
ATOM     36  H   UNL     1       3.078   5.591  20.888  0.00  0.00    +0.000 HD
ENDBRANCH  26  27
ENDBRANCH   1  26
TORSDOF 8
ENDMDL
MODEL 4
REMARK VINA RESULT:      -8.7      5.576      9.031
REMARK  Name = 
REMARK  10 active torsions:
REMARK  status: ('A' for Active; 'I' for Inactive)
REMARK    1  A    between atoms: C_1  and  C_2
REMARK    2  A    between atoms: C_6  and  C_7
REMARK    3  A    between atoms: C_8  and  N_9
REMARK    4  A    between atoms: C_10  and  C_12
REMARK    5  A    between atoms: C_12  and  C_13
REMARK    6  A    between atoms: C_12  and  N_23
REMARK    7  A    between atoms: C_13  and  C_14
REMARK    8  A    between atoms: C_24  and  C_26
REMARK    9  A    between atoms: C_26  and  C_27
REMARK   10  A    between atoms: C_27  and  C_28
REMARK                            x       y       z     vdW  Elec       q    Type
REMARK                         _______ _______ _______ _____ _____    ______ ____
ROOT
ATOM      1  C   UNL     1       1.971   8.214  19.663  0.00  0.00    +0.000 C 
ENDROOT
BRANCH   1   3
ATOM      2  N   UNL     1       2.465   5.994  18.534  0.00  0.00    +0.000 N 
ATOM      3  C   UNL     1       2.383   6.706  19.720  0.00  0.00    +0.000 C 
ATOM      4  O   UNL     1       2.736   6.251  20.814  0.00  0.00    +0.000 OA
ATOM      5  H   UNL     1       2.595   6.542  17.696  0.00  0.00    +0.000 HD
BRANCH   2  13
ATOM      6  C   UNL     1       4.610   5.025  16.770  0.00  0.00    +0.000 C 
ATOM      7  C   UNL     1       3.656   4.111  17.496  0.00  0.00    +0.000 A 
ATOM      8  C   UNL     1       3.862   2.729  17.295  0.00  0.00    +0.000 A 
ATOM      9  C   UNL     1       3.084   1.784  17.942  0.00  0.00    +0.000 A 
ATOM     10  C   UNL     1       2.083   2.217  18.796  0.00  0.00    +0.000 A 
ATOM     11  C   UNL     1       1.830   3.592  19.015  0.00  0.00    +0.000 A 
ATOM     12  C   UNL     1       0.663   3.857  19.935  0.00  0.00    +0.000 C 
ATOM     13  C   UNL     1       2.639   4.571  18.386  0.00  0.00    +0.000 A 
ENDBRANCH   2  13
ENDBRANCH   1   3
BRANCH   1  14
ATOM     14  N   UNL     1       0.834   8.314  20.610  0.00  0.00    +0.000 N 
ATOM     15  C   UNL     1       0.830   8.970  21.810  0.00  0.00    +0.000 C 
ATOM     16  O   UNL     1       1.830   9.476  22.305  0.00  0.00    +0.000 OA
ATOM     17  H   UNL     1      -0.022   7.874  20.277  0.00  0.00    +0.000 HD
BRANCH  15  18
ATOM     18  C   UNL     1      -0.543   9.004  22.470  0.00  0.00    +0.000 C 
BRANCH  18  19
ATOM     19  C   UNL     1      -0.692  10.215  23.396  0.00  0.00    +0.000 C 
BRANCH  19  20
ATOM     20  C   UNL     1      -1.148  11.519  22.772  0.00  0.00    +0.000 A 
ATOM     21  C   UNL     1      -2.470  11.931  22.958  0.00  0.00    +0.000 A 
ATOM     22  C   UNL     1      -2.927  13.119  22.388  0.00  0.00    +0.000 A 
ATOM     23  C   UNL     1      -2.035  13.869  21.645  0.00  0.00    +0.000 A 
ATOM     24  N   UNL     1      -0.749  13.513  21.445  0.00  0.00    +0.000 NA
ATOM     25  C   UNL     1      -0.335  12.352  22.009  0.00  0.00    +0.000 A 
ENDBRANCH  19  20
ENDBRANCH  18  19
ENDBRANCH  15  18
ENDBRANCH   1  14
BRANCH   1  26
ATOM     26  C   UNL     1       1.627   8.783  18.271  0.00  0.00    +0.000 C 
BRANCH  26  27
ATOM     27  C   UNL     1       0.922  10.107  18.307  0.00  0.00    +0.000 A 
ATOM     28  C   UNL     1       1.497  11.339  18.572  0.00  0.00    +0.000 A 
ATOM     29  N   UNL     1       0.502  12.272  18.634  0.00  0.00    +0.000 N 
ATOM     30  C   UNL     1      -0.707  11.693  18.335  0.00  0.00    +0.000 A 
ATOM     31  C   UNL     1      -1.987  12.256  18.277  0.00  0.00    +0.000 A 
ATOM     32  C   UNL     1      -3.041  11.425  17.896  0.00  0.00    +0.000 A 
ATOM     33  C   UNL     1      -2.826  10.086  17.582  0.00  0.00    +0.000 A 
ATOM     34  C   UNL     1      -1.543   9.534  17.669  0.00  0.00    +0.000 A 
ATOM     35  C   UNL     1      -0.465  10.347  18.068  0.00  0.00    +0.000 A 
ATOM     36  H   UNL     1       0.630  13.251  18.855  0.00  0.00    +0.000 HD
ENDBRANCH  26  27
ENDBRANCH   1  26
TORSDOF 8
ENDMDL
MODEL 5
REMARK VINA RESULT:      -8.6      4.075      7.575
REMARK  Name = 
REMARK  10 active torsions:
REMARK  status: ('A' for Active; 'I' for Inactive)
REMARK    1  A    between atoms: C_1  and  C_2
REMARK    2  A    between atoms: C_6  and  C_7
REMARK    3  A    between atoms: C_8  and  N_9
REMARK    4  A    between atoms: C_10  and  C_12
REMARK    5  A    between atoms: C_12  and  C_13
REMARK    6  A    between atoms: C_12  and  N_23
REMARK    7  A    between atoms: C_13  and  C_14
REMARK    8  A    between atoms: C_24  and  C_26
REMARK    9  A    between atoms: C_26  and  C_27
REMARK   10  A    between atoms: C_27  and  C_28
REMARK                            x       y       z     vdW  Elec       q    Type
REMARK                         _______ _______ _______ _____ _____    ______ ____
ROOT
ATOM      1  C   UNL     1       1.927   6.888  20.808  0.00  0.00    +0.000 C 
ENDROOT
BRANCH   1   3
ATOM      2  N   UNL     1       0.089   8.639  20.736  0.00  0.00    +0.000 N 
ATOM      3  C   UNL     1       1.420   8.357  20.995  0.00  0.00    +0.000 C 
ATOM      4  O   UNL     1       2.207   9.174  21.485  0.00  0.00    +0.000 OA
ATOM      5  H   UNL     1      -0.547   7.855  20.779  0.00  0.00    +0.000 HD
BRANCH   2  13
ATOM      6  C   UNL     1      -0.576  10.009  23.252  0.00  0.00    +0.000 C 
ATOM      7  C   UNL     1      -0.882  10.579  21.891  0.00  0.00    +0.000 A 
ATOM      8  C   UNL     1      -1.504  11.847  21.884  0.00  0.00    +0.000 A 
ATOM      9  C   UNL     1      -1.794  12.499  20.699  0.00  0.00    +0.000 A 
ATOM     10  C   UNL     1      -1.468  11.883  19.502  0.00  0.00    +0.000 A 
ATOM     11  C   UNL     1      -0.860  10.606  19.459  0.00  0.00    +0.000 A 
ATOM     12  C   UNL     1      -0.637  10.085  18.061  0.00  0.00    +0.000 C 
ATOM     13  C   UNL     1      -0.525   9.940  20.665  0.00  0.00    +0.000 A 
ENDBRANCH   2  13
ENDBRANCH   1   3
BRANCH   1  14
ATOM     14  N   UNL     1       2.905   6.982  19.697  0.00  0.00    +0.000 N 
ATOM     15  C   UNL     1       2.655   7.432  18.430  0.00  0.00    +0.000 C 
ATOM     16  O   UNL     1       1.535   7.716  18.024  0.00  0.00    +0.000 OA
ATOM     17  H   UNL     1       3.854   6.718  19.957  0.00  0.00    +0.000 HD
BRANCH  15  18
ATOM     18  C   UNL     1       3.911   7.539  17.573  0.00  0.00    +0.000 C 
BRANCH  18  19
ATOM     19  C   UNL     1       4.972   6.522  18.003  0.00  0.00    +0.000 C 
BRANCH  19  20
ATOM     20  C   UNL     1       5.731   5.798  16.909  0.00  0.00    +0.000 A 
ATOM     21  C   UNL     1       5.119   5.620  15.666  0.00  0.00    +0.000 A 
ATOM     22  C   UNL     1       5.783   4.947  14.640  0.00  0.00    +0.000 A 
ATOM     23  C   UNL     1       7.055   4.470  14.893  0.00  0.00    +0.000 A 
ATOM     24  N   UNL     1       7.686   4.624  16.076  0.00  0.00    +0.000 NA
ATOM     25  C   UNL     1       7.015   5.279  17.054  0.00  0.00    +0.000 A 
ENDBRANCH  19  20
ENDBRANCH  18  19
ENDBRANCH  15  18
ENDBRANCH   1  14
BRANCH   1  26
ATOM     26  C   UNL     1       0.850   5.814  20.553  0.00  0.00    +0.000 C 
BRANCH  26  27
ATOM     27  C   UNL     1       1.389   4.417  20.454  0.00  0.00    +0.000 A 
ATOM     28  C   UNL     1       1.487   3.498  21.485  0.00  0.00    +0.000 A 
ATOM     29  N   UNL     1       2.142   2.396  21.016  0.00  0.00    +0.000 N 
ATOM     30  C   UNL     1       2.405   2.538  19.676  0.00  0.00    +0.000 A 
ATOM     31  C   UNL     1       3.052   1.672  18.786  0.00  0.00    +0.000 A 
ATOM     32  C   UNL     1       3.137   2.066  17.449  0.00  0.00    +0.000 A 
ATOM     33  C   UNL     1       2.596   3.274  17.018  0.00  0.00    +0.000 A 
ATOM     34  C   UNL     1       1.975   4.138  17.926  0.00  0.00    +0.000 A 
ATOM     35  C   UNL     1       1.891   3.773  19.283  0.00  0.00    +0.000 A 
ATOM     36  H   UNL     1       2.390   1.583  21.565  0.00  0.00    +0.000 HD
ENDBRANCH  26  27
ENDBRANCH   1  26
TORSDOF 8
ENDMDL
MODEL 6
REMARK VINA RESULT:      -8.6      6.206      9.634
REMARK  Name = 
REMARK  10 active torsions:
REMARK  status: ('A' for Active; 'I' for Inactive)
REMARK    1  A    between atoms: C_1  and  C_2
REMARK    2  A    between atoms: C_6  and  C_7
REMARK    3  A    between atoms: C_8  and  N_9
REMARK    4  A    between atoms: C_10  and  C_12
REMARK    5  A    between atoms: C_12  and  C_13
REMARK    6  A    between atoms: C_12  and  N_23
REMARK    7  A    between atoms: C_13  and  C_14
REMARK    8  A    between atoms: C_24  and  C_26
REMARK    9  A    between atoms: C_26  and  C_27
REMARK   10  A    between atoms: C_27  and  C_28
REMARK                            x       y       z     vdW  Elec       q    Type
REMARK                         _______ _______ _______ _____ _____    ______ ____
ROOT
ATOM      1  C   UNL     1       1.670   9.718  19.310  0.00  0.00    +0.000 C 
ENDROOT
BRANCH   1   3
ATOM      2  N   UNL     1       2.461   7.305  19.358  0.00  0.00    +0.000 N 
ATOM      3  C   UNL     1       1.862   8.321  18.631  0.00  0.00    +0.000 C 
ATOM      4  O   UNL     1       1.359   8.154  17.515  0.00  0.00    +0.000 OA
ATOM      5  H   UNL     1       2.426   7.400  20.364  0.00  0.00    +0.000 HD
BRANCH   2  13
ATOM      6  C   UNL     1       1.340   4.880  20.590  0.00  0.00    +0.000 C 
ATOM      7  C   UNL     1       2.377   4.853  19.496  0.00  0.00    +0.000 A 
ATOM      8  C   UNL     1       2.780   3.569  19.068  0.00  0.00    +0.000 A 
ATOM      9  C   UNL     1       3.690   3.407  18.039  0.00  0.00    +0.000 A 
ATOM     10  C   UNL     1       4.214   4.534  17.428  0.00  0.00    +0.000 A 
ATOM     11  C   UNL     1       3.852   5.841  17.835  0.00  0.00    +0.000 A 
ATOM     12  C   UNL     1       4.574   6.933  17.084  0.00  0.00    +0.000 C 
ATOM     13  C   UNL     1       2.895   6.024  18.865  0.00  0.00    +0.000 A 
ENDBRANCH   2  13
ENDBRANCH   1   3
BRANCH   1  14
ATOM     14  N   UNL     1       0.546   9.509  20.254  0.00  0.00    +0.000 N 
ATOM     15  C   UNL     1       0.605   9.581  21.618  0.00  0.00    +0.000 C 
ATOM     16  O   UNL     1       1.651   9.725  22.240  0.00  0.00    +0.000 OA
ATOM     17  H   UNL     1      -0.350   9.341  19.800  0.00  0.00    +0.000 HD
BRANCH  15  18
ATOM     18  C   UNL     1      -0.760   9.459  22.285  0.00  0.00    +0.000 C 
BRANCH  18  19
ATOM     19  C   UNL     1      -0.947  10.516  23.378  0.00  0.00    +0.000 C 
BRANCH  19  20
ATOM     20  C   UNL     1      -1.491  11.867  22.959  0.00  0.00    +0.000 A 
ATOM     21  C   UNL     1      -2.871  12.020  22.802  0.00  0.00    +0.000 A 
ATOM     22  C   UNL     1      -3.406  13.246  22.406  0.00  0.00    +0.000 A 
ATOM     23  C   UNL     1      -2.532  14.293  22.178  0.00  0.00    +0.000 A 
ATOM     24  N   UNL     1      -1.195  14.191  22.323  0.00  0.00    +0.000 NA
ATOM     25  C   UNL     1      -0.705  12.988  22.706  0.00  0.00    +0.000 A 
ENDBRANCH  19  20
ENDBRANCH  18  19
ENDBRANCH  15  18
ENDBRANCH   1  14
BRANCH   1  26
ATOM     26  C   UNL     1       1.430  10.915  18.367  0.00  0.00    +0.000 C 
BRANCH  26  27
ATOM     27  C   UNL     1       0.091  11.570  18.537  0.00  0.00    +0.000 A 
ATOM     28  C   UNL     1      -0.154  12.806  19.112  0.00  0.00    +0.000 A 
ATOM     29  N   UNL     1      -1.506  12.982  19.189  0.00  0.00    +0.000 N 
ATOM     30  C   UNL     1      -2.154  11.924  18.602  0.00  0.00    +0.000 A 
ATOM     31  C   UNL     1      -3.524  11.676  18.450  0.00  0.00    +0.000 A 
ATOM     32  C   UNL     1      -3.898  10.521  17.761  0.00  0.00    +0.000 A 
ATOM     33  C   UNL     1      -2.944   9.651  17.242  0.00  0.00    +0.000 A 
ATOM     34  C   UNL     1      -1.580   9.901  17.426  0.00  0.00    +0.000 A 
ATOM     35  C   UNL     1      -1.175  11.050  18.132  0.00  0.00    +0.000 A 
ATOM     36  H   UNL     1      -1.969  13.779  19.605  0.00  0.00    +0.000 HD
ENDBRANCH  26  27
ENDBRANCH   1  26
TORSDOF 8
ENDMDL
MODEL 7
REMARK VINA RESULT:      -8.6      5.752      9.194
REMARK  Name = 
REMARK  10 active torsions:
REMARK  status: ('A' for Active; 'I' for Inactive)
REMARK    1  A    between atoms: C_1  and  C_2
REMARK    2  A    between atoms: C_6  and  C_7
REMARK    3  A    between atoms: C_8  and  N_9
REMARK    4  A    between atoms: C_10  and  C_12
REMARK    5  A    between atoms: C_12  and  C_13
REMARK    6  A    between atoms: C_12  and  N_23
REMARK    7  A    between atoms: C_13  and  C_14
REMARK    8  A    between atoms: C_24  and  C_26
REMARK    9  A    between atoms: C_26  and  C_27
REMARK   10  A    between atoms: C_27  and  C_28
REMARK                            x       y       z     vdW  Elec       q    Type
REMARK                         _______ _______ _______ _____ _____    ______ ____
ROOT
ATOM      1  C   UNL     1       2.082   8.559  19.329  0.00  0.00    +0.000 C 
ENDROOT
BRANCH   1   3
ATOM      2  N   UNL     1       2.703   6.191  20.003  0.00  0.00    +0.000 N 
ATOM      3  C   UNL     1       2.268   7.041  18.999  0.00  0.00    +0.000 C 
ATOM      4  O   UNL     1       1.899   6.649  17.886  0.00  0.00    +0.000 OA
ATOM      5  H   UNL     1       2.548   6.507  20.950  0.00  0.00    +0.000 HD
BRANCH   2  13
ATOM      6  C   UNL     1       5.487   5.633  19.233  0.00  0.00    +0.000 C 
ATOM      7  C   UNL     1       4.453   4.557  19.447  0.00  0.00    +0.000 A 
ATOM      8  C   UNL     1       4.907   3.231  19.271  0.00  0.00    +0.000 A 
ATOM      9  C   UNL     1       4.068   2.151  19.484  0.00  0.00    +0.000 A 
ATOM     10  C   UNL     1       2.760   2.388  19.870  0.00  0.00    +0.000 A 
ATOM     11  C   UNL     1       2.257   3.700  20.041  0.00  0.00    +0.000 A 
ATOM     12  C   UNL     1       0.794   3.748  20.408  0.00  0.00    +0.000 C 
ATOM     13  C   UNL     1       3.112   4.817  19.860  0.00  0.00    +0.000 A 
ENDBRANCH   2  13
ENDBRANCH   1   3
BRANCH   1  14
ATOM     14  N   UNL     1       0.908   8.591  20.235  0.00  0.00    +0.000 N 
ATOM     15  C   UNL     1       0.880   9.073  21.514  0.00  0.00    +0.000 C 
ATOM     16  O   UNL     1       1.880   9.446  22.115  0.00  0.00    +0.000 OA
ATOM     17  H   UNL     1       0.047   8.253  19.808  0.00  0.00    +0.000 HD
BRANCH  15  18
ATOM     18  C   UNL     1      -0.519   9.093  22.117  0.00  0.00    +0.000 C 
BRANCH  18  19
ATOM     19  C   UNL     1      -0.617  10.088  23.276  0.00  0.00    +0.000 C 
BRANCH  19  20
ATOM     20  C   UNL     1      -1.286  11.421  23.001  0.00  0.00    +0.000 A 
ATOM     21  C   UNL     1      -0.547  12.432  22.381  0.00  0.00    +0.000 A 
ATOM     22  C   UNL     1      -1.127  13.674  22.124  0.00  0.00    +0.000 A 
ATOM     23  C   UNL     1      -2.444  13.867  22.497  0.00  0.00    +0.000 A 
ATOM     24  N   UNL     1      -3.196  12.917  23.091  0.00  0.00    +0.000 NA
ATOM     25  C   UNL     1      -2.604  11.721  23.330  0.00  0.00    +0.000 A 
ENDBRANCH  19  20
ENDBRANCH  18  19
ENDBRANCH  15  18
ENDBRANCH   1  14
BRANCH   1  26
ATOM     26  C   UNL     1       1.922   9.511  18.126  0.00  0.00    +0.000 C 
BRANCH  26  27
ATOM     27  C   UNL     1       1.032  10.689  18.391  0.00  0.00    +0.000 A 
ATOM     28  C   UNL     1       1.431  11.942  18.826  0.00  0.00    +0.000 A 
ATOM     29  N   UNL     1       0.314  12.689  19.065  0.00  0.00    +0.000 N 
ATOM     30  C   UNL     1      -0.811  11.981  18.720  0.00  0.00    +0.000 A 
ATOM     31  C   UNL     1      -2.162  12.340  18.793  0.00  0.00    +0.000 A 
ATOM     32  C   UNL     1      -3.100  11.420  18.323  0.00  0.00    +0.000 A 
ATOM     33  C   UNL     1      -2.706  10.193  17.797  0.00  0.00    +0.000 A 
ATOM     34  C   UNL     1      -1.353   9.841  17.755  0.00  0.00    +0.000 A 
ATOM     35  C   UNL     1      -0.387  10.743  18.239  0.00  0.00    +0.000 A 
ATOM     36  H   UNL     1       0.307  13.632  19.431  0.00  0.00    +0.000 HD
ENDBRANCH  26  27
ENDBRANCH   1  26
TORSDOF 8
ENDMDL
MODEL 8
REMARK VINA RESULT:      -8.6      7.201     11.526
REMARK  Name = 
REMARK  10 active torsions:
REMARK  status: ('A' for Active; 'I' for Inactive)
REMARK    1  A    between atoms: C_1  and  C_2
REMARK    2  A    between atoms: C_6  and  C_7
REMARK    3  A    between atoms: C_8  and  N_9
REMARK    4  A    between atoms: C_10  and  C_12
REMARK    5  A    between atoms: C_12  and  C_13
REMARK    6  A    between atoms: C_12  and  N_23
REMARK    7  A    between atoms: C_13  and  C_14
REMARK    8  A    between atoms: C_24  and  C_26
REMARK    9  A    between atoms: C_26  and  C_27
REMARK   10  A    between atoms: C_27  and  C_28
REMARK                            x       y       z     vdW  Elec       q    Type
REMARK                         _______ _______ _______ _____ _____    ______ ____
ROOT
ATOM      1  C   UNL     1       0.617  11.379  19.668  0.00  0.00    +0.000 C 
ENDROOT
BRANCH   1   3
ATOM      2  N   UNL     1      -1.882  11.285  19.228  0.00  0.00    +0.000 N 
ATOM      3  C   UNL     1      -0.676  11.913  18.966  0.00  0.00    +0.000 C 
ATOM      4  O   UNL     1      -0.578  12.950  18.301  0.00  0.00    +0.000 OA
ATOM      5  H   UNL     1      -1.932  10.763  20.092  0.00  0.00    +0.000 HD
BRANCH   2  13
ATOM      6  C   UNL     1      -2.274  10.046  16.589  0.00  0.00    +0.000 C 
ATOM      7  C   UNL     1      -3.302  10.925  17.254  0.00  0.00    +0.000 A 
ATOM      8  C   UNL     1      -4.502  11.114  16.534  0.00  0.00    +0.000 A 
ATOM      9  C   UNL     1      -5.544  11.860  17.057  0.00  0.00    +0.000 A 
ATOM     10  C   UNL     1      -5.391  12.434  18.308  0.00  0.00    +0.000 A 
ATOM     11  C   UNL     1      -4.200  12.286  19.058  0.00  0.00    +0.000 A 
ATOM     12  C   UNL     1      -4.210  13.033  20.369  0.00  0.00    +0.000 C 
ATOM     13  C   UNL     1      -3.137  11.496  18.552  0.00  0.00    +0.000 A 
ENDBRANCH   2  13
ENDBRANCH   1   3
BRANCH   1  14
ATOM     14  N   UNL     1       0.786  10.011  19.121  0.00  0.00    +0.000 N 
ATOM     15  C   UNL     1       1.708   9.614  18.193  0.00  0.00    +0.000 C 
ATOM     16  O   UNL     1       2.452  10.391  17.607  0.00  0.00    +0.000 OA
ATOM     17  H   UNL     1       0.164   9.320  19.537  0.00  0.00    +0.000 HD
BRANCH  15  18
ATOM     18  C   UNL     1       1.711   8.109  17.956  0.00  0.00    +0.000 C 
BRANCH  18  19
ATOM     19  C   UNL     1       3.137   7.560  17.848  0.00  0.00    +0.000 C 
BRANCH  19  20
ATOM     20  C   UNL     1       3.360   6.111  18.234  0.00  0.00    +0.000 A 
ATOM     21  C   UNL     1       2.401   5.161  17.874  0.00  0.00    +0.000 A 
ATOM     22  C   UNL     1       2.569   3.821  18.224  0.00  0.00    +0.000 A 
ATOM     23  C   UNL     1       3.705   3.470  18.929  0.00  0.00    +0.000 A 
ATOM     24  N   UNL     1       4.658   4.353  19.292  0.00  0.00    +0.000 NA
ATOM     25  C   UNL     1       4.467   5.648  18.940  0.00  0.00    +0.000 A 
ENDBRANCH  19  20
ENDBRANCH  18  19
ENDBRANCH  15  18
ENDBRANCH   1  14
BRANCH   1  26
ATOM     26  C   UNL     1       0.623  11.401  21.210  0.00  0.00    +0.000 C 
BRANCH  26  27
ATOM     27  C   UNL     1       0.043  12.649  21.807  0.00  0.00    +0.000 A 
ATOM     28  C   UNL     1       0.562  13.929  21.706  0.00  0.00    +0.000 A 
ATOM     29  N   UNL     1      -0.186  14.759  22.489  0.00  0.00    +0.000 N 
ATOM     30  C   UNL     1      -1.237  14.067  23.040  0.00  0.00    +0.000 A 
ATOM     31  C   UNL     1      -2.252  14.502  23.901  0.00  0.00    +0.000 A 
ATOM     32  C   UNL     1      -3.227  13.575  24.269  0.00  0.00    +0.000 A 
ATOM     33  C   UNL     1      -3.193  12.266  23.795  0.00  0.00    +0.000 A 
ATOM     34  C   UNL     1      -2.158  11.843  22.955  0.00  0.00    +0.000 A 
ATOM     35  C   UNL     1      -1.151  12.754  22.583  0.00  0.00    +0.000 A 
ATOM     36  H   UNL     1      -0.008  15.743  22.637  0.00  0.00    +0.000 HD
ENDBRANCH  26  27
ENDBRANCH   1  26
TORSDOF 8
ENDMDL
MODEL 9
REMARK VINA RESULT:      -8.6      6.869     10.010
REMARK  Name = 
REMARK  10 active torsions:
REMARK  status: ('A' for Active; 'I' for Inactive)
REMARK    1  A    between atoms: C_1  and  C_2
REMARK    2  A    between atoms: C_6  and  C_7
REMARK    3  A    between atoms: C_8  and  N_9
REMARK    4  A    between atoms: C_10  and  C_12
REMARK    5  A    between atoms: C_12  and  C_13
REMARK    6  A    between atoms: C_12  and  N_23
REMARK    7  A    between atoms: C_13  and  C_14
REMARK    8  A    between atoms: C_24  and  C_26
REMARK    9  A    between atoms: C_26  and  C_27
REMARK   10  A    between atoms: C_27  and  C_28
REMARK                            x       y       z     vdW  Elec       q    Type
REMARK                         _______ _______ _______ _____ _____    ______ ____
ROOT
ATOM      1  C   UNL     1       0.919  10.656  18.740  0.00  0.00    +0.000 C 
ENDROOT
BRANCH   1   3
ATOM      2  N   UNL     1      -1.376  11.412  17.958  0.00  0.00    +0.000 N 
ATOM      3  C   UNL     1      -0.642  10.537  18.742  0.00  0.00    +0.000 C 
ATOM      4  O   UNL     1      -1.142   9.586  19.353  0.00  0.00    +0.000 OA
ATOM      5  H   UNL     1      -0.883  11.834  17.184  0.00  0.00    +0.000 HD
BRANCH   2  13
ATOM      6  C   UNL     1      -2.887  10.662  15.548  0.00  0.00    +0.000 C 
ATOM      7  C   UNL     1      -3.525  11.264  16.774  0.00  0.00    +0.000 A 
ATOM      8  C   UNL     1      -4.925  11.437  16.711  0.00  0.00    +0.000 A 
ATOM      9  C   UNL     1      -5.636  11.935  17.789  0.00  0.00    +0.000 A 
ATOM     10  C   UNL     1      -4.949  12.272  18.943  0.00  0.00    +0.000 A 
ATOM     11  C   UNL     1      -3.544  12.132  19.045  0.00  0.00    +0.000 A 
ATOM     12  C   UNL     1      -2.979  12.607  20.361  0.00  0.00    +0.000 C 
ATOM     13  C   UNL     1      -2.805  11.592  17.962  0.00  0.00    +0.000 A 
ENDBRANCH   2  13
ENDBRANCH   1   3
BRANCH   1  14
ATOM     14  N   UNL     1       1.385   9.282  19.050  0.00  0.00    +0.000 N 
ATOM     15  C   UNL     1       2.165   8.490  18.253  0.00  0.00    +0.000 C 
ATOM     16  O   UNL     1       2.487   8.792  17.111  0.00  0.00    +0.000 OA
ATOM     17  H   UNL     1       1.113   8.951  19.974  0.00  0.00    +0.000 HD
BRANCH  15  18
ATOM     18  C   UNL     1       2.586   7.190  18.930  0.00  0.00    +0.000 C 
BRANCH  18  19
ATOM     19  C   UNL     1       3.314   6.261  17.955  0.00  0.00    +0.000 C 
BRANCH  19  20
ATOM     20  C   UNL     1       4.806   6.071  18.152  0.00  0.00    +0.000 A 
ATOM     21  C   UNL     1       5.690   6.717  17.284  0.00  0.00    +0.000 A 
ATOM     22  C   UNL     1       7.067   6.554  17.428  0.00  0.00    +0.000 A 
ATOM     23  C   UNL     1       7.523   5.742  18.450  0.00  0.00    +0.000 A 
ATOM     24  N   UNL     1       6.706   5.104  19.314  0.00  0.00    +0.000 NA
ATOM     25  C   UNL     1       5.373   5.279  19.147  0.00  0.00    +0.000 A 
ENDBRANCH  19  20
ENDBRANCH  18  19
ENDBRANCH  15  18
ENDBRANCH   1  14
BRANCH   1  26
ATOM     26  C   UNL     1       1.531  11.710  19.685  0.00  0.00    +0.000 C 
BRANCH  26  27
ATOM     27  C   UNL     1       1.948  12.978  18.999  0.00  0.00    +0.000 A 
ATOM     28  C   UNL     1       3.115  13.180  18.281  0.00  0.00    +0.000 A 
ATOM     29  N   UNL     1       3.178  14.497  17.927  0.00  0.00    +0.000 N 
ATOM     30  C   UNL     1       2.037  15.148  18.327  0.00  0.00    +0.000 A 
ATOM     31  C   UNL     1       1.666  16.490  18.182  0.00  0.00    +0.000 A 
ATOM     32  C   UNL     1       0.407  16.866  18.654  0.00  0.00    +0.000 A 
ATOM     33  C   UNL     1      -0.447  15.939  19.244  0.00  0.00    +0.000 A 
ATOM     34  C   UNL     1      -0.050  14.608  19.403  0.00  0.00    +0.000 A 
ATOM     35  C   UNL     1       1.222  14.206  18.951  0.00  0.00    +0.000 A 
ATOM     36  H   UNL     1       3.943  14.934  17.430  0.00  0.00    +0.000 HD
ENDBRANCH  26  27
ENDBRANCH   1  26
TORSDOF 8
ENDMDL
