MODEL 1
REMARK VINA RESULT:      -7.1      0.000      0.000
REMARK  Name = 
REMARK  6 active torsions:
REMARK  status: ('A' for Active; 'I' for Inactive)
REMARK    1  A    between atoms: C_1  and  C_2
REMARK    2  A    between atoms: C_7  and  C_9
REMARK    3  A    between atoms: C_13  and  N_14
REMARK    4  A    between atoms: N_14  and  C_15
REMARK    5  A    between atoms: C_15  and  C_16
REMARK    6  A    between atoms: N_23  and  C_24
REMARK                            x       y       z     vdW  Elec       q    Type
REMARK                         _______ _______ _______ _____ _____    ______ ____
ROOT
ATOM      1  C   UNL     1       3.134   4.581  20.810  0.00  0.00    +0.000 C 
ATOM      2  C   UNL     1       4.378   4.983  19.991  0.00  0.00    +0.000 C 
ATOM      3  C   UNL     1       4.246   5.823  18.711  0.00  0.00    +0.000 C 
ATOM      4  C   UNL     1       3.373   5.370  17.532  0.00  0.00    +0.000 C 
ATOM      5  C   UNL     1       3.608   3.991  16.841  0.00  0.00    +0.000 C 
ATOM      6  C   UNL     1       2.344   3.090  17.055  0.00  0.00    +0.000 C 
ATOM      7  N   UNL     1       1.933   2.981  18.447  0.00  0.00    +0.000 N 
ATOM      8  C   UNL     1       0.533   2.637  18.661  0.00  0.00    +0.000 C 
ATOM      9  C   UNL     1       2.846   2.477  19.359  0.00  0.00    +0.000 C 
ATOM     10  O   UNL     1       3.729   1.678  19.056  0.00  0.00    +0.000 OA
ATOM     11  C   UNL     1       2.783   3.076  20.744  0.00  0.00    +0.000 C 
ENDROOT
BRANCH   1  18
ATOM     12  C   UNL     1       0.836  11.437  20.318  0.00  0.00    +0.000 C 
ATOM     13  C   UNL     1       0.657   9.990  20.601  0.00  0.00    +0.000 A 
ATOM     14  C   UNL     1      -0.516   9.382  21.005  0.00  0.00    +0.000 A 
ATOM     15  S   UNL     1      -0.280   7.696  21.145  0.00  0.00    +0.000 S 
ATOM     16  C   UNL     1       1.353   7.889  20.697  0.00  0.00    +0.000 A 
ATOM     17  N   UNL     1       2.238   6.837  20.652  0.00  0.00    +0.000 N 
ATOM     18  C   UNL     1       1.911   5.495  20.689  0.00  0.00    +0.000 C 
ATOM     19  O   UNL     1       0.772   5.037  20.680  0.00  0.00    +0.000 OA
ATOM     20  N   UNL     1       1.735   9.124  20.460  0.00  0.00    +0.000 NA
ATOM     21  H   UNL     1       3.195   7.125  20.498  0.00  0.00    +0.000 HD
ENDBRANCH   1  18
BRANCH   5  22
ATOM     22  N   UNL     1       4.922   3.401  17.163  0.00  0.00    +0.000 NA
ATOM     23  H   UNL     1       4.881   2.404  16.934  0.00  0.00    +0.000 HD
BRANCH  22  24
ATOM     24  C   UNL     1       6.013   3.906  16.318  0.00  0.00    +0.000 C 
BRANCH  24  25
ATOM     25  C   UNL     1       6.762   5.031  16.986  0.00  0.00    +0.000 A 
ATOM     26  C   UNL     1       7.419   4.858  18.206  0.00  0.00    +0.000 A 
ATOM     27  C   UNL     1       8.052   5.943  18.808  0.00  0.00    +0.000 A 
ATOM     28  C   UNL     1       8.009   7.170  18.167  0.00  0.00    +0.000 A 
ATOM     29  N   UNL     1       7.402   7.377  16.980  0.00  0.00    +0.000 NA
ATOM     30  C   UNL     1       6.804   6.301  16.414  0.00  0.00    +0.000 A 
ENDBRANCH  24  25
ENDBRANCH  22  24
ENDBRANCH   5  22
TORSDOF 4
ENDMDL
MODEL 2
REMARK VINA RESULT:      -6.4      1.460      2.199
REMARK  Name = 
REMARK  6 active torsions:
REMARK  status: ('A' for Active; 'I' for Inactive)
REMARK    1  A    between atoms: C_1  and  C_2
REMARK    2  A    between atoms: C_7  and  C_9
REMARK    3  A    between atoms: C_13  and  N_14
REMARK    4  A    between atoms: N_14  and  C_15
REMARK    5  A    between atoms: C_15  and  C_16
REMARK    6  A    between atoms: N_23  and  C_24
REMARK                            x       y       z     vdW  Elec       q    Type
REMARK                         _______ _______ _______ _____ _____    ______ ____
ROOT
ATOM      1  C   UNL     1       3.394   4.633  20.652  0.00  0.00    +0.000 C 
ATOM      2  C   UNL     1       4.584   5.052  19.764  0.00  0.00    +0.000 C 
ATOM      3  C   UNL     1       4.366   5.870  18.482  0.00  0.00    +0.000 C 
ATOM      4  C   UNL     1       3.443   5.381  17.356  0.00  0.00    +0.000 C 
ATOM      5  C   UNL     1       3.674   3.998  16.672  0.00  0.00    +0.000 C 
ATOM      6  C   UNL     1       2.445   3.072  16.963  0.00  0.00    +0.000 C 
ATOM      7  N   UNL     1       2.110   2.973  18.377  0.00  0.00    +0.000 N 
ATOM      8  C   UNL     1       0.732   2.600  18.669  0.00  0.00    +0.000 C 
ATOM      9  C   UNL     1       3.081   2.503  19.246  0.00  0.00    +0.000 C 
ATOM     10  O   UNL     1       3.966   1.720  18.908  0.00  0.00    +0.000 OA
ATOM     11  C   UNL     1       3.076   3.120  20.625  0.00  0.00    +0.000 C 
ENDROOT
BRANCH   1  18
ATOM     12  C   UNL     1       0.907  11.391  19.833  0.00  0.00    +0.000 C 
ATOM     13  C   UNL     1       0.790   9.971  20.253  0.00  0.00    +0.000 A 
ATOM     14  C   UNL     1      -0.321   9.385  20.826  0.00  0.00    +0.000 A 
ATOM     15  S   UNL     1      -0.035   7.720  21.081  0.00  0.00    +0.000 S 
ATOM     16  C   UNL     1       1.539   7.895  20.450  0.00  0.00    +0.000 A 
ATOM     17  N   UNL     1       2.437   6.856  20.401  0.00  0.00    +0.000 N 
ATOM     18  C   UNL     1       2.145   5.518  20.584  0.00  0.00    +0.000 C 
ATOM     19  O   UNL     1       1.022   5.045  20.732  0.00  0.00    +0.000 OA
ATOM     20  N   UNL     1       1.866   9.111  20.073  0.00  0.00    +0.000 NA
ATOM     21  H   UNL     1       3.366   7.142  20.124  0.00  0.00    +0.000 HD
ENDBRANCH   1  18
BRANCH   5  22
ATOM     22  N   UNL     1       5.017   3.442  16.931  0.00  0.00    +0.000 NA
ATOM     23  H   UNL     1       5.160   2.659  16.290  0.00  0.00    +0.000 HD
BRANCH  22  24
ATOM     24  C   UNL     1       6.108   4.368  16.597  0.00  0.00    +0.000 C 
BRANCH  24  25
ATOM     25  C   UNL     1       6.389   4.388  15.116  0.00  0.00    +0.000 A 
ATOM     26  C   UNL     1       5.732   3.534  14.228  0.00  0.00    +0.000 A 
ATOM     27  C   UNL     1       6.066   3.554  12.876  0.00  0.00    +0.000 A 
ATOM     28  C   UNL     1       7.050   4.433  12.454  0.00  0.00    +0.000 A 
ATOM     29  N   UNL     1       7.696   5.287  13.273  0.00  0.00    +0.000 NA
ATOM     30  C   UNL     1       7.342   5.252  14.580  0.00  0.00    +0.000 A 
ENDBRANCH  24  25
ENDBRANCH  22  24
ENDBRANCH   5  22
TORSDOF 4
ENDMDL
MODEL 3
REMARK VINA RESULT:      -6.2      4.565      9.826
REMARK  Name = 
REMARK  6 active torsions:
REMARK  status: ('A' for Active; 'I' for Inactive)
REMARK    1  A    between atoms: C_1  and  C_2
REMARK    2  A    between atoms: C_7  and  C_9
REMARK    3  A    between atoms: C_13  and  N_14
REMARK    4  A    between atoms: N_14  and  C_15
REMARK    5  A    between atoms: C_15  and  C_16
REMARK    6  A    between atoms: N_23  and  C_24
REMARK                            x       y       z     vdW  Elec       q    Type
REMARK                         _______ _______ _______ _____ _____    ______ ____
ROOT
ATOM      1  C   UNL     1      -0.004  11.033  18.505  0.00  0.00    +0.000 C 
ATOM      2  C   UNL     1       0.733  12.324  18.090  0.00  0.00    +0.000 C 
ATOM      3  C   UNL     1       2.024  12.761  18.799  0.00  0.00    +0.000 C 
ATOM      4  C   UNL     1       2.080  12.981  20.317  0.00  0.00    +0.000 C 
ATOM      5  C   UNL     1       1.118  13.991  21.018  0.00  0.00    +0.000 C 
ATOM      6  C   UNL     1       0.178  13.206  21.996  0.00  0.00    +0.000 C 
ATOM      7  N   UNL     1      -0.510  12.085  21.372  0.00  0.00    +0.000 N 
ATOM      8  C   UNL     1      -0.946  11.034  22.281  0.00  0.00    +0.000 C 
ATOM      9  C   UNL     1      -1.323  12.344  20.281  0.00  0.00    +0.000 C 
ATOM     10  O   UNL     1      -1.902  13.415  20.112  0.00  0.00    +0.000 OA
ATOM     11  C   UNL     1      -1.355  11.269  19.220  0.00  0.00    +0.000 C 
ENDROOT
BRANCH   1  18
ATOM     12  C   UNL     1       4.753   5.689  17.346  0.00  0.00    +0.000 C 
ATOM     13  C   UNL     1       3.731   6.412  18.146  0.00  0.00    +0.000 A 
ATOM     14  C   UNL     1       3.282   6.052  19.402  0.00  0.00    +0.000 A 
ATOM     15  S   UNL     1       2.159   7.207  19.971  0.00  0.00    +0.000 S 
ATOM     16  C   UNL     1       2.319   8.079  18.515  0.00  0.00    +0.000 A 
ATOM     17  N   UNL     1       1.584   9.209  18.245  0.00  0.00    +0.000 N 
ATOM     18  C   UNL     1       0.847   9.939  19.157  0.00  0.00    +0.000 C 
ATOM     19  O   UNL     1       0.807   9.738  20.367  0.00  0.00    +0.000 OA
ATOM     20  N   UNL     1       3.144   7.562  17.632  0.00  0.00    +0.000 NA
ATOM     21  H   UNL     1       1.692   9.539  17.295  0.00  0.00    +0.000 HD
ENDBRANCH   1  18
BRANCH   5  22
ATOM     22  N   UNL     1       0.481  14.931  20.075  0.00  0.00    +0.000 NA
ATOM     23  H   UNL     1      -0.513  14.986  20.312  0.00  0.00    +0.000 HD
BRANCH  22  24
ATOM     24  C   UNL     1       0.950  16.315  20.223  0.00  0.00    +0.000 C 
BRANCH  24  25
ATOM     25  C   UNL     1       0.885  17.069  18.918  0.00  0.00    +0.000 A 
ATOM     26  C   UNL     1      -0.328  17.479  18.363  0.00  0.00    +0.000 A 
ATOM     27  C   UNL     1      -0.338  18.127  17.129  0.00  0.00    +0.000 A 
ATOM     28  C   UNL     1       0.871  18.343  16.489  0.00  0.00    +0.000 A 
ATOM     29  N   UNL     1       2.066  17.980  16.998  0.00  0.00    +0.000 NA
ATOM     30  C   UNL     1       2.045  17.363  18.204  0.00  0.00    +0.000 A 
ENDBRANCH  24  25
ENDBRANCH  22  24
ENDBRANCH   5  22
TORSDOF 4
ENDMDL
MODEL 4
REMARK VINA RESULT:      -6.2     10.156     12.561
REMARK  Name = 
REMARK  6 active torsions:
REMARK  status: ('A' for Active; 'I' for Inactive)
REMARK    1  A    between atoms: C_1  and  C_2
REMARK    2  A    between atoms: C_7  and  C_9
REMARK    3  A    between atoms: C_13  and  N_14
REMARK    4  A    between atoms: N_14  and  C_15
REMARK    5  A    between atoms: C_15  and  C_16
REMARK    6  A    between atoms: N_23  and  C_24
REMARK                            x       y       z     vdW  Elec       q    Type
REMARK                         _______ _______ _______ _____ _____    ______ ____
ROOT
ATOM      1  C   UNL     1      -1.327  12.994  21.386  0.00  0.00    +0.000 C 
ATOM      2  C   UNL     1      -2.588  12.612  20.582  0.00  0.00    +0.000 C 
ATOM      3  C   UNL     1      -3.620  13.676  20.177  0.00  0.00    +0.000 C 
ATOM      4  C   UNL     1      -4.312  14.570  21.215  0.00  0.00    +0.000 C 
ATOM      5  C   UNL     1      -5.119  13.952  22.398  0.00  0.00    +0.000 C 
ATOM      6  C   UNL     1      -4.421  14.333  23.747  0.00  0.00    +0.000 C 
ATOM      7  N   UNL     1      -3.001  14.013  23.782  0.00  0.00    +0.000 N 
ATOM      8  C   UNL     1      -2.207  14.789  24.726  0.00  0.00    +0.000 C 
ATOM      9  C   UNL     1      -2.625  12.695  23.586  0.00  0.00    +0.000 C 
ATOM     10  O   UNL     1      -3.338  11.740  23.883  0.00  0.00    +0.000 OA
ATOM     11  C   UNL     1      -1.322  12.490  22.848  0.00  0.00    +0.000 C 
ENDROOT
BRANCH   1  18
ATOM     12  C   UNL     1      -0.003  18.402  16.746  0.00  0.00    +0.000 C 
ATOM     13  C   UNL     1       0.147  17.695  18.043  0.00  0.00    +0.000 A 
ATOM     14  C   UNL     1       0.908  18.119  19.115  0.00  0.00    +0.000 A 
ATOM     15  S   UNL     1       0.731  17.032  20.421  0.00  0.00    +0.000 S 
ATOM     16  C   UNL     1      -0.306  16.066  19.475  0.00  0.00    +0.000 A 
ATOM     17  N   UNL     1      -0.831  14.879  19.930  0.00  0.00    +0.000 N 
ATOM     18  C   UNL     1      -0.833  14.437  21.238  0.00  0.00    +0.000 C 
ATOM     19  O   UNL     1      -0.442  15.078  22.209  0.00  0.00    +0.000 OA
ATOM     20  N   UNL     1      -0.521  16.493  18.251  0.00  0.00    +0.000 NA
ATOM     21  H   UNL     1      -1.319  14.357  19.214  0.00  0.00    +0.000 HD
ENDBRANCH   1  18
BRANCH   5  22
ATOM     22  N   UNL     1      -5.454  12.530  22.188  0.00  0.00    +0.000 NA
ATOM     23  H   UNL     1      -5.405  12.059  23.095  0.00  0.00    +0.000 HD
BRANCH  22  24
ATOM     24  C   UNL     1      -6.843  12.313  21.759  0.00  0.00    +0.000 C 
BRANCH  24  25
ATOM     25  C   UNL     1      -6.972  12.326  20.257  0.00  0.00    +0.000 A 
ATOM     26  C   UNL     1      -6.370  11.355  19.456  0.00  0.00    +0.000 A 
ATOM     27  C   UNL     1      -6.476  11.442  18.069  0.00  0.00    +0.000 A 
ATOM     28  C   UNL     1      -7.185  12.501  17.528  0.00  0.00    +0.000 A 
ATOM     29  N   UNL     1      -7.798  13.450  18.265  0.00  0.00    +0.000 NA
ATOM     30  C   UNL     1      -7.687  13.333  19.610  0.00  0.00    +0.000 A 
ENDBRANCH  24  25
ENDBRANCH  22  24
ENDBRANCH   5  22
TORSDOF 4
ENDMDL
MODEL 5
REMARK VINA RESULT:      -6.2      9.129     11.970
REMARK  Name = 
REMARK  6 active torsions:
REMARK  status: ('A' for Active; 'I' for Inactive)
REMARK    1  A    between atoms: C_1  and  C_2
REMARK    2  A    between atoms: C_7  and  C_9
REMARK    3  A    between atoms: C_13  and  N_14
REMARK    4  A    between atoms: N_14  and  C_15
REMARK    5  A    between atoms: C_15  and  C_16
REMARK    6  A    between atoms: N_23  and  C_24
REMARK                            x       y       z     vdW  Elec       q    Type
REMARK                         _______ _______ _______ _____ _____    ______ ____
ROOT
ATOM      1  C   UNL     1      -3.451  12.941  24.029  0.00  0.00    +0.000 C 
ATOM      2  C   UNL     1      -2.938  12.448  22.660  0.00  0.00    +0.000 C 
ATOM      3  C   UNL     1      -2.573  13.443  21.547  0.00  0.00    +0.000 C 
ATOM      4  C   UNL     1      -3.580  14.475  21.021  0.00  0.00    +0.000 C 
ATOM      5  C   UNL     1      -4.960  14.030  20.443  0.00  0.00    +0.000 C 
ATOM      6  C   UNL     1      -6.102  14.598  21.352  0.00  0.00    +0.000 C 
ATOM      7  N   UNL     1      -5.935  14.287  22.764  0.00  0.00    +0.000 N 
ATOM      8  C   UNL     1      -6.611  15.189  23.688  0.00  0.00    +0.000 C 
ATOM      9  C   UNL     1      -5.862  12.954  23.134  0.00  0.00    +0.000 C 
ATOM     10  O   UNL     1      -6.408  12.050  22.507  0.00  0.00    +0.000 OA
ATOM     11  C   UNL     1      -4.946  12.649  24.296  0.00  0.00    +0.000 C 
ENDROOT
BRANCH   1  18
ATOM     12  C   UNL     1       2.010  17.701  24.248  0.00  0.00    +0.000 C 
ATOM     13  C   UNL     1       0.695  17.164  24.680  0.00  0.00    +0.000 A 
ATOM     14  C   UNL     1      -0.130  17.714  25.642  0.00  0.00    +0.000 A 
ATOM     15  S   UNL     1      -1.571  16.805  25.764  0.00  0.00    +0.000 S 
ATOM     16  C   UNL     1      -0.995  15.734  24.569  0.00  0.00    +0.000 A 
ATOM     17  N   UNL     1      -1.696  14.620  24.173  0.00  0.00    +0.000 N 
ATOM     18  C   UNL     1      -3.021  14.349  24.455  0.00  0.00    +0.000 C 
ATOM     19  O   UNL     1      -3.799  15.105  25.029  0.00  0.00    +0.000 OA
ATOM     20  N   UNL     1       0.201  16.004  24.094  0.00  0.00    +0.000 NA
ATOM     21  H   UNL     1      -1.172  14.015  23.555  0.00  0.00    +0.000 HD
ENDBRANCH   1  18
BRANCH   5  22
ATOM     22  N   UNL     1      -5.010  12.592  20.113  0.00  0.00    +0.000 NA
ATOM     23  H   UNL     1      -5.752  12.168  20.675  0.00  0.00    +0.000 HD
BRANCH  22  24
ATOM     24  C   UNL     1      -5.426  12.324  18.730  0.00  0.00    +0.000 C 
BRANCH  24  25
ATOM     25  C   UNL     1      -4.331  11.657  17.936  0.00  0.00    +0.000 A 
ATOM     26  C   UNL     1      -4.519  11.252  16.614  0.00  0.00    +0.000 A 
ATOM     27  C   UNL     1      -3.492  10.592  15.941  0.00  0.00    +0.000 A 
ATOM     28  C   UNL     1      -2.306  10.360  16.617  0.00  0.00    +0.000 A 
ATOM     29  N   UNL     1      -2.075  10.751  17.887  0.00  0.00    +0.000 NA
ATOM     30  C   UNL     1      -3.087  11.399  18.511  0.00  0.00    +0.000 A 
ENDBRANCH  24  25
ENDBRANCH  22  24
ENDBRANCH   5  22
TORSDOF 4
ENDMDL
MODEL 6
REMARK VINA RESULT:      -6.2      4.766      8.154
REMARK  Name = 
REMARK  6 active torsions:
REMARK  status: ('A' for Active; 'I' for Inactive)
REMARK    1  A    between atoms: C_1  and  C_2
REMARK    2  A    between atoms: C_7  and  C_9
REMARK    3  A    between atoms: C_13  and  N_14
REMARK    4  A    between atoms: N_14  and  C_15
REMARK    5  A    between atoms: C_15  and  C_16
REMARK    6  A    between atoms: N_23  and  C_24
REMARK                            x       y       z     vdW  Elec       q    Type
REMARK                         _______ _______ _______ _____ _____    ______ ____
ROOT
ATOM      1  C   UNL     1      -1.168  13.532  19.712  0.00  0.00    +0.000 C 
ATOM      2  C   UNL     1      -0.563  12.744  18.531  0.00  0.00    +0.000 C 
ATOM      3  C   UNL     1      -1.162  11.400  18.087  0.00  0.00    +0.000 C 
ATOM      4  C   UNL     1      -1.309  10.219  19.058  0.00  0.00    +0.000 C 
ATOM      5  C   UNL     1      -0.073   9.644  19.817  0.00  0.00    +0.000 C 
ATOM      6  C   UNL     1      -0.269   9.866  21.355  0.00  0.00    +0.000 C 
ATOM      7  N   UNL     1      -0.582  11.243  21.712  0.00  0.00    +0.000 N 
ATOM      8  C   UNL     1      -1.281  11.418  22.978  0.00  0.00    +0.000 C 
ATOM      9  C   UNL     1       0.321  12.230  21.356  0.00  0.00    +0.000 C 
ATOM     10  O   UNL     1       1.528  12.029  21.239  0.00  0.00    +0.000 OA
ATOM     11  C   UNL     1      -0.283  13.563  20.980  0.00  0.00    +0.000 C 
ENDROOT
BRANCH   1  18
ATOM     12  C   UNL     1      -6.781  15.337  23.925  0.00  0.00    +0.000 C 
ATOM     13  C   UNL     1      -6.057  14.448  22.981  0.00  0.00    +0.000 A 
ATOM     14  C   UNL     1      -6.518  13.244  22.486  0.00  0.00    +0.000 A 
ATOM     15  S   UNL     1      -5.389  12.598  21.379  0.00  0.00    +0.000 S 
ATOM     16  C   UNL     1      -4.361  13.930  21.653  0.00  0.00    +0.000 A 
ATOM     17  N   UNL     1      -3.123  14.043  21.066  0.00  0.00    +0.000 N 
ATOM     18  C   UNL     1      -2.650  13.288  20.010  0.00  0.00    +0.000 C 
ATOM     19  O   UNL     1      -3.298  12.459  19.378  0.00  0.00    +0.000 OA
ATOM     20  N   UNL     1      -4.799  14.816  22.520  0.00  0.00    +0.000 NA
ATOM     21  H   UNL     1      -2.579  14.816  21.424  0.00  0.00    +0.000 HD
ENDBRANCH   1  18
BRANCH   5  22
ATOM     22  N   UNL     1       1.213  10.069  19.230  0.00  0.00    +0.000 NA
ATOM     23  H   UNL     1       1.955   9.817  19.888  0.00  0.00    +0.000 HD
BRANCH  22  24
ATOM     24  C   UNL     1       1.570   9.335  18.008  0.00  0.00    +0.000 C 
BRANCH  24  25
ATOM     25  C   UNL     1       2.394   8.110  18.313  0.00  0.00    +0.000 A 
ATOM     26  C   UNL     1       3.398   7.662  17.452  0.00  0.00    +0.000 A 
ATOM     27  C   UNL     1       4.096   6.495  17.754  0.00  0.00    +0.000 A 
ATOM     28  C   UNL     1       3.766   5.811  18.912  0.00  0.00    +0.000 A 
ATOM     29  N   UNL     1       2.818   6.218  19.781  0.00  0.00    +0.000 NA
ATOM     30  C   UNL     1       2.164   7.362  19.467  0.00  0.00    +0.000 A 
ENDBRANCH  24  25
ENDBRANCH  22  24
ENDBRANCH   5  22
TORSDOF 4
ENDMDL
MODEL 7
REMARK VINA RESULT:      -6.1      4.452      9.593
REMARK  Name = 
REMARK  6 active torsions:
REMARK  status: ('A' for Active; 'I' for Inactive)
REMARK    1  A    between atoms: C_1  and  C_2
REMARK    2  A    between atoms: C_7  and  C_9
REMARK    3  A    between atoms: C_13  and  N_14
REMARK    4  A    between atoms: N_14  and  C_15
REMARK    5  A    between atoms: C_15  and  C_16
REMARK    6  A    between atoms: N_23  and  C_24
REMARK                            x       y       z     vdW  Elec       q    Type
REMARK                         _______ _______ _______ _____ _____    ______ ____
ROOT
ATOM      1  C   UNL     1      -0.422  11.029  18.680  0.00  0.00    +0.000 C 
ATOM      2  C   UNL     1       0.248  12.339  18.215  0.00  0.00    +0.000 C 
ATOM      3  C   UNL     1       1.583  12.802  18.818  0.00  0.00    +0.000 C 
ATOM      4  C   UNL     1       1.758  13.017  20.328  0.00  0.00    +0.000 C 
ATOM      5  C   UNL     1       0.834  13.999  21.113  0.00  0.00    +0.000 C 
ATOM      6  C   UNL     1      -0.003  13.188  22.159  0.00  0.00    +0.000 C 
ATOM      7  N   UNL     1      -0.714  12.054  21.586  0.00  0.00    +0.000 N 
ATOM      8  C   UNL     1      -1.049  10.988  22.522  0.00  0.00    +0.000 C 
ATOM      9  C   UNL     1      -1.620  12.299  20.568  0.00  0.00    +0.000 C 
ATOM     10  O   UNL     1      -2.236  13.356  20.454  0.00  0.00    +0.000 OA
ATOM     11  C   UNL     1      -1.714  11.228  19.506  0.00  0.00    +0.000 C 
ENDROOT
BRANCH   1  18
ATOM     12  C   UNL     1       4.757   6.192  17.160  0.00  0.00    +0.000 C 
ATOM     13  C   UNL     1       3.672   6.761  17.999  0.00  0.00    +0.000 A 
ATOM     14  C   UNL     1       3.238   6.260  19.211  0.00  0.00    +0.000 A 
ATOM     15  S   UNL     1       2.020   7.270  19.856  0.00  0.00    +0.000 S 
ATOM     16  C   UNL     1       2.127   8.274  18.483  0.00  0.00    +0.000 A 
ATOM     17  N   UNL     1       1.309   9.363  18.296  0.00  0.00    +0.000 N 
ATOM     18  C   UNL     1       0.505   9.952  19.253  0.00  0.00    +0.000 C 
ATOM     19  O   UNL     1       0.467   9.645  20.440  0.00  0.00    +0.000 OA
ATOM     20  N   UNL     1       3.001   7.901  17.574  0.00  0.00    +0.000 NA
ATOM     21  H   UNL     1       1.402   9.781  17.380  0.00  0.00    +0.000 HD
ENDBRANCH   1  18
BRANCH   5  22
ATOM     22  N   UNL     1       0.100  14.929  20.232  0.00  0.00    +0.000 NA
ATOM     23  H   UNL     1      -0.855  15.010  20.590  0.00  0.00    +0.000 HD
BRANCH  22  24
ATOM     24  C   UNL     1       0.607  16.307  20.283  0.00  0.00    +0.000 C 
BRANCH  24  25
ATOM     25  C   UNL     1       1.214  16.727  18.968  0.00  0.00    +0.000 A 
ATOM     26  C   UNL     1       2.430  16.211  18.518  0.00  0.00    +0.000 A 
ATOM     27  C   UNL     1       2.974  16.671  17.320  0.00  0.00    +0.000 A 
ATOM     28  C   UNL     1       2.280  17.635  16.609  0.00  0.00    +0.000 A 
ATOM     29  N   UNL     1       1.093  18.146  16.997  0.00  0.00    +0.000 NA
ATOM     30  C   UNL     1       0.584  17.672  18.159  0.00  0.00    +0.000 A 
ENDBRANCH  24  25
ENDBRANCH  22  24
ENDBRANCH   5  22
TORSDOF 4
ENDMDL
MODEL 8
REMARK VINA RESULT:      -6.1      4.514      7.907
REMARK  Name = 
REMARK  6 active torsions:
REMARK  status: ('A' for Active; 'I' for Inactive)
REMARK    1  A    between atoms: C_1  and  C_2
REMARK    2  A    between atoms: C_7  and  C_9
REMARK    3  A    between atoms: C_13  and  N_14
REMARK    4  A    between atoms: N_14  and  C_15
REMARK    5  A    between atoms: C_15  and  C_16
REMARK    6  A    between atoms: N_23  and  C_24
REMARK                            x       y       z     vdW  Elec       q    Type
REMARK                         _______ _______ _______ _____ _____    ______ ____
ROOT
ATOM      1  C   UNL     1      -1.243  12.838  18.358  0.00  0.00    +0.000 C 
ATOM      2  C   UNL     1      -1.093  11.420  17.766  0.00  0.00    +0.000 C 
ATOM      3  C   UNL     1      -1.332  10.173  18.632  0.00  0.00    +0.000 C 
ATOM      4  C   UNL     1      -0.553   9.928  19.932  0.00  0.00    +0.000 C 
ATOM      5  C   UNL     1       1.007   9.877  19.936  0.00  0.00    +0.000 C 
ATOM      6  C   UNL     1       1.555  11.063  20.800  0.00  0.00    +0.000 C 
ATOM      7  N   UNL     1       1.016  12.361  20.419  0.00  0.00    +0.000 N 
ATOM      8  C   UNL     1       1.045  13.380  21.460  0.00  0.00    +0.000 C 
ATOM      9  C   UNL     1       1.213  12.792  19.118  0.00  0.00    +0.000 C 
ATOM     10  O   UNL     1       2.178  12.455  18.435  0.00  0.00    +0.000 OA
ATOM     11  C   UNL     1       0.089  13.607  18.523  0.00  0.00    +0.000 C 
ENDROOT
BRANCH   1  18
ATOM     12  C   UNL     1      -7.827  11.353  20.999  0.00  0.00    +0.000 C 
ATOM     13  C   UNL     1      -6.545  12.102  20.963  0.00  0.00    +0.000 A 
ATOM     14  C   UNL     1      -6.180  13.126  21.815  0.00  0.00    +0.000 A 
ATOM     15  S   UNL     1      -4.594  13.647  21.454  0.00  0.00    +0.000 S 
ATOM     16  C   UNL     1      -4.511  12.513  20.184  0.00  0.00    +0.000 A 
ATOM     17  N   UNL     1      -3.423  12.412  19.351  0.00  0.00    +0.000 N 
ATOM     18  C   UNL     1      -2.182  12.982  19.560  0.00  0.00    +0.000 C 
ATOM     19  O   UNL     1      -1.837  13.594  20.566  0.00  0.00    +0.000 OA
ATOM     20  N   UNL     1      -5.589  11.781  20.006  0.00  0.00    +0.000 NA
ATOM     21  H   UNL     1      -3.573  11.788  18.570  0.00  0.00    +0.000 HD
ENDBRANCH   1  18
BRANCH   5  22
ATOM     22  N   UNL     1       1.583   9.699  18.589  0.00  0.00    +0.000 NA
ATOM     23  H   UNL     1       2.600   9.756  18.673  0.00  0.00    +0.000 HD
BRANCH  22  24
ATOM     24  C   UNL     1       1.356   8.360  18.028  0.00  0.00    +0.000 C 
BRANCH  24  25
ATOM     25  C   UNL     1       2.528   7.444  18.277  0.00  0.00    +0.000 A 
ATOM     26  C   UNL     1       3.638   7.419  17.430  0.00  0.00    +0.000 A 
ATOM     27  C   UNL     1       4.672   6.517  17.674  0.00  0.00    +0.000 A 
ATOM     28  C   UNL     1       4.562   5.669  18.763  0.00  0.00    +0.000 A 
ATOM     29  N   UNL     1       3.518   5.673  19.617  0.00  0.00    +0.000 NA
ATOM     30  C   UNL     1       2.534   6.567  19.360  0.00  0.00    +0.000 A 
ENDBRANCH  24  25
ENDBRANCH  22  24
ENDBRANCH   5  22
TORSDOF 4
ENDMDL
MODEL 9
REMARK VINA RESULT:      -6.0      4.511      8.022
REMARK  Name = 
REMARK  6 active torsions:
REMARK  status: ('A' for Active; 'I' for Inactive)
REMARK    1  A    between atoms: C_1  and  C_2
REMARK    2  A    between atoms: C_7  and  C_9
REMARK    3  A    between atoms: C_13  and  N_14
REMARK    4  A    between atoms: N_14  and  C_15
REMARK    5  A    between atoms: C_15  and  C_16
REMARK    6  A    between atoms: N_23  and  C_24
REMARK                            x       y       z     vdW  Elec       q    Type
REMARK                         _______ _______ _______ _____ _____    ______ ____
ROOT
ATOM      1  C   UNL     1      -1.321  12.657  18.242  0.00  0.00    +0.000 C 
ATOM      2  C   UNL     1      -1.326  11.201  17.734  0.00  0.00    +0.000 C 
ATOM      3  C   UNL     1      -1.593  10.029  18.692  0.00  0.00    +0.000 C 
ATOM      4  C   UNL     1      -0.737   9.797  19.945  0.00  0.00    +0.000 C 
ATOM      5  C   UNL     1       0.810   9.620  19.840  0.00  0.00    +0.000 C 
ATOM      6  C   UNL     1       1.512  10.806  20.584  0.00  0.00    +0.000 C 
ATOM      7  N   UNL     1       1.047  12.119  20.161  0.00  0.00    +0.000 N 
ATOM      8  C   UNL     1       1.234  13.191  21.130  0.00  0.00    +0.000 C 
ATOM      9  C   UNL     1       1.176  12.456  18.824  0.00  0.00    +0.000 C 
ATOM     10  O   UNL     1       2.056  12.003  18.097  0.00  0.00    +0.000 OA
ATOM     11  C   UNL     1       0.075  13.324  18.261  0.00  0.00    +0.000 C 
ENDROOT
BRANCH   1  18
ATOM     12  C   UNL     1      -7.798  11.933  21.413  0.00  0.00    +0.000 C 
ATOM     13  C   UNL     1      -6.459  12.553  21.247  0.00  0.00    +0.000 A 
ATOM     14  C   UNL     1      -5.939  13.577  22.015  0.00  0.00    +0.000 A 
ATOM     15  S   UNL     1      -4.344  13.927  21.517  0.00  0.00    +0.000 S 
ATOM     16  C   UNL     1      -4.460  12.732  20.307  0.00  0.00    +0.000 A 
ATOM     17  N   UNL     1      -3.450  12.489  19.407  0.00  0.00    +0.000 N 
ATOM     18  C   UNL     1      -2.150  12.947  19.497  0.00  0.00    +0.000 C 
ATOM     19  O   UNL     1      -1.677  13.570  20.443  0.00  0.00    +0.000 OA
ATOM     20  N   UNL     1      -5.610  12.098  20.245  0.00  0.00    +0.000 NA
ATOM     21  H   UNL     1      -3.715  11.846  18.673  0.00  0.00    +0.000 HD
ENDBRANCH   1  18
BRANCH   5  22
ATOM     22  N   UNL     1       1.265   9.318  18.468  0.00  0.00    +0.000 NA
ATOM     23  H   UNL     1       1.478  10.205  18.007  0.00  0.00    +0.000 HD
BRANCH  22  24
ATOM     24  C   UNL     1       2.540   8.588  18.422  0.00  0.00    +0.000 C 
BRANCH  24  25
ATOM     25  C   UNL     1       2.362   7.130  18.762  0.00  0.00    +0.000 A 
ATOM     26  C   UNL     1       2.286   6.146  17.775  0.00  0.00    +0.000 A 
ATOM     27  C   UNL     1       2.068   4.819  18.139  0.00  0.00    +0.000 A 
ATOM     28  C   UNL     1       1.934   4.519  19.484  0.00  0.00    +0.000 A 
ATOM     29  N   UNL     1       2.019   5.435  20.471  0.00  0.00    +0.000 NA
ATOM     30  C   UNL     1       2.242   6.714  20.087  0.00  0.00    +0.000 A 
ENDBRANCH  24  25
ENDBRANCH  22  24
ENDBRANCH   5  22
TORSDOF 4
ENDMDL
