MODEL 1
REMARK VINA RESULT:      -5.0      0.000      0.000
REMARK  Name = 
REMARK  10 active torsions:
REMARK  status: ('A' for Active; 'I' for Inactive)
REMARK    1  A    between atoms: C_2  and  C_4
REMARK    2  A    between atoms: C_4  and  O_5
REMARK    3  A    between atoms: C_4  and  C_6
REMARK    4  A    between atoms: C_6  and  O_7
REMARK    5  A    between atoms: C_6  and  C_8
REMARK    6  A    between atoms: C_8  and  O_9
REMARK    7  A    between atoms: C_8  and  C_10
REMARK    8  A    between atoms: C_10  and  O_11
REMARK    9  A    between atoms: C_10  and  C_12
REMARK   10  A    between atoms: C_12  and  O_13
REMARK                            x       y       z     vdW  Elec       q    Type
REMARK                         _______ _______ _______ _____ _____    ______ ____
ROOT
ATOM      1  C   UNL     1       5.469   5.529  16.891  0.00  0.00    +0.000 C 
ENDROOT
BRANCH   1   2
ATOM      2  O   UNL     1       5.058   6.154  18.118  0.00  0.00    +0.000 OA
ATOM      3  H   UNL     1       4.079   6.083  18.123  0.00  0.00    +0.000 HD
ENDBRANCH   1   2
BRANCH   1   4
ATOM      4  C   UNL     1       6.998   5.530  16.824  0.00  0.00    +0.000 C 
BRANCH   4   6
ATOM      5  O   UNL     1       7.963   6.482  18.805  0.00  0.00    +0.000 OA
ATOM      6  C   UNL     1       7.526   6.743  17.642  0.00  0.00    +0.000 C 
ATOM      7  O   UNL     1       7.352   7.857  17.054  0.00  0.00    +0.000 OA
ENDBRANCH   4   6
BRANCH   4   8
ATOM      8  O   UNL     1       7.410   5.617  15.437  0.00  0.00    +0.000 OA
ATOM      9  H   UNL     1       6.545   5.592  14.957  0.00  0.00    +0.000 HD
ENDBRANCH   4   8
ENDBRANCH   1   4
BRANCH   1  10
ATOM     10  C   UNL     1       4.865   4.100  16.799  0.00  0.00    +0.000 C 
BRANCH  10  11
ATOM     11  O   UNL     1       5.798   3.142  16.296  0.00  0.00    +0.000 OA
ATOM     12  H   UNL     1       5.570   2.984  15.353  0.00  0.00    +0.000 HD
ENDBRANCH  10  11
BRANCH  10  13
ATOM     13  C   UNL     1       4.293   3.574  18.129  0.00  0.00    +0.000 C 
BRANCH  13  14
ATOM     14  O   UNL     1       5.354   3.319  19.085  0.00  0.00    +0.000 OA
ATOM     15  H   UNL     1       6.126   3.086  18.525  0.00  0.00    +0.000 HD
ENDBRANCH  13  14
BRANCH  13  16
ATOM     16  C   UNL     1       3.401   2.329  17.973  0.00  0.00    +0.000 C 
BRANCH  16  17
ATOM     17  O   UNL     1       4.189   1.144  18.115  0.00  0.00    +0.000 OA
ATOM     18  H   UNL     1       5.042   1.406  18.499  0.00  0.00    +0.000 HD
ENDBRANCH  16  17
ENDBRANCH  13  16
ENDBRANCH  10  13
ENDBRANCH   1  10
TORSDOF 10
ENDMDL
MODEL 2
REMARK VINA RESULT:      -5.0      1.603      2.307
REMARK  Name = 
REMARK  10 active torsions:
REMARK  status: ('A' for Active; 'I' for Inactive)
REMARK    1  A    between atoms: C_2  and  C_4
REMARK    2  A    between atoms: C_4  and  O_5
REMARK    3  A    between atoms: C_4  and  C_6
REMARK    4  A    between atoms: C_6  and  O_7
REMARK    5  A    between atoms: C_6  and  C_8
REMARK    6  A    between atoms: C_8  and  O_9
REMARK    7  A    between atoms: C_8  and  C_10
REMARK    8  A    between atoms: C_10  and  O_11
REMARK    9  A    between atoms: C_10  and  C_12
REMARK   10  A    between atoms: C_12  and  O_13
REMARK                            x       y       z     vdW  Elec       q    Type
REMARK                         _______ _______ _______ _____ _____    ______ ____
ROOT
ATOM      1  C   UNL     1       5.421   4.737  18.166  0.00  0.00    +0.000 C 
ENDROOT
BRANCH   1   2
ATOM      2  O   UNL     1       6.713   4.120  18.282  0.00  0.00    +0.000 OA
ATOM      3  H   UNL     1       7.351   4.866  18.287  0.00  0.00    +0.000 HD
ENDBRANCH   1   2
BRANCH   1   4
ATOM      4  C   UNL     1       5.385   5.575  16.886  0.00  0.00    +0.000 C 
BRANCH   4   6
ATOM      5  O   UNL     1       6.460   4.004  15.423  0.00  0.00    +0.000 OA
ATOM      6  C   UNL     1       6.573   5.139  15.980  0.00  0.00    +0.000 C 
ATOM      7  O   UNL     1       7.547   5.957  16.003  0.00  0.00    +0.000 OA
ENDBRANCH   4   6
BRANCH   4   8
ATOM      8  O   UNL     1       5.484   6.978  17.235  0.00  0.00    +0.000 OA
ATOM      9  H   UNL     1       6.375   7.223  16.878  0.00  0.00    +0.000 HD
ENDBRANCH   4   8
ENDBRANCH   1   4
BRANCH   1  10
ATOM     10  C   UNL     1       4.311   3.649  18.202  0.00  0.00    +0.000 C 
BRANCH  10  11
ATOM     11  O   UNL     1       4.554   2.587  17.278  0.00  0.00    +0.000 OA
ATOM     12  H   UNL     1       4.146   1.777  17.654  0.00  0.00    +0.000 HD
ENDBRANCH  10  11
BRANCH  10  13
ATOM     13  C   UNL     1       4.076   3.040  19.597  0.00  0.00    +0.000 C 
BRANCH  13  14
ATOM     14  O   UNL     1       5.089   2.049  19.907  0.00  0.00    +0.000 OA
ATOM     15  H   UNL     1       4.949   1.349  19.234  0.00  0.00    +0.000 HD
ENDBRANCH  13  14
BRANCH  13  16
ATOM     16  C   UNL     1       2.669   2.445  19.786  0.00  0.00    +0.000 C 
BRANCH  16  17
ATOM     17  O   UNL     1       2.383   1.523  18.731  0.00  0.00    +0.000 OA
ATOM     18  H   UNL     1       1.565   1.056  18.966  0.00  0.00    +0.000 HD
ENDBRANCH  16  17
ENDBRANCH  13  16
ENDBRANCH  10  13
ENDBRANCH   1  10
TORSDOF 10
ENDMDL
MODEL 3
REMARK VINA RESULT:      -4.9      1.715      2.632
REMARK  Name = 
REMARK  10 active torsions:
REMARK  status: ('A' for Active; 'I' for Inactive)
REMARK    1  A    between atoms: C_2  and  C_4
REMARK    2  A    between atoms: C_4  and  O_5
REMARK    3  A    between atoms: C_4  and  C_6
REMARK    4  A    between atoms: C_6  and  O_7
REMARK    5  A    between atoms: C_6  and  C_8
REMARK    6  A    between atoms: C_8  and  O_9
REMARK    7  A    between atoms: C_8  and  C_10
REMARK    8  A    between atoms: C_10  and  O_11
REMARK    9  A    between atoms: C_10  and  C_12
REMARK   10  A    between atoms: C_12  and  O_13
REMARK                            x       y       z     vdW  Elec       q    Type
REMARK                         _______ _______ _______ _____ _____    ______ ____
ROOT
ATOM      1  C   UNL     1       4.808   4.507  16.699  0.00  0.00    +0.000 C 
ENDROOT
BRANCH   1   2
ATOM      2  O   UNL     1       5.201   5.776  17.247  0.00  0.00    +0.000 OA
ATOM      3  H   UNL     1       6.182   5.764  17.236  0.00  0.00    +0.000 HD
ENDBRANCH   1   2
BRANCH   1   4
ATOM      4  C   UNL     1       5.956   3.959  15.849  0.00  0.00    +0.000 C 
BRANCH   4   6
ATOM      5  O   UNL     1       7.827   4.420  17.281  0.00  0.00    +0.000 OA
ATOM      6  C   UNL     1       7.250   4.749  16.200  0.00  0.00    +0.000 C 
ATOM      7  O   UNL     1       7.494   5.695  15.385  0.00  0.00    +0.000 OA
ENDBRANCH   4   6
BRANCH   4   8
ATOM      8  O   UNL     1       5.619   4.106  14.447  0.00  0.00    +0.000 OA
ATOM      9  H   UNL     1       6.164   4.888  14.179  0.00  0.00    +0.000 HD
ENDBRANCH   4   8
ENDBRANCH   1   4
BRANCH   1  10
ATOM     10  C   UNL     1       4.396   3.542  17.846  0.00  0.00    +0.000 C 
BRANCH  10  11
ATOM     11  O   UNL     1       5.390   3.449  18.868  0.00  0.00    +0.000 OA
ATOM     12  H   UNL     1       5.591   2.496  18.990  0.00  0.00    +0.000 HD
ENDBRANCH  10  11
BRANCH  10  13
ATOM     13  C   UNL     1       3.048   3.890  18.504  0.00  0.00    +0.000 C 
BRANCH  13  14
ATOM     14  O   UNL     1       2.298   4.827  17.687  0.00  0.00    +0.000 OA
ATOM     15  H   UNL     1       2.992   5.373  17.257  0.00  0.00    +0.000 HD
ENDBRANCH  13  14
BRANCH  13  16
ATOM     16  C   UNL     1       3.177   4.419  19.944  0.00  0.00    +0.000 C 
BRANCH  16  17
ATOM     17  O   UNL     1       3.800   5.706  19.936  0.00  0.00    +0.000 OA
ATOM     18  H   UNL     1       3.315   6.260  19.303  0.00  0.00    +0.000 HD
ENDBRANCH  16  17
ENDBRANCH  13  16
ENDBRANCH  10  13
ENDBRANCH   1  10
TORSDOF 10
ENDMDL
MODEL 4
REMARK VINA RESULT:      -4.8      1.338      2.201
REMARK  Name = 
REMARK  10 active torsions:
REMARK  status: ('A' for Active; 'I' for Inactive)
REMARK    1  A    between atoms: C_2  and  C_4
REMARK    2  A    between atoms: C_4  and  O_5
REMARK    3  A    between atoms: C_4  and  C_6
REMARK    4  A    between atoms: C_6  and  O_7
REMARK    5  A    between atoms: C_6  and  C_8
REMARK    6  A    between atoms: C_8  and  O_9
REMARK    7  A    between atoms: C_8  and  C_10
REMARK    8  A    between atoms: C_10  and  O_11
REMARK    9  A    between atoms: C_10  and  C_12
REMARK   10  A    between atoms: C_12  and  O_13
REMARK                            x       y       z     vdW  Elec       q    Type
REMARK                         _______ _______ _______ _____ _____    ______ ____
ROOT
ATOM      1  C   UNL     1       5.359   4.191  17.718  0.00  0.00    +0.000 C 
ENDROOT
BRANCH   1   2
ATOM      2  O   UNL     1       5.205   3.063  16.841  0.00  0.00    +0.000 OA
ATOM      3  H   UNL     1       4.701   3.407  16.073  0.00  0.00    +0.000 HD
ENDBRANCH   1   2
BRANCH   1   4
ATOM      4  C   UNL     1       5.644   5.436  16.877  0.00  0.00    +0.000 C 
BRANCH   4   6
ATOM      5  O   UNL     1       7.841   4.473  16.787  0.00  0.00    +0.000 OA
ATOM      6  C   UNL     1       7.182   5.552  16.673  0.00  0.00    +0.000 C 
ATOM      7  O   UNL     1       7.577   6.750  16.513  0.00  0.00    +0.000 OA
ENDBRANCH   4   6
BRANCH   4   8
ATOM      8  O   UNL     1       5.120   6.601  17.564  0.00  0.00    +0.000 OA
ATOM      9  H   UNL     1       4.143   6.443  17.533  0.00  0.00    +0.000 HD
ENDBRANCH   4   8
ENDBRANCH   1   4
BRANCH   1  10
ATOM     10  C   UNL     1       4.094   4.344  18.608  0.00  0.00    +0.000 C 
BRANCH  10  11
ATOM     11  O   UNL     1       2.906   4.546  17.842  0.00  0.00    +0.000 OA
ATOM     12  H   UNL     1       3.076   5.302  17.238  0.00  0.00    +0.000 HD
ENDBRANCH  10  11
BRANCH  10  13
ATOM     13  C   UNL     1       3.860   3.166  19.573  0.00  0.00    +0.000 C 
BRANCH  13  14
ATOM     14  O   UNL     1       5.047   2.338  19.678  0.00  0.00    +0.000 OA
ATOM     15  H   UNL     1       5.133   1.934  18.787  0.00  0.00    +0.000 HD
ENDBRANCH  13  14
BRANCH  13  16
ATOM     16  C   UNL     1       2.635   2.305  19.216  0.00  0.00    +0.000 C 
BRANCH  16  17
ATOM     17  O   UNL     1       2.884   1.580  18.008  0.00  0.00    +0.000 OA
ATOM     18  H   UNL     1       3.789   1.790  17.724  0.00  0.00    +0.000 HD
ENDBRANCH  16  17
ENDBRANCH  13  16
ENDBRANCH  10  13
ENDBRANCH   1  10
TORSDOF 10
ENDMDL
MODEL 5
REMARK VINA RESULT:      -4.8      1.940      2.689
REMARK  Name = 
REMARK  10 active torsions:
REMARK  status: ('A' for Active; 'I' for Inactive)
REMARK    1  A    between atoms: C_2  and  C_4
REMARK    2  A    between atoms: C_4  and  O_5
REMARK    3  A    between atoms: C_4  and  C_6
REMARK    4  A    between atoms: C_6  and  O_7
REMARK    5  A    between atoms: C_6  and  C_8
REMARK    6  A    between atoms: C_8  and  O_9
REMARK    7  A    between atoms: C_8  and  C_10
REMARK    8  A    between atoms: C_10  and  O_11
REMARK    9  A    between atoms: C_10  and  C_12
REMARK   10  A    between atoms: C_12  and  O_13
REMARK                            x       y       z     vdW  Elec       q    Type
REMARK                         _______ _______ _______ _____ _____    ______ ____
ROOT
ATOM      1  C   UNL     1       5.367   4.445  18.766  0.00  0.00    +0.000 C 
ENDROOT
BRANCH   1   2
ATOM      2  O   UNL     1       5.419   3.582  17.618  0.00  0.00    +0.000 OA
ATOM      3  H   UNL     1       5.528   2.679  17.986  0.00  0.00    +0.000 HD
ENDBRANCH   1   2
BRANCH   1   4
ATOM      4  C   UNL     1       6.554   5.409  18.714  0.00  0.00    +0.000 C 
BRANCH   4   6
ATOM      5  O   UNL     1       8.340   4.089  17.804  0.00  0.00    +0.000 OA
ATOM      6  C   UNL     1       7.481   4.985  17.539  0.00  0.00    +0.000 C 
ATOM      7  O   UNL     1       7.305   5.679  16.487  0.00  0.00    +0.000 OA
ENDBRANCH   4   6
BRANCH   4   8
ATOM      8  O   UNL     1       7.259   5.359  19.980  0.00  0.00    +0.000 OA
ATOM      9  H   UNL     1       6.518   5.386  20.636  0.00  0.00    +0.000 HD
ENDBRANCH   4   8
ENDBRANCH   1   4
BRANCH   1  10
ATOM     10  C   UNL     1       3.998   5.181  18.811  0.00  0.00    +0.000 C 
BRANCH  10  11
ATOM     11  O   UNL     1       3.708   5.874  17.596  0.00  0.00    +0.000 OA
ATOM     12  H   UNL     1       3.020   6.544  17.802  0.00  0.00    +0.000 HD
ENDBRANCH  10  11
BRANCH  10  13
ATOM     13  C   UNL     1       2.806   4.266  19.150  0.00  0.00    +0.000 C 
BRANCH  13  14
ATOM     14  O   UNL     1       3.263   2.973  19.624  0.00  0.00    +0.000 OA
ATOM     15  H   UNL     1       3.748   2.598  18.857  0.00  0.00    +0.000 HD
ENDBRANCH  13  14
BRANCH  13  16
ATOM     16  C   UNL     1       1.809   4.091  17.990  0.00  0.00    +0.000 C 
BRANCH  16  17
ATOM     17  O   UNL     1       2.386   3.273  16.969  0.00  0.00    +0.000 OA
ATOM     18  H   UNL     1       3.342   3.230  17.138  0.00  0.00    +0.000 HD
ENDBRANCH  16  17
ENDBRANCH  13  16
ENDBRANCH  10  13
ENDBRANCH   1  10
TORSDOF 10
ENDMDL
MODEL 6
REMARK VINA RESULT:      -4.8      2.011      5.015
REMARK  Name = 
REMARK  10 active torsions:
REMARK  status: ('A' for Active; 'I' for Inactive)
REMARK    1  A    between atoms: C_2  and  C_4
REMARK    2  A    between atoms: C_4  and  O_5
REMARK    3  A    between atoms: C_4  and  C_6
REMARK    4  A    between atoms: C_6  and  O_7
REMARK    5  A    between atoms: C_6  and  C_8
REMARK    6  A    between atoms: C_8  and  O_9
REMARK    7  A    between atoms: C_8  and  C_10
REMARK    8  A    between atoms: C_10  and  O_11
REMARK    9  A    between atoms: C_10  and  C_12
REMARK   10  A    between atoms: C_12  and  O_13
REMARK                            x       y       z     vdW  Elec       q    Type
REMARK                         _______ _______ _______ _____ _____    ______ ____
ROOT
ATOM      1  C   UNL     1       3.686   4.792  18.881  0.00  0.00    +0.000 C 
ENDROOT
BRANCH   1   2
ATOM      2  O   UNL     1       3.222   5.121  17.562  0.00  0.00    +0.000 OA
ATOM      3  H   UNL     1       4.035   5.181  17.015  0.00  0.00    +0.000 HD
ENDBRANCH   1   2
BRANCH   1   4
ATOM      4  C   UNL     1       2.818   3.665  19.445  0.00  0.00    +0.000 C 
BRANCH   4   6
ATOM      5  O   UNL     1       0.982   3.126  17.994  0.00  0.00    +0.000 OA
ATOM      6  C   UNL     1       2.200   2.878  18.254  0.00  0.00    +0.000 C 
ATOM      7  O   UNL     1       2.991   2.011  17.762  0.00  0.00    +0.000 OA
ENDBRANCH   4   6
BRANCH   4   8
ATOM      8  O   UNL     1       1.783   4.240  20.283  0.00  0.00    +0.000 OA
ATOM      9  H   UNL     1       1.234   3.448  20.513  0.00  0.00    +0.000 HD
ENDBRANCH   4   8
ENDBRANCH   1   4
BRANCH   1  10
ATOM     10  C   UNL     1       5.195   4.419  18.833  0.00  0.00    +0.000 C 
BRANCH  10  11
ATOM     11  O   UNL     1       5.458   3.126  19.382  0.00  0.00    +0.000 OA
ATOM     12  H   UNL     1       4.595   2.662  19.454  0.00  0.00    +0.000 HD
ENDBRANCH  10  11
BRANCH  10  13
ATOM     13  C   UNL     1       5.812   4.486  17.423  0.00  0.00    +0.000 C 
BRANCH  13  14
ATOM     14  O   UNL     1       5.414   3.340  16.627  0.00  0.00    +0.000 OA
ATOM     15  H   UNL     1       4.522   3.113  16.969  0.00  0.00    +0.000 HD
ENDBRANCH  13  14
BRANCH  13  16
ATOM     16  C   UNL     1       7.344   4.634  17.422  0.00  0.00    +0.000 C 
BRANCH  16  17
ATOM     17  O   UNL     1       7.822   4.772  18.762  0.00  0.00    +0.000 OA
ATOM     18  H   UNL     1       8.255   3.937  19.004  0.00  0.00    +0.000 HD
ENDBRANCH  16  17
ENDBRANCH  13  16
ENDBRANCH  10  13
ENDBRANCH   1  10
TORSDOF 10
ENDMDL
MODEL 7
REMARK VINA RESULT:      -4.8      1.679      2.893
REMARK  Name = 
REMARK  10 active torsions:
REMARK  status: ('A' for Active; 'I' for Inactive)
REMARK    1  A    between atoms: C_2  and  C_4
REMARK    2  A    between atoms: C_4  and  O_5
REMARK    3  A    between atoms: C_4  and  C_6
REMARK    4  A    between atoms: C_6  and  O_7
REMARK    5  A    between atoms: C_6  and  C_8
REMARK    6  A    between atoms: C_8  and  O_9
REMARK    7  A    between atoms: C_8  and  C_10
REMARK    8  A    between atoms: C_10  and  O_11
REMARK    9  A    between atoms: C_10  and  C_12
REMARK   10  A    between atoms: C_12  and  O_13
REMARK                            x       y       z     vdW  Elec       q    Type
REMARK                         _______ _______ _______ _____ _____    ______ ____
ROOT
ATOM      1  C   UNL     1       6.477   5.500  18.221  0.00  0.00    +0.000 C 
ENDROOT
BRANCH   1   2
ATOM      2  O   UNL     1       7.057   4.188  18.136  0.00  0.00    +0.000 OA
ATOM      3  H   UNL     1       7.554   4.185  17.289  0.00  0.00    +0.000 HD
ENDBRANCH   1   2
BRANCH   1   4
ATOM      4  C   UNL     1       6.504   6.144  16.834  0.00  0.00    +0.000 C 
BRANCH   4   6
ATOM      5  O   UNL     1       5.427   4.391  15.597  0.00  0.00    +0.000 OA
ATOM      6  C   UNL     1       6.520   5.013  15.766  0.00  0.00    +0.000 C 
ATOM      7  O   UNL     1       7.675   4.805  15.275  0.00  0.00    +0.000 OA
ENDBRANCH   4   6
BRANCH   4   8
ATOM      8  O   UNL     1       7.681   6.983  16.723  0.00  0.00    +0.000 OA
ATOM      9  H   UNL     1       8.327   6.519  17.314  0.00  0.00    +0.000 HD
ENDBRANCH   4   8
ENDBRANCH   1   4
BRANCH   1  10
ATOM     10  C   UNL     1       5.042   5.405  18.811  0.00  0.00    +0.000 C 
BRANCH  10  11
ATOM     11  O   UNL     1       4.052   5.944  17.934  0.00  0.00    +0.000 OA
ATOM     12  H   UNL     1       4.513   6.551  17.315  0.00  0.00    +0.000 HD
ENDBRANCH  10  11
BRANCH  10  13
ATOM     13  C   UNL     1       4.621   3.977  19.207  0.00  0.00    +0.000 C 
BRANCH  13  14
ATOM     14  O   UNL     1       4.578   3.108  18.045  0.00  0.00    +0.000 OA
ATOM     15  H   UNL     1       3.621   2.932  17.917  0.00  0.00    +0.000 HD
ENDBRANCH  13  14
BRANCH  13  16
ATOM     16  C   UNL     1       3.287   3.913  19.973  0.00  0.00    +0.000 C 
BRANCH  16  17
ATOM     17  O   UNL     1       2.979   5.196  20.525  0.00  0.00    +0.000 OA
ATOM     18  H   UNL     1       3.820   5.661  20.666  0.00  0.00    +0.000 HD
ENDBRANCH  16  17
ENDBRANCH  13  16
ENDBRANCH  10  13
ENDBRANCH   1  10
TORSDOF 10
ENDMDL
MODEL 8
REMARK VINA RESULT:      -4.8      1.992      4.012
REMARK  Name = 
REMARK  10 active torsions:
REMARK  status: ('A' for Active; 'I' for Inactive)
REMARK    1  A    between atoms: C_2  and  C_4
REMARK    2  A    between atoms: C_4  and  O_5
REMARK    3  A    between atoms: C_4  and  C_6
REMARK    4  A    between atoms: C_6  and  O_7
REMARK    5  A    between atoms: C_6  and  C_8
REMARK    6  A    between atoms: C_8  and  O_9
REMARK    7  A    between atoms: C_8  and  C_10
REMARK    8  A    between atoms: C_10  and  O_11
REMARK    9  A    between atoms: C_10  and  C_12
REMARK   10  A    between atoms: C_12  and  O_13
REMARK                            x       y       z     vdW  Elec       q    Type
REMARK                         _______ _______ _______ _____ _____    ______ ____
ROOT
ATOM      1  C   UNL     1       5.385   5.554  16.328  0.00  0.00    +0.000 C 
ENDROOT
BRANCH   1   2
ATOM      2  O   UNL     1       5.488   6.619  15.368  0.00  0.00    +0.000 OA
ATOM      3  H   UNL     1       4.985   7.364  15.762  0.00  0.00    +0.000 HD
ENDBRANCH   1   2
BRANCH   1   4
ATOM      4  C   UNL     1       6.392   4.461  15.964  0.00  0.00    +0.000 C 
BRANCH   4   6
ATOM      5  O   UNL     1       7.740   5.404  14.215  0.00  0.00    +0.000 OA
ATOM      6  C   UNL     1       6.772   4.621  14.464  0.00  0.00    +0.000 C 
ATOM      7  O   UNL     1       5.981   4.007  13.680  0.00  0.00    +0.000 OA
ENDBRANCH   4   6
BRANCH   4   8
ATOM      8  O   UNL     1       5.795   3.164  16.216  0.00  0.00    +0.000 OA
ATOM      9  H   UNL     1       5.712   3.158  17.203  0.00  0.00    +0.000 HD
ENDBRANCH   4   8
ENDBRANCH   1   4
BRANCH   1  10
ATOM     10  C   UNL     1       5.599   6.114  17.762  0.00  0.00    +0.000 C 
BRANCH  10  11
ATOM     11  O   UNL     1       5.184   5.198  18.776  0.00  0.00    +0.000 OA
ATOM     12  H   UNL     1       4.648   4.502  18.336  0.00  0.00    +0.000 HD
ENDBRANCH  10  11
BRANCH  10  13
ATOM     13  C   UNL     1       7.048   6.546  18.057  0.00  0.00    +0.000 C 
BRANCH  13  14
ATOM     14  O   UNL     1       7.714   6.986  16.845  0.00  0.00    +0.000 OA
ATOM     15  H   UNL     1       7.433   6.331  16.169  0.00  0.00    +0.000 HD
ENDBRANCH  13  14
BRANCH  13  16
ATOM     16  C   UNL     1       7.885   5.468  18.768  0.00  0.00    +0.000 C 
BRANCH  16  17
ATOM     17  O   UNL     1       7.732   5.586  20.184  0.00  0.00    +0.000 OA
ATOM     18  H   UNL     1       7.044   4.956  20.456  0.00  0.00    +0.000 HD
ENDBRANCH  16  17
ENDBRANCH  13  16
ENDBRANCH  10  13
ENDBRANCH   1  10
TORSDOF 10
ENDMDL
MODEL 9
REMARK VINA RESULT:      -4.7      1.830      2.669
REMARK  Name = 
REMARK  10 active torsions:
REMARK  status: ('A' for Active; 'I' for Inactive)
REMARK    1  A    between atoms: C_2  and  C_4
REMARK    2  A    between atoms: C_4  and  O_5
REMARK    3  A    between atoms: C_4  and  C_6
REMARK    4  A    between atoms: C_6  and  O_7
REMARK    5  A    between atoms: C_6  and  C_8
REMARK    6  A    between atoms: C_8  and  O_9
REMARK    7  A    between atoms: C_8  and  C_10
REMARK    8  A    between atoms: C_10  and  O_11
REMARK    9  A    between atoms: C_10  and  C_12
REMARK   10  A    between atoms: C_12  and  O_13
REMARK                            x       y       z     vdW  Elec       q    Type
REMARK                         _______ _______ _______ _____ _____    ______ ____
ROOT
ATOM      1  C   UNL     1       5.521   4.833  17.032  0.00  0.00    +0.000 C 
ENDROOT
BRANCH   1   2
ATOM      2  O   UNL     1       6.708   4.031  17.147  0.00  0.00    +0.000 OA
ATOM      3  H   UNL     1       7.452   4.666  17.057  0.00  0.00    +0.000 HD
ENDBRANCH   1   2
BRANCH   1   4
ATOM      4  C   UNL     1       5.418   5.364  15.601  0.00  0.00    +0.000 C 
BRANCH   4   6
ATOM      5  O   UNL     1       6.364   3.653  14.207  0.00  0.00    +0.000 OA
ATOM      6  C   UNL     1       6.591   4.768  14.770  0.00  0.00    +0.000 C 
ATOM      7  O   UNL     1       7.661   5.450  14.854  0.00  0.00    +0.000 OA
ENDBRANCH   4   6
BRANCH   4   8
ATOM      8  O   UNL     1       5.481   6.812  15.627  0.00  0.00    +0.000 OA
ATOM      9  H   UNL     1       5.668   7.033  14.681  0.00  0.00    +0.000 HD
ENDBRANCH   4   8
ENDBRANCH   1   4
BRANCH   1  10
ATOM     10  C   UNL     1       4.279   3.999  17.453  0.00  0.00    +0.000 C 
BRANCH  10  11
ATOM     11  O   UNL     1       4.462   2.598  17.244  0.00  0.00    +0.000 OA
ATOM     12  H   UNL     1       4.574   2.185  18.128  0.00  0.00    +0.000 HD
ENDBRANCH  10  11
BRANCH  10  13
ATOM     13  C   UNL     1       3.839   4.222  18.913  0.00  0.00    +0.000 C 
BRANCH  13  14
ATOM     14  O   UNL     1       4.621   5.275  19.534  0.00  0.00    +0.000 OA
ATOM     15  H   UNL     1       4.412   5.192  20.490  0.00  0.00    +0.000 HD
ENDBRANCH  13  14
BRANCH  13  16
ATOM     16  C   UNL     1       3.875   2.947  19.775  0.00  0.00    +0.000 C 
BRANCH  16  17
ATOM     17  O   UNL     1       5.215   2.455  19.862  0.00  0.00    +0.000 OA
ATOM     18  H   UNL     1       5.797   3.123  19.463  0.00  0.00    +0.000 HD
ENDBRANCH  16  17
ENDBRANCH  13  16
ENDBRANCH  10  13
ENDBRANCH   1  10
TORSDOF 10
ENDMDL
