MODEL 1
REMARK VINA RESULT:      -7.4      0.000      0.000
REMARK  Name = 
REMARK  11 active torsions:
REMARK  status: ('A' for Active; 'I' for Inactive)
REMARK    1  A    between atoms: C_1  and  C_2
REMARK    2  A    between atoms: C_2  and  O_3
REMARK    3  A    between atoms: O_3  and  C_4
REMARK    4  A    between atoms: C_7  and  C_8
REMARK    5  A    between atoms: C_8  and  C_9
REMARK    6  A    between atoms: C_11  and  C_12
REMARK    7  A    between atoms: C_14  and  S_15
REMARK    8  A    between atoms: S_15  and  C_16
REMARK    9  A    between atoms: C_17  and  O_18
REMARK   10  A    between atoms: C_19  and  O_20
REMARK   11  A    between atoms: C_21  and  O_22
REMARK                            x       y       z     vdW  Elec       q    Type
REMARK                         _______ _______ _______ _____ _____    ______ ____
ROOT
ATOM      1  C   UNL     1       1.015   9.497  19.304  0.00  0.00    +0.000 A 
ATOM      2  C   UNL     1       1.616   8.417  18.625  0.00  0.00    +0.000 A 
ATOM      3  C   UNL     1       2.035   7.257  19.299  0.00  0.00    +0.000 A 
ATOM      4  C   UNL     1       1.917   7.220  20.693  0.00  0.00    +0.000 A 
ATOM      5  C   UNL     1       1.314   8.273  21.382  0.00  0.00    +0.000 A 
ATOM      6  C   UNL     1       0.840   9.392  20.691  0.00  0.00    +0.000 A 
ATOM      7 CL   UNL     1       0.041  10.615  21.612  0.00  0.00    +0.000 Cl
ENDROOT
BRANCH   3   8
ATOM      8  C   UNL     1       2.551   6.068  18.508  0.00  0.00    +0.000 C 
ATOM      9  O   UNL     1       2.198   4.875  19.216  0.00  0.00    +0.000 OA
ATOM     10  C   UNL     1       2.469   3.678  18.499  0.00  0.00    +0.000 C 
ATOM     11  C   UNL     1       3.972   3.549  18.170  0.00  0.00    +0.000 C 
ATOM     12  C   UNL     1       4.458   4.829  17.467  0.00  0.00    +0.000 C 
ATOM     13  C   UNL     1       4.069   6.098  18.254  0.00  0.00    +0.000 C 
BRANCH  10  14
ATOM     14  S   UNL     1       1.826   2.251  19.453  0.00  0.00    +0.000 S 
ATOM     15  C   UNL     1       1.313   3.099  20.970  0.00  0.00    +0.000 C 
ENDBRANCH  10  14
BRANCH  11  16
ATOM     16  O   UNL     1       4.258   2.407  17.351  0.00  0.00    +0.000 OA
ATOM     17  H   UNL     1       5.200   2.181  17.432  0.00  0.00    +0.000 HD
ENDBRANCH  11  16
BRANCH  12  18
ATOM     18  O   UNL     1       5.875   4.803  17.249  0.00  0.00    +0.000 OA
ATOM     19  H   UNL     1       6.272   5.569  17.701  0.00  0.00    +0.000 HD
ENDBRANCH  12  18
BRANCH  13  20
ATOM     20  O   UNL     1       4.451   7.274  17.528  0.00  0.00    +0.000 OA
ATOM     21  H   UNL     1       5.287   7.614  17.890  0.00  0.00    +0.000 HD
ENDBRANCH  13  20
ENDBRANCH   3   8
BRANCH   1  22
ATOM     22  C   UNL     1       0.595  10.714  18.513  0.00  0.00    +0.000 C 
BRANCH  22  26
ATOM     23  C   UNL     1      -3.672  10.830  17.784  0.00  0.00    +0.000 A 
ATOM     24  C   UNL     1      -2.872   9.870  17.164  0.00  0.00    +0.000 A 
ATOM     25  C   UNL     1      -1.490   9.854  17.369  0.00  0.00    +0.000 A 
ATOM     26  C   UNL     1      -0.881  10.808  18.195  0.00  0.00    +0.000 A 
ATOM     27  C   UNL     1      -1.687  11.799  18.773  0.00  0.00    +0.000 A 
ATOM     28  C   UNL     1      -3.071  11.814  18.565  0.00  0.00    +0.000 A 
BRANCH  23  29
ATOM     29  O   UNL     1      -5.016  10.708  17.564  0.00  0.00    +0.000 OA
BRANCH  29  31
ATOM     30  C   UNL     1      -6.758  10.149  19.092  0.00  0.00    +0.000 C 
ATOM     31  C   UNL     1      -5.864  11.260  18.573  0.00  0.00    +0.000 C 
ENDBRANCH  29  31
ENDBRANCH  23  29
ENDBRANCH  22  26
ENDBRANCH   1  22
TORSDOF 9
ENDMDL
MODEL 2
REMARK VINA RESULT:      -7.3      1.081      1.437
REMARK  Name = 
REMARK  11 active torsions:
REMARK  status: ('A' for Active; 'I' for Inactive)
REMARK    1  A    between atoms: C_1  and  C_2
REMARK    2  A    between atoms: C_2  and  O_3
REMARK    3  A    between atoms: O_3  and  C_4
REMARK    4  A    between atoms: C_7  and  C_8
REMARK    5  A    between atoms: C_8  and  C_9
REMARK    6  A    between atoms: C_11  and  C_12
REMARK    7  A    between atoms: C_14  and  S_15
REMARK    8  A    between atoms: S_15  and  C_16
REMARK    9  A    between atoms: C_17  and  O_18
REMARK   10  A    between atoms: C_19  and  O_20
REMARK   11  A    between atoms: C_21  and  O_22
REMARK                            x       y       z     vdW  Elec       q    Type
REMARK                         _______ _______ _______ _____ _____    ______ ____
ROOT
ATOM      1  C   UNL     1       1.215   9.231  19.130  0.00  0.00    +0.000 A 
ATOM      2  C   UNL     1       2.002   8.390  18.316  0.00  0.00    +0.000 A 
ATOM      3  C   UNL     1       2.509   7.166  18.787  0.00  0.00    +0.000 A 
ATOM      4  C   UNL     1       2.282   6.823  20.124  0.00  0.00    +0.000 A 
ATOM      5  C   UNL     1       1.495   7.636  20.941  0.00  0.00    +0.000 A 
ATOM      6  C   UNL     1       0.941   8.817  20.441  0.00  0.00    +0.000 A 
ATOM      7 CL   UNL     1      -0.081   9.725  21.496  0.00  0.00    +0.000 Cl
ENDROOT
BRANCH   3   8
ATOM      8  C   UNL     1       3.235   6.233  17.833  0.00  0.00    +0.000 C 
ATOM      9  O   UNL     1       2.985   4.886  18.250  0.00  0.00    +0.000 OA
ATOM     10  C   UNL     1       3.464   3.904  17.342  0.00  0.00    +0.000 C 
ATOM     11  C   UNL     1       4.993   4.013  17.153  0.00  0.00    +0.000 C 
ATOM     12  C   UNL     1       5.363   5.458  16.771  0.00  0.00    +0.000 C 
ATOM     13  C   UNL     1       4.753   6.483  17.749  0.00  0.00    +0.000 C 
BRANCH  10  14
ATOM     14  S   UNL     1       2.938   2.247  17.923  0.00  0.00    +0.000 S 
ATOM     15  C   UNL     1       3.889   2.141  19.461  0.00  0.00    +0.000 C 
ENDBRANCH  10  14
BRANCH  11  16
ATOM     16  O   UNL     1       5.488   3.107  16.158  0.00  0.00    +0.000 OA
ATOM     17  H   UNL     1       6.168   2.535  16.554  0.00  0.00    +0.000 HD
ENDBRANCH  11  16
BRANCH  12  18
ATOM     18  O   UNL     1       6.784   5.635  16.702  0.00  0.00    +0.000 OA
ATOM     19  H   UNL     1       7.030   5.814  15.776  0.00  0.00    +0.000 HD
ENDBRANCH  12  18
BRANCH  13  20
ATOM     20  O   UNL     1       5.034   7.820  17.315  0.00  0.00    +0.000 OA
ATOM     21  H   UNL     1       5.304   7.801  16.381  0.00  0.00    +0.000 HD
ENDBRANCH  13  20
ENDBRANCH   3   8
BRANCH   1  22
ATOM     22  C   UNL     1       0.710  10.535  18.557  0.00  0.00    +0.000 C 
BRANCH  22  26
ATOM     23  C   UNL     1      -3.469  10.820  17.458  0.00  0.00    +0.000 A 
ATOM     24  C   UNL     1      -2.941  11.639  18.457  0.00  0.00    +0.000 A 
ATOM     25  C   UNL     1      -1.601  11.523  18.838  0.00  0.00    +0.000 A 
ATOM     26  C   UNL     1      -0.767  10.576  18.231  0.00  0.00    +0.000 A 
ATOM     27  C   UNL     1      -1.321   9.723  17.264  0.00  0.00    +0.000 A 
ATOM     28  C   UNL     1      -2.663   9.840  16.885  0.00  0.00    +0.000 A 
BRANCH  23  29
ATOM     29  O   UNL     1      -4.772  11.067  17.122  0.00  0.00    +0.000 OA
BRANCH  29  31
ATOM     30  C   UNL     1      -6.702  10.841  18.502  0.00  0.00    +0.000 C 
ATOM     31  C   UNL     1      -5.549  11.747  18.109  0.00  0.00    +0.000 C 
ENDBRANCH  29  31
ENDBRANCH  23  29
ENDBRANCH  22  26
ENDBRANCH   1  22
TORSDOF 9
ENDMDL
MODEL 3
REMARK VINA RESULT:      -7.3      0.990      1.060
REMARK  Name = 
REMARK  11 active torsions:
REMARK  status: ('A' for Active; 'I' for Inactive)
REMARK    1  A    between atoms: C_1  and  C_2
REMARK    2  A    between atoms: C_2  and  O_3
REMARK    3  A    between atoms: O_3  and  C_4
REMARK    4  A    between atoms: C_7  and  C_8
REMARK    5  A    between atoms: C_8  and  C_9
REMARK    6  A    between atoms: C_11  and  C_12
REMARK    7  A    between atoms: C_14  and  S_15
REMARK    8  A    between atoms: S_15  and  C_16
REMARK    9  A    between atoms: C_17  and  O_18
REMARK   10  A    between atoms: C_19  and  O_20
REMARK   11  A    between atoms: C_21  and  O_22
REMARK                            x       y       z     vdW  Elec       q    Type
REMARK                         _______ _______ _______ _____ _____    ______ ____
ROOT
ATOM      1  C   UNL     1       1.257   9.289  19.138  0.00  0.00    +0.000 A 
ATOM      2  C   UNL     1       2.023   8.424  18.330  0.00  0.00    +0.000 A 
ATOM      3  C   UNL     1       2.474   7.178  18.799  0.00  0.00    +0.000 A 
ATOM      4  C   UNL     1       2.215   6.835  20.131  0.00  0.00    +0.000 A 
ATOM      5  C   UNL     1       1.448   7.672  20.942  0.00  0.00    +0.000 A 
ATOM      6  C   UNL     1       0.947   8.878  20.442  0.00  0.00    +0.000 A 
ATOM      7 CL   UNL     1      -0.055   9.817  21.489  0.00  0.00    +0.000 Cl
ENDROOT
BRANCH   3   8
ATOM      8  C   UNL     1       3.178   6.224  17.849  0.00  0.00    +0.000 C 
ATOM      9  O   UNL     1       2.874   4.885  18.256  0.00  0.00    +0.000 OA
ATOM     10  C   UNL     1       3.329   3.891  17.349  0.00  0.00    +0.000 C 
ATOM     11  C   UNL     1       4.863   3.945  17.179  0.00  0.00    +0.000 C 
ATOM     12  C   UNL     1       5.290   5.378  16.810  0.00  0.00    +0.000 C 
ATOM     13  C   UNL     1       4.704   6.419  17.786  0.00  0.00    +0.000 C 
BRANCH  10  14
ATOM     14  S   UNL     1       2.736   2.250  17.914  0.00  0.00    +0.000 S 
ATOM     15  C   UNL     1       1.152   2.731  18.651  0.00  0.00    +0.000 C 
ENDBRANCH  10  14
BRANCH  11  16
ATOM     16  O   UNL     1       5.337   3.027  16.186  0.00  0.00    +0.000 OA
ATOM     17  H   UNL     1       6.186   3.343  15.834  0.00  0.00    +0.000 HD
ENDBRANCH  11  16
BRANCH  12  18
ATOM     18  O   UNL     1       6.717   5.503  16.758  0.00  0.00    +0.000 OA
ATOM     19  H   UNL     1       7.043   5.705  17.654  0.00  0.00    +0.000 HD
ENDBRANCH  12  18
BRANCH  13  20
ATOM     20  O   UNL     1       5.040   7.747  17.362  0.00  0.00    +0.000 OA
ATOM     21  H   UNL     1       5.598   8.166  18.039  0.00  0.00    +0.000 HD
ENDBRANCH  13  20
ENDBRANCH   3   8
BRANCH   1  22
ATOM     22  C   UNL     1       0.811  10.616  18.568  0.00  0.00    +0.000 C 
BRANCH  22  26
ATOM     23  C   UNL     1      -3.458  10.790  17.862  0.00  0.00    +0.000 A 
ATOM     24  C   UNL     1      -2.673   9.824  17.230  0.00  0.00    +0.000 A 
ATOM     25  C   UNL     1      -1.290   9.791  17.428  0.00  0.00    +0.000 A 
ATOM     26  C   UNL     1      -0.666  10.730  18.258  0.00  0.00    +0.000 A 
ATOM     27  C   UNL     1      -1.457  11.726  18.849  0.00  0.00    +0.000 A 
ATOM     28  C   UNL     1      -2.841  11.760  18.648  0.00  0.00    +0.000 A 
BRANCH  23  29
ATOM     29  O   UNL     1      -4.805  10.685  17.648  0.00  0.00    +0.000 OA
BRANCH  29  31
ATOM     30  C   UNL     1      -6.657  12.181  17.774  0.00  0.00    +0.000 C 
ATOM     31  C   UNL     1      -5.637  11.389  18.571  0.00  0.00    +0.000 C 
ENDBRANCH  29  31
ENDBRANCH  23  29
ENDBRANCH  22  26
ENDBRANCH   1  22
TORSDOF 9
ENDMDL
MODEL 4
REMARK VINA RESULT:      -7.2      0.532      1.117
REMARK  Name = 
REMARK  11 active torsions:
REMARK  status: ('A' for Active; 'I' for Inactive)
REMARK    1  A    between atoms: C_1  and  C_2
REMARK    2  A    between atoms: C_2  and  O_3
REMARK    3  A    between atoms: O_3  and  C_4
REMARK    4  A    between atoms: C_7  and  C_8
REMARK    5  A    between atoms: C_8  and  C_9
REMARK    6  A    between atoms: C_11  and  C_12
REMARK    7  A    between atoms: C_14  and  S_15
REMARK    8  A    between atoms: S_15  and  C_16
REMARK    9  A    between atoms: C_17  and  O_18
REMARK   10  A    between atoms: C_19  and  O_20
REMARK   11  A    between atoms: C_21  and  O_22
REMARK                            x       y       z     vdW  Elec       q    Type
REMARK                         _______ _______ _______ _____ _____    ______ ____
ROOT
ATOM      1  C   UNL     1       1.094   9.388  19.152  0.00  0.00    +0.000 A 
ATOM      2  C   UNL     1       1.687   8.289  18.497  0.00  0.00    +0.000 A 
ATOM      3  C   UNL     1       2.149   7.165  19.205  0.00  0.00    +0.000 A 
ATOM      4  C   UNL     1       2.082   7.187  20.602  0.00  0.00    +0.000 A 
ATOM      5  C   UNL     1       1.488   8.260  21.267  0.00  0.00    +0.000 A 
ATOM      6  C   UNL     1       0.971   9.341  20.547  0.00  0.00    +0.000 A 
ATOM      7 CL   UNL     1       0.186  10.591  21.444  0.00  0.00    +0.000 Cl
ENDROOT
BRANCH   3   8
ATOM      8  C   UNL     1       2.654   5.950  18.446  0.00  0.00    +0.000 C 
ATOM      9  O   UNL     1       2.027   4.788  18.998  0.00  0.00    +0.000 OA
ATOM     10  C   UNL     1       2.279   3.596  18.267  0.00  0.00    +0.000 C 
ATOM     11  C   UNL     1       3.789   3.279  18.214  0.00  0.00    +0.000 C 
ATOM     12  C   UNL     1       4.556   4.510  17.696  0.00  0.00    +0.000 C 
ATOM     13  C   UNL     1       4.185   5.786  18.479  0.00  0.00    +0.000 C 
BRANCH  10  14
ATOM     14  S   UNL     1       1.293   2.231  18.992  0.00  0.00    +0.000 S 
ATOM     15  C   UNL     1       1.375   2.686  20.743  0.00  0.00    +0.000 C 
ENDBRANCH  10  14
BRANCH  11  16
ATOM     16  O   UNL     1       4.082   2.143  17.389  0.00  0.00    +0.000 OA
ATOM     17  H   UNL     1       4.122   2.423  16.458  0.00  0.00    +0.000 HD
ENDBRANCH  11  16
BRANCH  12  18
ATOM     18  O   UNL     1       5.974   4.302  17.742  0.00  0.00    +0.000 OA
ATOM     19  H   UNL     1       6.329   4.382  16.838  0.00  0.00    +0.000 HD
ENDBRANCH  12  18
BRANCH  13  20
ATOM     20  O   UNL     1       4.841   6.929  17.914  0.00  0.00    +0.000 OA
ATOM     21  H   UNL     1       5.211   6.687  17.048  0.00  0.00    +0.000 HD
ENDBRANCH  13  20
ENDBRANCH   3   8
BRANCH   1  22
ATOM     22  C   UNL     1       0.626  10.564  18.325  0.00  0.00    +0.000 C 
BRANCH  22  26
ATOM     23  C   UNL     1      -3.575  10.838  17.308  0.00  0.00    +0.000 A 
ATOM     24  C   UNL     1      -3.009  11.719  18.232  0.00  0.00    +0.000 A 
ATOM     25  C   UNL     1      -1.662  11.608  18.588  0.00  0.00    +0.000 A 
ATOM     26  C   UNL     1      -0.858  10.605  18.032  0.00  0.00    +0.000 A 
ATOM     27  C   UNL     1      -1.448   9.695  17.143  0.00  0.00    +0.000 A 
ATOM     28  C   UNL     1      -2.797   9.807  16.788  0.00  0.00    +0.000 A 
BRANCH  23  29
ATOM     29  O   UNL     1      -4.881  11.083  16.986  0.00  0.00    +0.000 OA
BRANCH  29  31
ATOM     30  C   UNL     1      -6.732  12.457  17.593  0.00  0.00    +0.000 C 
ATOM     31  C   UNL     1      -5.738  11.418  18.079  0.00  0.00    +0.000 C 
ENDBRANCH  29  31
ENDBRANCH  23  29
ENDBRANCH  22  26
ENDBRANCH   1  22
TORSDOF 9
ENDMDL
MODEL 5
REMARK VINA RESULT:      -7.2      1.662      2.705
REMARK  Name = 
REMARK  11 active torsions:
REMARK  status: ('A' for Active; 'I' for Inactive)
REMARK    1  A    between atoms: C_1  and  C_2
REMARK    2  A    between atoms: C_2  and  O_3
REMARK    3  A    between atoms: O_3  and  C_4
REMARK    4  A    between atoms: C_7  and  C_8
REMARK    5  A    between atoms: C_8  and  C_9
REMARK    6  A    between atoms: C_11  and  C_12
REMARK    7  A    between atoms: C_14  and  S_15
REMARK    8  A    between atoms: S_15  and  C_16
REMARK    9  A    between atoms: C_17  and  O_18
REMARK   10  A    between atoms: C_19  and  O_20
REMARK   11  A    between atoms: C_21  and  O_22
REMARK                            x       y       z     vdW  Elec       q    Type
REMARK                         _______ _______ _______ _____ _____    ______ ____
ROOT
ATOM      1  C   UNL     1       1.065   9.320  19.361  0.00  0.00    +0.000 A 
ATOM      2  C   UNL     1       1.896   8.285  18.887  0.00  0.00    +0.000 A 
ATOM      3  C   UNL     1       2.268   7.201  19.702  0.00  0.00    +0.000 A 
ATOM      4  C   UNL     1       1.858   7.204  21.040  0.00  0.00    +0.000 A 
ATOM      5  C   UNL     1       1.024   8.213  21.523  0.00  0.00    +0.000 A 
ATOM      6  C   UNL     1       0.606   9.250  20.684  0.00  0.00    +0.000 A 
ATOM      7 CL   UNL     1      -0.484  10.416  21.343  0.00  0.00    +0.000 Cl
ENDROOT
BRANCH   3   8
ATOM      8  C   UNL     1       3.052   6.044  19.108  0.00  0.00    +0.000 C 
ATOM      9  O   UNL     1       4.092   6.586  18.286  0.00  0.00    +0.000 OA
ATOM     10  C   UNL     1       5.011   5.614  17.805  0.00  0.00    +0.000 C 
ATOM     11  C   UNL     1       4.299   4.548  16.943  0.00  0.00    +0.000 C 
ATOM     12  C   UNL     1       3.112   3.959  17.727  0.00  0.00    +0.000 C 
ATOM     13  C   UNL     1       2.193   5.064  18.288  0.00  0.00    +0.000 C 
BRANCH  10  14
ATOM     14  S   UNL     1       6.364   6.465  16.908  0.00  0.00    +0.000 S 
ATOM     15  C   UNL     1       7.598   6.563  18.230  0.00  0.00    +0.000 C 
ENDBRANCH  10  14
BRANCH  11  16
ATOM     16  O   UNL     1       5.183   3.494  16.537  0.00  0.00    +0.000 OA
ATOM     17  H   UNL     1       5.309   3.534  15.573  0.00  0.00    +0.000 HD
ENDBRANCH  11  16
BRANCH  12  18
ATOM     18  O   UNL     1       2.351   3.050  16.921  0.00  0.00    +0.000 OA
ATOM     19  H   UNL     1       2.682   3.095  16.005  0.00  0.00    +0.000 HD
ENDBRANCH  12  18
BRANCH  13  20
ATOM     20  O   UNL     1       1.153   4.490  19.091  0.00  0.00    +0.000 OA
ATOM     21  H   UNL     1       0.305   4.572  18.620  0.00  0.00    +0.000 HD
ENDBRANCH  13  20
ENDBRANCH   3   8
BRANCH   1  22
ATOM     22  C   UNL     1       0.712  10.457  18.429  0.00  0.00    +0.000 C 
BRANCH  22  26
ATOM     23  C   UNL     1      -3.429  10.965  17.264  0.00  0.00    +0.000 A 
ATOM     24  C   UNL     1      -2.802  11.903  18.087  0.00  0.00    +0.000 A 
ATOM     25  C   UNL     1      -1.478  11.721  18.493  0.00  0.00    +0.000 A 
ATOM     26  C   UNL     1      -0.757  10.590  18.090  0.00  0.00    +0.000 A 
ATOM     27  C   UNL     1      -1.411   9.629  17.305  0.00  0.00    +0.000 A 
ATOM     28  C   UNL     1      -2.738   9.812  16.901  0.00  0.00    +0.000 A 
BRANCH  23  29
ATOM     29  O   UNL     1      -4.702  11.280  16.876  0.00  0.00    +0.000 OA
BRANCH  29  31
ATOM     30  C   UNL     1      -6.715  12.285  17.664  0.00  0.00    +0.000 C 
ATOM     31  C   UNL     1      -5.703  11.177  17.890  0.00  0.00    +0.000 C 
ENDBRANCH  29  31
ENDBRANCH  23  29
ENDBRANCH  22  26
ENDBRANCH   1  22
TORSDOF 9
ENDMDL
MODEL 6
REMARK VINA RESULT:      -7.1      4.048      8.679
REMARK  Name = 
REMARK  11 active torsions:
REMARK  status: ('A' for Active; 'I' for Inactive)
REMARK    1  A    between atoms: C_1  and  C_2
REMARK    2  A    between atoms: C_2  and  O_3
REMARK    3  A    between atoms: O_3  and  C_4
REMARK    4  A    between atoms: C_7  and  C_8
REMARK    5  A    between atoms: C_8  and  C_9
REMARK    6  A    between atoms: C_11  and  C_12
REMARK    7  A    between atoms: C_14  and  S_15
REMARK    8  A    between atoms: S_15  and  C_16
REMARK    9  A    between atoms: C_17  and  O_18
REMARK   10  A    between atoms: C_19  and  O_20
REMARK   11  A    between atoms: C_21  and  O_22
REMARK                            x       y       z     vdW  Elec       q    Type
REMARK                         _______ _______ _______ _____ _____    ______ ____
ROOT
ATOM      1  C   UNL     1       3.350   4.246  19.802  0.00  0.00    +0.000 A 
ATOM      2  C   UNL     1       3.262   5.644  19.635  0.00  0.00    +0.000 A 
ATOM      3  C   UNL     1       2.099   6.358  19.970  0.00  0.00    +0.000 A 
ATOM      4  C   UNL     1       0.980   5.640  20.407  0.00  0.00    +0.000 A 
ATOM      5  C   UNL     1       1.053   4.259  20.591  0.00  0.00    +0.000 A 
ATOM      6  C   UNL     1       2.237   3.569  20.318  0.00  0.00    +0.000 A 
ATOM      7 CL   UNL     1       2.262   1.873  20.644  0.00  0.00    +0.000 Cl
ENDROOT
BRANCH   3   8
ATOM      8  C   UNL     1       2.099   7.876  19.900  0.00  0.00    +0.000 C 
ATOM      9  O   UNL     1       0.964   8.355  20.630  0.00  0.00    +0.000 OA
ATOM     10  C   UNL     1       0.937   9.766  20.792  0.00  0.00    +0.000 C 
ATOM     11  C   UNL     1       0.901  10.487  19.427  0.00  0.00    +0.000 C 
ATOM     12  C   UNL     1       2.054   9.976  18.543  0.00  0.00    +0.000 C 
ATOM     13  C   UNL     1       2.075   8.435  18.466  0.00  0.00    +0.000 C 
BRANCH  10  14
ATOM     14  S   UNL     1      -0.475  10.218  21.870  0.00  0.00    +0.000 S 
ATOM     15  C   UNL     1       0.056   9.439  23.417  0.00  0.00    +0.000 C 
ENDBRANCH  10  14
BRANCH  11  16
ATOM     16  O   UNL     1       0.987  11.913  19.558  0.00  0.00    +0.000 OA
ATOM     17  H   UNL     1       0.733  12.329  18.716  0.00  0.00    +0.000 HD
ENDBRANCH  11  16
BRANCH  12  18
ATOM     18  O   UNL     1       1.988  10.531  17.223  0.00  0.00    +0.000 OA
ATOM     19  H   UNL     1       2.670  10.104  16.672  0.00  0.00    +0.000 HD
ENDBRANCH  12  18
BRANCH  13  20
ATOM     20  O   UNL     1       3.212   7.987  17.716  0.00  0.00    +0.000 OA
ATOM     21  H   UNL     1       3.242   7.015  17.734  0.00  0.00    +0.000 HD
ENDBRANCH  13  20
ENDBRANCH   3   8
BRANCH   1  22
ATOM     22  C   UNL     1       4.632   3.545  19.414  0.00  0.00    +0.000 C 
BRANCH  22  26
ATOM     23  C   UNL     1       6.770   4.926  15.910  0.00  0.00    +0.000 A 
ATOM     24  C   UNL     1       7.280   5.155  17.189  0.00  0.00    +0.000 A 
ATOM     25  C   UNL     1       6.573   4.743  18.322  0.00  0.00    +0.000 A 
ATOM     26  C   UNL     1       5.335   4.099  18.195  0.00  0.00    +0.000 A 
ATOM     27  C   UNL     1       4.809   3.918  16.908  0.00  0.00    +0.000 A 
ATOM     28  C   UNL     1       5.517   4.334  15.774  0.00  0.00    +0.000 A 
BRANCH  23  29
ATOM     29  O   UNL     1       7.578   5.312  14.877  0.00  0.00    +0.000 OA
BRANCH  29  31
ATOM     30  C   UNL     1       8.054   5.540  12.552  0.00  0.00    +0.000 C 
ATOM     31  C   UNL     1       7.223   4.807  13.589  0.00  0.00    +0.000 C 
ENDBRANCH  29  31
ENDBRANCH  23  29
ENDBRANCH  22  26
ENDBRANCH   1  22
TORSDOF 9
ENDMDL
MODEL 7
REMARK VINA RESULT:      -6.9      3.850      8.787
REMARK  Name = 
REMARK  11 active torsions:
REMARK  status: ('A' for Active; 'I' for Inactive)
REMARK    1  A    between atoms: C_1  and  C_2
REMARK    2  A    between atoms: C_2  and  O_3
REMARK    3  A    between atoms: O_3  and  C_4
REMARK    4  A    between atoms: C_7  and  C_8
REMARK    5  A    between atoms: C_8  and  C_9
REMARK    6  A    between atoms: C_11  and  C_12
REMARK    7  A    between atoms: C_14  and  S_15
REMARK    8  A    between atoms: S_15  and  C_16
REMARK    9  A    between atoms: C_17  and  O_18
REMARK   10  A    between atoms: C_19  and  O_20
REMARK   11  A    between atoms: C_21  and  O_22
REMARK                            x       y       z     vdW  Elec       q    Type
REMARK                         _______ _______ _______ _____ _____    ______ ____
ROOT
ATOM      1  C   UNL     1       4.221   5.026  19.367  0.00  0.00    +0.000 A 
ATOM      2  C   UNL     1       3.705   6.339  19.365  0.00  0.00    +0.000 A 
ATOM      3  C   UNL     1       2.397   6.621  19.795  0.00  0.00    +0.000 A 
ATOM      4  C   UNL     1       1.571   5.552  20.157  0.00  0.00    +0.000 A 
ATOM      5  C   UNL     1       2.068   4.248  20.177  0.00  0.00    +0.000 A 
ATOM      6  C   UNL     1       3.391   3.988  19.813  0.00  0.00    +0.000 A 
ATOM      7 CL   UNL     1       3.945   2.357  19.937  0.00  0.00    +0.000 Cl
ENDROOT
BRANCH   3   8
ATOM      8  C   UNL     1       1.933   8.064  19.904  0.00  0.00    +0.000 C 
ATOM      9  O   UNL     1       1.025   8.157  21.007  0.00  0.00    +0.000 OA
ATOM     10  C   UNL     1       0.646   9.488  21.330  0.00  0.00    +0.000 C 
ATOM     11  C   UNL     1      -0.057  10.177  20.139  0.00  0.00    +0.000 C 
ATOM     12  C   UNL     1       0.825  10.059  18.882  0.00  0.00    +0.000 C 
ATOM     13  C   UNL     1       1.265   8.603  18.626  0.00  0.00    +0.000 C 
BRANCH  10  14
ATOM     14  S   UNL     1      -0.385   9.465  22.845  0.00  0.00    +0.000 S 
ATOM     15  C   UNL     1      -0.925  11.194  22.879  0.00  0.00    +0.000 C 
ENDBRANCH  10  14
BRANCH  11  16
ATOM     16  O   UNL     1      -0.349  11.556  20.399  0.00  0.00    +0.000 OA
ATOM     17  H   UNL     1       0.093  11.829  21.221  0.00  0.00    +0.000 HD
ENDBRANCH  11  16
BRANCH  12  18
ATOM     18  O   UNL     1       0.159  10.580  17.724  0.00  0.00    +0.000 OA
ATOM     19  H   UNL     1      -0.770  10.764  17.957  0.00  0.00    +0.000 HD
ENDBRANCH  12  18
BRANCH  13  20
ATOM     20  O   UNL     1       2.160   8.540  17.507  0.00  0.00    +0.000 OA
ATOM     21  H   UNL     1       1.966   7.739  16.990  0.00  0.00    +0.000 HD
ENDBRANCH  13  20
ENDBRANCH   3   8
BRANCH   1  22
ATOM     22  C   UNL     1       5.636   4.798  18.885  0.00  0.00    +0.000 C 
BRANCH  22  26
ATOM     23  C   UNL     1       6.207   4.169  14.638  0.00  0.00    +0.000 A 
ATOM     24  C   UNL     1       7.196   4.790  15.403  0.00  0.00    +0.000 A 
ATOM     25  C   UNL     1       6.998   5.027  16.766  0.00  0.00    +0.000 A 
ATOM     26  C   UNL     1       5.799   4.653  17.388  0.00  0.00    +0.000 A 
ATOM     27  C   UNL     1       4.793   4.076  16.600  0.00  0.00    +0.000 A 
ATOM     28  C   UNL     1       4.992   3.841  15.235  0.00  0.00    +0.000 A 
BRANCH  23  29
ATOM     29  O   UNL     1       6.537   3.929  13.333  0.00  0.00    +0.000 OA
BRANCH  29  31
ATOM     30  C   UNL     1       5.766   2.368  11.706  0.00  0.00    +0.000 C 
ATOM     31  C   UNL     1       5.444   3.646  12.458  0.00  0.00    +0.000 C 
ENDBRANCH  29  31
ENDBRANCH  23  29
ENDBRANCH  22  26
ENDBRANCH   1  22
TORSDOF 9
ENDMDL
MODEL 8
REMARK VINA RESULT:      -6.9      1.572      2.511
REMARK  Name = 
REMARK  11 active torsions:
REMARK  status: ('A' for Active; 'I' for Inactive)
REMARK    1  A    between atoms: C_1  and  C_2
REMARK    2  A    between atoms: C_2  and  O_3
REMARK    3  A    between atoms: O_3  and  C_4
REMARK    4  A    between atoms: C_7  and  C_8
REMARK    5  A    between atoms: C_8  and  C_9
REMARK    6  A    between atoms: C_11  and  C_12
REMARK    7  A    between atoms: C_14  and  S_15
REMARK    8  A    between atoms: S_15  and  C_16
REMARK    9  A    between atoms: C_17  and  O_18
REMARK   10  A    between atoms: C_19  and  O_20
REMARK   11  A    between atoms: C_21  and  O_22
REMARK                            x       y       z     vdW  Elec       q    Type
REMARK                         _______ _______ _______ _____ _____    ______ ____
ROOT
ATOM      1  C   UNL     1       1.092   9.310  19.416  0.00  0.00    +0.000 A 
ATOM      2  C   UNL     1       1.908   8.241  18.992  0.00  0.00    +0.000 A 
ATOM      3  C   UNL     1       2.174   7.137  19.821  0.00  0.00    +0.000 A 
ATOM      4  C   UNL     1       1.672   7.151  21.127  0.00  0.00    +0.000 A 
ATOM      5  C   UNL     1       0.852   8.194  21.560  0.00  0.00    +0.000 A 
ATOM      6  C   UNL     1       0.540   9.253  20.703  0.00  0.00    +0.000 A 
ATOM      7 CL   UNL     1      -0.541  10.463  21.295  0.00  0.00    +0.000 Cl
ENDROOT
BRANCH   3   8
ATOM      8  C   UNL     1       2.945   5.950  19.272  0.00  0.00    +0.000 C 
ATOM      9  O   UNL     1       3.957   6.446  18.389  0.00  0.00    +0.000 OA
ATOM     10  C   UNL     1       4.866   5.450  17.938  0.00  0.00    +0.000 C 
ATOM     11  C   UNL     1       4.134   4.333  17.162  0.00  0.00    +0.000 C 
ATOM     12  C   UNL     1       2.974   3.788  18.015  0.00  0.00    +0.000 C 
ATOM     13  C   UNL     1       2.066   4.920  18.538  0.00  0.00    +0.000 C 
BRANCH  10  14
ATOM     14  S   UNL     1       6.187   6.250  16.951  0.00  0.00    +0.000 S 
ATOM     15  C   UNL     1       5.287   6.541  15.406  0.00  0.00    +0.000 C 
ENDBRANCH  10  14
BRANCH  11  16
ATOM     16  O   UNL     1       5.010   3.260  16.792  0.00  0.00    +0.000 OA
ATOM     17  H   UNL     1       4.510   2.597  16.285  0.00  0.00    +0.000 HD
ENDBRANCH  11  16
BRANCH  12  18
ATOM     18  O   UNL     1       2.193   2.830  17.288  0.00  0.00    +0.000 OA
ATOM     19  H   UNL     1       1.866   2.157  17.912  0.00  0.00    +0.000 HD
ENDBRANCH  12  18
BRANCH  13  20
ATOM     20  O   UNL     1       1.054   4.391  19.404  0.00  0.00    +0.000 OA
ATOM     21  H   UNL     1       0.208   4.364  18.925  0.00  0.00    +0.000 HD
ENDBRANCH  13  20
ENDBRANCH   3   8
BRANCH   1  22
ATOM     22  C   UNL     1       0.855  10.466  18.472  0.00  0.00    +0.000 C 
BRANCH  22  26
ATOM     23  C   UNL     1      -3.298  10.834  17.301  0.00  0.00    +0.000 A 
ATOM     24  C   UNL     1      -2.540   9.736  16.891  0.00  0.00    +0.000 A 
ATOM     25  C   UNL     1      -1.190   9.635  17.237  0.00  0.00    +0.000 A 
ATOM     26  C   UNL     1      -0.571  10.637  17.995  0.00  0.00    +0.000 A 
ATOM     27  C   UNL     1      -1.328  11.760  18.359  0.00  0.00    +0.000 A 
ATOM     28  C   UNL     1      -2.680  11.861  18.009  0.00  0.00    +0.000 A 
BRANCH  23  29
ATOM     29  O   UNL     1      -4.622  10.795  16.961  0.00  0.00    +0.000 OA
BRANCH  29  31
ATOM     30  C   UNL     1      -6.408  11.221  18.481  0.00  0.00    +0.000 C 
ATOM     31  C   UNL     1      -5.433  11.841  17.498  0.00  0.00    +0.000 C 
ENDBRANCH  29  31
ENDBRANCH  23  29
ENDBRANCH  22  26
ENDBRANCH   1  22
TORSDOF 9
ENDMDL
MODEL 9
REMARK VINA RESULT:      -6.7      4.048      8.595
REMARK  Name = 
REMARK  11 active torsions:
REMARK  status: ('A' for Active; 'I' for Inactive)
REMARK    1  A    between atoms: C_1  and  C_2
REMARK    2  A    between atoms: C_2  and  O_3
REMARK    3  A    between atoms: O_3  and  C_4
REMARK    4  A    between atoms: C_7  and  C_8
REMARK    5  A    between atoms: C_8  and  C_9
REMARK    6  A    between atoms: C_11  and  C_12
REMARK    7  A    between atoms: C_14  and  S_15
REMARK    8  A    between atoms: S_15  and  C_16
REMARK    9  A    between atoms: C_17  and  O_18
REMARK   10  A    between atoms: C_19  and  O_20
REMARK   11  A    between atoms: C_21  and  O_22
REMARK                            x       y       z     vdW  Elec       q    Type
REMARK                         _______ _______ _______ _____ _____    ______ ____
ROOT
ATOM      1  C   UNL     1       3.889   4.617  19.274  0.00  0.00    +0.000 A 
ATOM      2  C   UNL     1       3.492   5.970  19.303  0.00  0.00    +0.000 A 
ATOM      3  C   UNL     1       2.317   6.384  19.955  0.00  0.00    +0.000 A 
ATOM      4  C   UNL     1       1.491   5.406  20.519  0.00  0.00    +0.000 A 
ATOM      5  C   UNL     1       1.873   4.064  20.512  0.00  0.00    +0.000 A 
ATOM      6  C   UNL     1       3.077   3.674  19.920  0.00  0.00    +0.000 A 
ATOM      7 CL   UNL     1       3.509   2.005  20.020  0.00  0.00    +0.000 Cl
ENDROOT
BRANCH   3   8
ATOM      8  C   UNL     1       2.003   7.865  20.075  0.00  0.00    +0.000 C 
ATOM      9  O   UNL     1       1.079   8.038  21.156  0.00  0.00    +0.000 OA
ATOM     10  C   UNL     1       0.832   9.397  21.490  0.00  0.00    +0.000 C 
ATOM     11  C   UNL     1       0.238  10.171  20.293  0.00  0.00    +0.000 C 
ATOM     12  C   UNL     1       1.136   9.979  19.058  0.00  0.00    +0.000 C 
ATOM     13  C   UNL     1       1.430   8.489  18.789  0.00  0.00    +0.000 C 
BRANCH  10  14
ATOM     14  S   UNL     1      -0.237   9.461  22.978  0.00  0.00    +0.000 S 
ATOM     15  C   UNL     1      -0.932  11.123  22.789  0.00  0.00    +0.000 C 
ENDBRANCH  10  14
BRANCH  11  16
ATOM     16  O   UNL     1       0.083  11.569  20.568  0.00  0.00    +0.000 OA
ATOM     17  H   UNL     1      -0.746  11.711  21.058  0.00  0.00    +0.000 HD
ENDBRANCH  11  16
BRANCH  12  18
ATOM     18  O   UNL     1       0.560  10.583  17.892  0.00  0.00    +0.000 OA
ATOM     19  H   UNL     1      -0.265  11.033  18.151  0.00  0.00    +0.000 HD
ENDBRANCH  12  18
BRANCH  13  20
ATOM     20  O   UNL     1       2.343   8.348  17.693  0.00  0.00    +0.000 OA
ATOM     21  H   UNL     1       3.183   8.783  17.921  0.00  0.00    +0.000 HD
ENDBRANCH  13  20
ENDBRANCH   3   8
BRANCH   1  22
ATOM     22  C   UNL     1       5.162   4.246  18.548  0.00  0.00    +0.000 C 
BRANCH  22  26
ATOM     23  C   UNL     1       7.714   7.671  17.833  0.00  0.00    +0.000 A 
ATOM     24  C   UNL     1       6.597   7.438  17.029  0.00  0.00    +0.000 A 
ATOM     25  C   UNL     1       5.793   6.313  17.236  0.00  0.00    +0.000 A 
ATOM     26  C   UNL     1       6.100   5.394  18.247  0.00  0.00    +0.000 A 
ATOM     27  C   UNL     1       7.253   5.611  19.016  0.00  0.00    +0.000 A 
ATOM     28  C   UNL     1       8.057   6.737  18.807  0.00  0.00    +0.000 A 
BRANCH  23  29
ATOM     29  O   UNL     1       8.386   8.835  17.583  0.00  0.00    +0.000 OA
BRANCH  29  31
ATOM     30  C   UNL     1       9.440  10.863  18.259  0.00  0.00    +0.000 C 
ATOM     31  C   UNL     1       8.810   9.567  18.734  0.00  0.00    +0.000 C 
ENDBRANCH  29  31
ENDBRANCH  23  29
ENDBRANCH  22  26
ENDBRANCH   1  22
TORSDOF 9
ENDMDL
