MODEL 1
REMARK VINA RESULT:      -8.9      0.000      0.000
REMARK  Name = 
REMARK  5 active torsions:
REMARK  status: ('A' for Active; 'I' for Inactive)
REMARK    1  A    between atoms: C_1  and  O_2
REMARK    2  A    between atoms: O_2  and  C_3
REMARK    3  A    between atoms: C_8  and  N_9
REMARK    4  A    between atoms: N_9  and  C_10
REMARK    5  A    between atoms: C_15  and  C_16
REMARK                            x       y       z     vdW  Elec       q    Type
REMARK                         _______ _______ _______ _____ _____    ______ ____
ROOT
ATOM      1  C   UNL     1       3.512   4.911  19.662  0.00  0.00    +0.000 A 
ATOM      2  N   UNL     1       3.541   3.628  20.085  0.00  0.00    +0.000 NA
ATOM      3  C   UNL     1       2.439   3.103  20.664  0.00  0.00    +0.000 A 
ATOM      4  C   UNL     1       1.270   3.804  20.857  0.00  0.00    +0.000 A 
ATOM      5  C   UNL     1       1.244   5.131  20.455  0.00  0.00    +0.000 A 
ATOM      6  C   UNL     1       2.374   5.731  19.861  0.00  0.00    +0.000 A 
ENDROOT
BRANCH   6   7
ATOM      7  C   UNL     1       2.262   7.110  19.347  0.00  0.00    +0.000 A 
ATOM      8  C   UNL     1       2.576   7.475  18.031  0.00  0.00    +0.000 A 
ATOM      9  N   UNL     1       2.256   8.666  17.453  0.00  0.00    +0.000 NA
ATOM     10  C   UNL     1       1.612   9.461  18.331  0.00  0.00    +0.000 A 
ATOM     11  N   UNL     1       1.051  10.678  18.057  0.00  0.00    +0.000 N 
ATOM     12  C   UNL     1       0.455  11.178  19.191  0.00  0.00    +0.000 A 
ATOM     13  C   UNL     1       0.673  10.281  20.218  0.00  0.00    +0.000 A 
ATOM     14  C   UNL     1       1.355   9.173  19.666  0.00  0.00    +0.000 A 
ATOM     15  N   UNL     1       1.697   7.986  20.222  0.00  0.00    +0.000 NA
ATOM     16  H   UNL     1       1.046  11.102  17.140  0.00  0.00    +0.000 HD
ENDBRANCH   6   7
BRANCH   1  17
ATOM     17  N   UNL     1       4.665   5.432  19.019  0.00  0.00    +0.000 N 
ATOM     18  H   UNL     1       4.343   5.822  18.134  0.00  0.00    +0.000 HD
BRANCH  17  24
ATOM     19  C   UNL     1       6.749   4.783  14.551  0.00  0.00    +0.000 C 
ATOM     20  O   UNL     1       7.724   5.434  14.190  0.00  0.00    +0.000 OA
ATOM     21  N   UNL     1       6.333   4.688  15.867  0.00  0.00    +0.000 N 
ATOM     22  C   UNL     1       6.860   5.673  16.801  0.00  0.00    +0.000 C 
ATOM     23  C   UNL     1       7.033   5.097  18.192  0.00  0.00    +0.000 C 
ATOM     24  C   UNL     1       5.746   4.464  18.725  0.00  0.00    +0.000 C 
ATOM     25  C   UNL     1       5.225   3.439  17.696  0.00  0.00    +0.000 C 
ATOM     26  C   UNL     1       5.111   4.007  16.280  0.00  0.00    +0.000 C 
BRANCH  19  28
ATOM     27  C   UNL     1       6.597   3.835  12.423  0.00  0.00    +0.000 C 
ATOM     28  O   UNL     1       5.962   4.089  13.678  0.00  0.00    +0.000 OA
ENDBRANCH  19  28
ENDBRANCH  17  24
ENDBRANCH   1  17
TORSDOF 4
ENDMDL
MODEL 2
REMARK VINA RESULT:      -8.8      1.988      2.724
REMARK  Name = 
REMARK  5 active torsions:
REMARK  status: ('A' for Active; 'I' for Inactive)
REMARK    1  A    between atoms: C_1  and  O_2
REMARK    2  A    between atoms: O_2  and  C_3
REMARK    3  A    between atoms: C_8  and  N_9
REMARK    4  A    between atoms: N_9  and  C_10
REMARK    5  A    between atoms: C_15  and  C_16
REMARK                            x       y       z     vdW  Elec       q    Type
REMARK                         _______ _______ _______ _____ _____    ______ ____
ROOT
ATOM      1  C   UNL     1       2.529   4.105  18.629  0.00  0.00    +0.000 A 
ATOM      2  N   UNL     1       2.433   2.757  18.679  0.00  0.00    +0.000 NA
ATOM      3  C   UNL     1       1.829   2.182  19.741  0.00  0.00    +0.000 A 
ATOM      4  C   UNL     1       1.298   2.890  20.795  0.00  0.00    +0.000 A 
ATOM      5  C   UNL     1       1.423   4.272  20.766  0.00  0.00    +0.000 A 
ATOM      6  C   UNL     1       2.060   4.920  19.688  0.00  0.00    +0.000 A 
ENDROOT
BRANCH   6   7
ATOM      7  C   UNL     1       2.068   6.395  19.646  0.00  0.00    +0.000 A 
ATOM      8  C   UNL     1       2.406   7.137  18.507  0.00  0.00    +0.000 A 
ATOM      9  N   UNL     1       2.189   8.472  18.351  0.00  0.00    +0.000 NA
ATOM     10  C   UNL     1       1.622   8.994  19.458  0.00  0.00    +0.000 A 
ATOM     11  N   UNL     1       1.170  10.276  19.607  0.00  0.00    +0.000 N 
ATOM     12  C   UNL     1       0.627  10.431  20.861  0.00  0.00    +0.000 A 
ATOM     13  C   UNL     1       0.770   9.236  21.539  0.00  0.00    +0.000 A 
ATOM     14  C   UNL     1       1.348   8.313  20.639  0.00  0.00    +0.000 A 
ATOM     15  N   UNL     1       1.587   6.987  20.774  0.00  0.00    +0.000 NA
ATOM     16  H   UNL     1       1.197  10.970  18.875  0.00  0.00    +0.000 HD
ENDBRANCH   6   7
BRANCH   1  17
ATOM     17  N   UNL     1       3.130   4.692  17.485  0.00  0.00    +0.000 N 
ATOM     18  H   UNL     1       2.463   4.576  16.724  0.00  0.00    +0.000 HD
BRANCH  17  24
ATOM     19  C   UNL     1       7.549   6.910  18.019  0.00  0.00    +0.000 C 
ATOM     20  O   UNL     1       8.230   6.762  19.028  0.00  0.00    +0.000 OA
ATOM     21  N   UNL     1       6.490   6.087  17.680  0.00  0.00    +0.000 N 
ATOM     22  C   UNL     1       5.950   5.235  18.730  0.00  0.00    +0.000 C 
ATOM     23  C   UNL     1       5.436   3.919  18.182  0.00  0.00    +0.000 C 
ATOM     24  C   UNL     1       4.422   4.114  17.053  0.00  0.00    +0.000 C 
ATOM     25  C   UNL     1       5.037   5.029  15.975  0.00  0.00    +0.000 C 
ATOM     26  C   UNL     1       5.611   6.330  16.541  0.00  0.00    +0.000 C 
BRANCH  19  28
ATOM     27  C   UNL     1       8.101   9.163  17.748  0.00  0.00    +0.000 C 
ATOM     28  O   UNL     1       7.762   7.921  17.127  0.00  0.00    +0.000 OA
ENDBRANCH  19  28
ENDBRANCH  17  24
ENDBRANCH   1  17
TORSDOF 4
ENDMDL
MODEL 3
REMARK VINA RESULT:      -8.7      3.364      6.962
REMARK  Name = 
REMARK  5 active torsions:
REMARK  status: ('A' for Active; 'I' for Inactive)
REMARK    1  A    between atoms: C_1  and  O_2
REMARK    2  A    between atoms: O_2  and  C_3
REMARK    3  A    between atoms: C_8  and  N_9
REMARK    4  A    between atoms: N_9  and  C_10
REMARK    5  A    between atoms: C_15  and  C_16
REMARK                            x       y       z     vdW  Elec       q    Type
REMARK                         _______ _______ _______ _____ _____    ______ ____
ROOT
ATOM      1  C   UNL     1       2.044   4.805  19.320  0.00  0.00    +0.000 A 
ATOM      2  N   UNL     1       1.001   4.432  20.095  0.00  0.00    +0.000 NA
ATOM      3  C   UNL     1       1.101   3.303  20.830  0.00  0.00    +0.000 A 
ATOM      4  C   UNL     1       2.213   2.492  20.838  0.00  0.00    +0.000 A 
ATOM      5  C   UNL     1       3.274   2.851  20.019  0.00  0.00    +0.000 A 
ATOM      6  C   UNL     1       3.213   4.011  19.220  0.00  0.00    +0.000 A 
ENDROOT
BRANCH   6   7
ATOM      7  C   UNL     1       4.408   4.413  18.453  0.00  0.00    +0.000 A 
ATOM      8  C   UNL     1       5.684   4.547  19.017  0.00  0.00    +0.000 A 
ATOM      9  N   UNL     1       6.841   4.670  18.312  0.00  0.00    +0.000 NA
ATOM     10  C   UNL     1       6.592   4.668  16.987  0.00  0.00    +0.000 A 
ATOM     11  N   UNL     1       7.528   4.664  15.989  0.00  0.00    +0.000 N 
ATOM     12  C   UNL     1       6.898   4.630  14.766  0.00  0.00    +0.000 A 
ATOM     13  C   UNL     1       5.535   4.652  14.987  0.00  0.00    +0.000 A 
ATOM     14  C   UNL     1       5.339   4.622  16.386  0.00  0.00    +0.000 A 
ATOM     15  N   UNL     1       4.200   4.515  17.111  0.00  0.00    +0.000 NA
ATOM     16  H   UNL     1       8.524   4.640  16.152  0.00  0.00    +0.000 HD
ENDBRANCH   6   7
BRANCH   1  17
ATOM     17  N   UNL     1       1.936   6.016  18.587  0.00  0.00    +0.000 N 
ATOM     18  H   UNL     1       2.289   5.813  17.653  0.00  0.00    +0.000 HD
BRANCH  17  24
ATOM     19  C   UNL     1      -0.019  10.500  19.476  0.00  0.00    +0.000 C 
ATOM     20  O   UNL     1      -0.520  10.786  20.558  0.00  0.00    +0.000 OA
ATOM     21  N   UNL     1       0.809   9.410  19.276  0.00  0.00    +0.000 N 
ATOM     22  C   UNL     1       0.801   8.376  20.300  0.00  0.00    +0.000 C 
ATOM     23  C   UNL     1       2.158   7.716  20.447  0.00  0.00    +0.000 C 
ATOM     24  C   UNL     1       2.689   7.174  19.119  0.00  0.00    +0.000 C 
ATOM     25  C   UNL     1       2.665   8.303  18.067  0.00  0.00    +0.000 C 
ATOM     26  C   UNL     1       1.311   9.008  17.967  0.00  0.00    +0.000 C 
BRANCH  19  28
ATOM     27  C   UNL     1      -1.554  11.797  18.286  0.00  0.00    +0.000 C 
ATOM     28  O   UNL     1      -0.243  11.231  18.345  0.00  0.00    +0.000 OA
ENDBRANCH  19  28
ENDBRANCH  17  24
ENDBRANCH   1  17
TORSDOF 4
ENDMDL
MODEL 4
REMARK VINA RESULT:      -8.2      3.396      6.517
REMARK  Name = 
REMARK  5 active torsions:
REMARK  status: ('A' for Active; 'I' for Inactive)
REMARK    1  A    between atoms: C_1  and  O_2
REMARK    2  A    between atoms: O_2  and  C_3
REMARK    3  A    between atoms: C_8  and  N_9
REMARK    4  A    between atoms: N_9  and  C_10
REMARK    5  A    between atoms: C_15  and  C_16
REMARK                            x       y       z     vdW  Elec       q    Type
REMARK                         _______ _______ _______ _____ _____    ______ ____
ROOT
ATOM      1  C   UNL     1       2.285   4.333  18.058  0.00  0.00    +0.000 A 
ATOM      2  N   UNL     1       1.239   3.595  18.491  0.00  0.00    +0.000 NA
ATOM      3  C   UNL     1       1.416   2.275  18.713  0.00  0.00    +0.000 A 
ATOM      4  C   UNL     1       2.612   1.620  18.520  0.00  0.00    +0.000 A 
ATOM      5  C   UNL     1       3.681   2.365  18.044  0.00  0.00    +0.000 A 
ATOM      6  C   UNL     1       3.543   3.744  17.780  0.00  0.00    +0.000 A 
ENDROOT
BRANCH   6   7
ATOM      7  C   UNL     1       4.736   4.517  17.383  0.00  0.00    +0.000 A 
ATOM      8  C   UNL     1       4.899   5.096  16.118  0.00  0.00    +0.000 A 
ATOM      9  N   UNL     1       5.853   6.012  15.795  0.00  0.00    +0.000 NA
ATOM     10  C   UNL     1       6.640   6.273  16.859  0.00  0.00    +0.000 A 
ATOM     11  N   UNL     1       7.625   7.221  16.922  0.00  0.00    +0.000 N 
ATOM     12  C   UNL     1       8.189   7.216  18.176  0.00  0.00    +0.000 A 
ATOM     13  C   UNL     1       7.580   6.221  18.915  0.00  0.00    +0.000 A 
ATOM     14  C   UNL     1       6.567   5.662  18.105  0.00  0.00    +0.000 A 
ATOM     15  N   UNL     1       5.617   4.741  18.397  0.00  0.00    +0.000 NA
ATOM     16  H   UNL     1       7.850   7.849  16.165  0.00  0.00    +0.000 HD
ENDBRANCH   6   7
BRANCH   1  17
ATOM     17  N   UNL     1       2.091   5.727  17.870  0.00  0.00    +0.000 N 
ATOM     18  H   UNL     1       2.265   5.906  16.882  0.00  0.00    +0.000 HD
BRANCH  17  24
ATOM     19  C   UNL     1       0.691  10.107  19.761  0.00  0.00    +0.000 C 
ATOM     20  O   UNL     1       0.194  10.202  20.879  0.00  0.00    +0.000 OA
ATOM     21  N   UNL     1       1.380   8.992  19.319  0.00  0.00    +0.000 N 
ATOM     22  C   UNL     1       1.206   7.762  20.077  0.00  0.00    +0.000 C 
ATOM     23  C   UNL     1       2.463   6.914  20.073  0.00  0.00    +0.000 C 
ATOM     24  C   UNL     1       2.966   6.624  18.658  0.00  0.00    +0.000 C 
ATOM     25  C   UNL     1       3.122   7.956  17.896  0.00  0.00    +0.000 C 
ATOM     26  C   UNL     1       1.873   8.837  17.955  0.00  0.00    +0.000 C 
BRANCH  19  28
ATOM     27  C   UNL     1      -0.740  11.536  18.593  0.00  0.00    +0.000 C 
ATOM     28  O   UNL     1       0.601  11.100  18.829  0.00  0.00    +0.000 OA
ENDBRANCH  19  28
ENDBRANCH  17  24
ENDBRANCH   1  17
TORSDOF 4
ENDMDL
MODEL 5
REMARK VINA RESULT:      -8.0      4.045      6.815
REMARK  Name = 
REMARK  5 active torsions:
REMARK  status: ('A' for Active; 'I' for Inactive)
REMARK    1  A    between atoms: C_1  and  O_2
REMARK    2  A    between atoms: O_2  and  C_3
REMARK    3  A    between atoms: C_8  and  N_9
REMARK    4  A    between atoms: N_9  and  C_10
REMARK    5  A    between atoms: C_15  and  C_16
REMARK                            x       y       z     vdW  Elec       q    Type
REMARK                         _______ _______ _______ _____ _____    ______ ____
ROOT
ATOM      1  C   UNL     1       5.840   3.945  15.647  0.00  0.00    +0.000 A 
ATOM      2  N   UNL     1       5.563   3.191  14.559  0.00  0.00    +0.000 NA
ATOM      3  C   UNL     1       6.136   3.509  13.378  0.00  0.00    +0.000 A 
ATOM      4  C   UNL     1       6.995   4.571  13.206  0.00  0.00    +0.000 A 
ATOM      5  C   UNL     1       7.258   5.368  14.311  0.00  0.00    +0.000 A 
ATOM      6  C   UNL     1       6.672   5.088  15.562  0.00  0.00    +0.000 A 
ENDROOT
BRANCH   6   7
ATOM      7  C   UNL     1       7.069   5.896  16.733  0.00  0.00    +0.000 A 
ATOM      8  C   UNL     1       7.544   5.344  17.930  0.00  0.00    +0.000 A 
ATOM      9  N   UNL     1       8.147   6.046  18.929  0.00  0.00    +0.000 NA
ATOM     10  C   UNL     1       8.207   7.357  18.618  0.00  0.00    +0.000 A 
ATOM     11  N   UNL     1       8.842   8.330  19.339  0.00  0.00    +0.000 N 
ATOM     12  C   UNL     1       8.714   9.539  18.696  0.00  0.00    +0.000 A 
ATOM     13  C   UNL     1       7.951   9.341  17.563  0.00  0.00    +0.000 A 
ATOM     14  C   UNL     1       7.675   7.958  17.483  0.00  0.00    +0.000 A 
ATOM     15  N   UNL     1       7.066   7.239  16.510  0.00  0.00    +0.000 NA
ATOM     16  H   UNL     1       9.361   8.153  20.187  0.00  0.00    +0.000 HD
ENDBRANCH   6   7
BRANCH   1  17
ATOM     17  N   UNL     1       5.262   3.570  16.887  0.00  0.00    +0.000 N 
ATOM     18  H   UNL     1       5.613   2.635  17.092  0.00  0.00    +0.000 HD
BRANCH  17  24
ATOM     19  C   UNL     1       2.539   4.093  21.015  0.00  0.00    +0.000 C 
ATOM     20  O   UNL     1       2.159   5.192  21.406  0.00  0.00    +0.000 OA
ATOM     21  N   UNL     1       3.011   3.853  19.737  0.00  0.00    +0.000 N 
ATOM     22  C   UNL     1       3.394   5.011  18.943  0.00  0.00    +0.000 C 
ATOM     23  C   UNL     1       3.127   4.798  17.467  0.00  0.00    +0.000 C 
ATOM     24  C   UNL     1       3.783   3.523  16.934  0.00  0.00    +0.000 C 
ATOM     25  C   UNL     1       3.354   2.330  17.814  0.00  0.00    +0.000 C 
ATOM     26  C   UNL     1       3.567   2.574  19.310  0.00  0.00    +0.000 C 
BRANCH  19  28
ATOM     27  C   UNL     1       1.256   2.397  21.980  0.00  0.00    +0.000 C 
ATOM     28  O   UNL     1       2.548   2.989  21.817  0.00  0.00    +0.000 OA
ENDBRANCH  19  28
ENDBRANCH  17  24
ENDBRANCH   1  17
TORSDOF 4
ENDMDL
MODEL 6
REMARK VINA RESULT:      -7.9      2.140      3.033
REMARK  Name = 
REMARK  5 active torsions:
REMARK  status: ('A' for Active; 'I' for Inactive)
REMARK    1  A    between atoms: C_1  and  O_2
REMARK    2  A    between atoms: O_2  and  C_3
REMARK    3  A    between atoms: C_8  and  N_9
REMARK    4  A    between atoms: N_9  and  C_10
REMARK    5  A    between atoms: C_15  and  C_16
REMARK                            x       y       z     vdW  Elec       q    Type
REMARK                         _______ _______ _______ _____ _____    ______ ____
ROOT
ATOM      1  C   UNL     1       3.091   4.200  19.113  0.00  0.00    +0.000 A 
ATOM      2  N   UNL     1       3.478   2.917  19.292  0.00  0.00    +0.000 NA
ATOM      3  C   UNL     1       3.190   2.303  20.460  0.00  0.00    +0.000 A 
ATOM      4  C   UNL     1       2.520   2.910  21.498  0.00  0.00    +0.000 A 
ATOM      5  C   UNL     1       2.150   4.236  21.334  0.00  0.00    +0.000 A 
ATOM      6  C   UNL     1       2.441   4.927  20.140  0.00  0.00    +0.000 A 
ENDROOT
BRANCH   6   7
ATOM      7  C   UNL     1       1.928   6.301  19.967  0.00  0.00    +0.000 A 
ATOM      8  C   UNL     1       1.321   7.037  20.993  0.00  0.00    +0.000 A 
ATOM      9  N   UNL     1       1.064   8.373  20.948  0.00  0.00    +0.000 NA
ATOM     10  C   UNL     1       1.453   8.893  19.766  0.00  0.00    +0.000 A 
ATOM     11  N   UNL     1       1.445  10.217  19.424  0.00  0.00    +0.000 N 
ATOM     12  C   UNL     1       1.941  10.367  18.150  0.00  0.00    +0.000 A 
ATOM     13  C   UNL     1       2.237   9.112  17.656  0.00  0.00    +0.000 A 
ATOM     14  C   UNL     1       1.980   8.186  18.692  0.00  0.00    +0.000 A 
ATOM     15  N   UNL     1       2.214   6.853  18.755  0.00  0.00    +0.000 NA
ATOM     16  H   UNL     1       1.158  10.957  20.047  0.00  0.00    +0.000 HD
ENDBRANCH   6   7
BRANCH   1  17
ATOM     17  N   UNL     1       3.366   4.814  17.863  0.00  0.00    +0.000 N 
ATOM     18  H   UNL     1       2.581   4.582  17.256  0.00  0.00    +0.000 HD
BRANCH  17  24
ATOM     19  C   UNL     1       7.668   7.302  18.026  0.00  0.00    +0.000 C 
ATOM     20  O   UNL     1       8.502   7.098  18.902  0.00  0.00    +0.000 OA
ATOM     21  N   UNL     1       6.623   6.440  17.744  0.00  0.00    +0.000 N 
ATOM     22  C   UNL     1       6.302   5.437  18.749  0.00  0.00    +0.000 C 
ATOM     23  C   UNL     1       5.794   4.153  18.124  0.00  0.00    +0.000 C 
ATOM     24  C   UNL     1       4.610   4.392  17.184  0.00  0.00    +0.000 C 
ATOM     25  C   UNL     1       4.998   5.467  16.148  0.00  0.00    +0.000 C 
ATOM     26  C   UNL     1       5.569   6.739  16.781  0.00  0.00    +0.000 C 
BRANCH  19  28
ATOM     27  C   UNL     1       8.251   9.559  17.890  0.00  0.00    +0.000 C 
ATOM     28  O   UNL     1       7.681   8.419  17.242  0.00  0.00    +0.000 OA
ENDBRANCH  19  28
ENDBRANCH  17  24
ENDBRANCH   1  17
TORSDOF 4
ENDMDL
MODEL 7
REMARK VINA RESULT:      -7.9      3.295      6.947
REMARK  Name = 
REMARK  5 active torsions:
REMARK  status: ('A' for Active; 'I' for Inactive)
REMARK    1  A    between atoms: C_1  and  O_2
REMARK    2  A    between atoms: O_2  and  C_3
REMARK    3  A    between atoms: C_8  and  N_9
REMARK    4  A    between atoms: N_9  and  C_10
REMARK    5  A    between atoms: C_15  and  C_16
REMARK                            x       y       z     vdW  Elec       q    Type
REMARK                         _______ _______ _______ _____ _____    ______ ____
ROOT
ATOM      1  C   UNL     1       2.354   4.281  18.254  0.00  0.00    +0.000 A 
ATOM      2  N   UNL     1       1.421   3.633  18.987  0.00  0.00    +0.000 NA
ATOM      3  C   UNL     1       1.625   2.338  19.310  0.00  0.00    +0.000 A 
ATOM      4  C   UNL     1       2.738   1.621  18.932  0.00  0.00    +0.000 A 
ATOM      5  C   UNL     1       3.683   2.270  18.151  0.00  0.00    +0.000 A 
ATOM      6  C   UNL     1       3.509   3.618  17.773  0.00  0.00    +0.000 A 
ENDROOT
BRANCH   6   7
ATOM      7  C   UNL     1       4.594   4.298  17.038  0.00  0.00    +0.000 A 
ATOM      8  C   UNL     1       5.670   4.942  17.665  0.00  0.00    +0.000 A 
ATOM      9  N   UNL     1       6.803   5.359  17.037  0.00  0.00    +0.000 NA
ATOM     10  C   UNL     1       6.742   5.088  15.717  0.00  0.00    +0.000 A 
ATOM     11  N   UNL     1       7.748   5.270  14.808  0.00  0.00    +0.000 N 
ATOM     12  C   UNL     1       7.328   4.853  13.566  0.00  0.00    +0.000 A 
ATOM     13  C   UNL     1       6.017   4.432  13.678  0.00  0.00    +0.000 A 
ATOM     14  C   UNL     1       5.663   4.529  15.042  0.00  0.00    +0.000 A 
ATOM     15  N   UNL     1       4.539   4.136  15.688  0.00  0.00    +0.000 NA
ATOM     16  H   UNL     1       8.666   5.615  15.046  0.00  0.00    +0.000 HD
ENDBRANCH   6   7
BRANCH   1  17
ATOM     17  N   UNL     1       2.142   5.654  17.960  0.00  0.00    +0.000 N 
ATOM     18  H   UNL     1       2.290   5.754  16.957  0.00  0.00    +0.000 HD
BRANCH  17  24
ATOM     19  C   UNL     1       0.707  10.095  19.673  0.00  0.00    +0.000 C 
ATOM     20  O   UNL     1       0.262  10.240  20.807  0.00  0.00    +0.000 OA
ATOM     21  N   UNL     1       1.407   8.976  19.259  0.00  0.00    +0.000 N 
ATOM     22  C   UNL     1       1.307   7.787  20.092  0.00  0.00    +0.000 C 
ATOM     23  C   UNL     1       2.586   6.974  20.072  0.00  0.00    +0.000 C 
ATOM     24  C   UNL     1       3.027   6.617  18.652  0.00  0.00    +0.000 C 
ATOM     25  C   UNL     1       3.106   7.907  17.809  0.00  0.00    +0.000 C 
ATOM     26  C   UNL     1       1.836   8.757  17.883  0.00  0.00    +0.000 C 
BRANCH  19  28
ATOM     27  C   UNL     1       1.080  12.310  19.034  0.00  0.00    +0.000 C 
ATOM     28  O   UNL     1       0.542  11.030  18.693  0.00  0.00    +0.000 OA
ENDBRANCH  19  28
ENDBRANCH  17  24
ENDBRANCH   1  17
TORSDOF 4
ENDMDL
MODEL 8
REMARK VINA RESULT:      -7.9      3.323      6.646
REMARK  Name = 
REMARK  5 active torsions:
REMARK  status: ('A' for Active; 'I' for Inactive)
REMARK    1  A    between atoms: C_1  and  O_2
REMARK    2  A    between atoms: O_2  and  C_3
REMARK    3  A    between atoms: C_8  and  N_9
REMARK    4  A    between atoms: N_9  and  C_10
REMARK    5  A    between atoms: C_15  and  C_16
REMARK                            x       y       z     vdW  Elec       q    Type
REMARK                         _______ _______ _______ _____ _____    ______ ____
ROOT
ATOM      1  C   UNL     1       2.062   4.703  19.528  0.00  0.00    +0.000 A 
ATOM      2  N   UNL     1       1.081   4.384  20.402  0.00  0.00    +0.000 NA
ATOM      3  C   UNL     1       1.209   3.268  21.152  0.00  0.00    +0.000 A 
ATOM      4  C   UNL     1       2.289   2.418  21.080  0.00  0.00    +0.000 A 
ATOM      5  C   UNL     1       3.283   2.721  20.162  0.00  0.00    +0.000 A 
ATOM      6  C   UNL     1       3.190   3.865  19.343  0.00  0.00    +0.000 A 
ENDROOT
BRANCH   6   7
ATOM      7  C   UNL     1       4.324   4.208  18.463  0.00  0.00    +0.000 A 
ATOM      8  C   UNL     1       4.395   3.843  17.112  0.00  0.00    +0.000 A 
ATOM      9  N   UNL     1       5.288   4.342  16.213  0.00  0.00    +0.000 NA
ATOM     10  C   UNL     1       6.116   5.225  16.808  0.00  0.00    +0.000 A 
ATOM     11  N   UNL     1       7.058   5.996  16.183  0.00  0.00    +0.000 N 
ATOM     12  C   UNL     1       7.686   6.796  17.108  0.00  0.00    +0.000 A 
ATOM     13  C   UNL     1       7.162   6.504  18.352  0.00  0.00    +0.000 A 
ATOM     14  C   UNL     1       6.135   5.553  18.158  0.00  0.00    +0.000 A 
ATOM     15  N   UNL     1       5.245   5.031  19.036  0.00  0.00    +0.000 NA
ATOM     16  H   UNL     1       7.215   5.994  15.186  0.00  0.00    +0.000 HD
ENDBRANCH   6   7
BRANCH   1  17
ATOM     17  N   UNL     1       1.930   5.901  18.779  0.00  0.00    +0.000 N 
ATOM     18  H   UNL     1       2.270   5.688  17.843  0.00  0.00    +0.000 HD
BRANCH  17  24
ATOM     19  C   UNL     1      -0.015  10.427  19.460  0.00  0.00    +0.000 C 
ATOM     20  O   UNL     1      -0.535  10.756  20.521  0.00  0.00    +0.000 OA
ATOM     21  N   UNL     1       0.810   9.325  19.317  0.00  0.00    +0.000 N 
ATOM     22  C   UNL     1       0.777   8.331  20.380  0.00  0.00    +0.000 C 
ATOM     23  C   UNL     1       2.127   7.670  20.578  0.00  0.00    +0.000 C 
ATOM     24  C   UNL     1       2.680   7.075  19.281  0.00  0.00    +0.000 C 
ATOM     25  C   UNL     1       2.683   8.163  18.188  0.00  0.00    +0.000 C 
ATOM     26  C   UNL     1       1.335   8.871  18.035  0.00  0.00    +0.000 C 
BRANCH  19  28
ATOM     27  C   UNL     1      -1.449  11.831  18.267  0.00  0.00    +0.000 C 
ATOM     28  O   UNL     1      -0.212  11.115  18.298  0.00  0.00    +0.000 OA
ENDBRANCH  19  28
ENDBRANCH  17  24
ENDBRANCH   1  17
TORSDOF 4
ENDMDL
MODEL 9
REMARK VINA RESULT:      -7.9      3.423      7.262
REMARK  Name = 
REMARK  5 active torsions:
REMARK  status: ('A' for Active; 'I' for Inactive)
REMARK    1  A    between atoms: C_1  and  O_2
REMARK    2  A    between atoms: O_2  and  C_3
REMARK    3  A    between atoms: C_8  and  N_9
REMARK    4  A    between atoms: N_9  and  C_10
REMARK    5  A    between atoms: C_15  and  C_16
REMARK                            x       y       z     vdW  Elec       q    Type
REMARK                         _______ _______ _______ _____ _____    ______ ____
ROOT
ATOM      1  C   UNL     1       4.350   6.118  17.364  0.00  0.00    +0.000 A 
ATOM      2  N   UNL     1       4.739   6.862  16.305  0.00  0.00    +0.000 NA
ATOM      3  C   UNL     1       5.325   6.250  15.254  0.00  0.00    +0.000 A 
ATOM      4  C   UNL     1       5.560   4.895  15.192  0.00  0.00    +0.000 A 
ATOM      5  C   UNL     1       5.194   4.130  16.289  0.00  0.00    +0.000 A 
ATOM      6  C   UNL     1       4.593   4.723  17.418  0.00  0.00    +0.000 A 
ENDROOT
BRANCH   6   7
ATOM      7  C   UNL     1       4.118   3.855  18.513  0.00  0.00    +0.000 A 
ATOM      8  C   UNL     1       4.973   3.200  19.410  0.00  0.00    +0.000 A 
ATOM      9  N   UNL     1       4.580   2.600  20.568  0.00  0.00    +0.000 NA
ATOM     10  C   UNL     1       3.244   2.703  20.726  0.00  0.00    +0.000 A 
ATOM     11  N   UNL     1       2.528   2.311  21.823  0.00  0.00    +0.000 N 
ATOM     12  C   UNL     1       1.198   2.602  21.634  0.00  0.00    +0.000 A 
ATOM     13  C   UNL     1       1.056   3.154  20.376  0.00  0.00    +0.000 A 
ATOM     14  C   UNL     1       2.351   3.268  19.823  0.00  0.00    +0.000 A 
ATOM     15  N   UNL     1       2.766   3.846  18.670  0.00  0.00    +0.000 NA
ATOM     16  H   UNL     1       2.944   1.916  22.654  0.00  0.00    +0.000 HD
ENDBRANCH   6   7
BRANCH   1  17
ATOM     17  N   UNL     1       3.697   6.773  18.441  0.00  0.00    +0.000 N 
ATOM     18  H   UNL     1       3.915   6.230  19.275  0.00  0.00    +0.000 HD
BRANCH  17  24
ATOM     19  C   UNL     1       1.013  10.484  20.377  0.00  0.00    +0.000 C 
ATOM     20  O   UNL     1       0.776  11.509  19.748  0.00  0.00    +0.000 OA
ATOM     21  N   UNL     1       1.465   9.312  19.796  0.00  0.00    +0.000 N 
ATOM     22  C   UNL     1       2.009   9.408  18.450  0.00  0.00    +0.000 C 
ATOM     23  C   UNL     1       1.737   8.157  17.640  0.00  0.00    +0.000 C 
ATOM     24  C   UNL     1       2.225   6.889  18.344  0.00  0.00    +0.000 C 
ATOM     25  C   UNL     1       1.630   6.841  19.766  0.00  0.00    +0.000 C 
ATOM     26  C   UNL     1       1.854   8.131  20.559  0.00  0.00    +0.000 C 
BRANCH  19  28
ATOM     27  C   UNL     1      -0.480  10.617  22.168  0.00  0.00    +0.000 C 
ATOM     28  O   UNL     1       0.864  10.400  21.732  0.00  0.00    +0.000 OA
ENDBRANCH  19  28
ENDBRANCH  17  24
ENDBRANCH   1  17
TORSDOF 4
ENDMDL
