MODEL 1
REMARK VINA RESULT:      -8.3      0.000      0.000
REMARK  Name = 
REMARK  9 active torsions:
REMARK  status: ('A' for Active; 'I' for Inactive)
REMARK    1  A    between atoms: C_2  and  C_3
REMARK    2  A    between atoms: C_3  and  N_4
REMARK    3  A    between atoms: C_5  and  C_7
REMARK    4  A    between atoms: C_11  and  C_12
REMARK    5  A    between atoms: N_17  and  C_18
REMARK    6  A    between atoms: N_21  and  C_22
REMARK    7  A    between atoms: C_22  and  C_23
REMARK    8  A    between atoms: C_26  and  O_27
REMARK    9  A    between atoms: O_27  and  C_28
REMARK                            x       y       z     vdW  Elec       q    Type
REMARK                         _______ _______ _______ _____ _____    ______ ____
ROOT
ATOM      1  O   UNL     1       1.806   8.533  19.897  0.00  0.00    +0.000 OA
ATOM      2  C   UNL     1       1.454   7.588  20.599  0.00  0.00    +0.000 C 
ATOM      3  N   UNL     1       1.801   6.278  20.348  0.00  0.00    +0.000 N 
ATOM      4  H   UNL     1       1.185   5.565  20.738  0.00  0.00    +0.000 HD
ENDROOT
BRANCH   3   5
ATOM      5  C   UNL     1       2.640   5.912  19.210  0.00  0.00    +0.000 C 
ATOM      6  C   UNL     1       1.819   5.296  18.085  0.00  0.00    +0.000 C 
ATOM      7  C   UNL     1       1.923   3.809  18.371  0.00  0.00    +0.000 C 
ATOM      8  N   UNL     1       3.319   3.599  18.797  0.00  0.00    +0.000 NA
ATOM      9  C   UNL     1       3.657   4.812  19.576  0.00  0.00    +0.000 C 
BRANCH   8  10
ATOM     10  C   UNL     1       4.191   3.418  17.622  0.00  0.00    +0.000 C 
BRANCH  10  11
ATOM     11  C   UNL     1       5.200   4.531  17.419  0.00  0.00    +0.000 A 
ATOM     12  C   UNL     1       6.325   4.644  18.242  0.00  0.00    +0.000 A 
ATOM     13  C   UNL     1       7.273   5.645  18.002  0.00  0.00    +0.000 A 
ATOM     14  C   UNL     1       7.116   6.540  16.941  0.00  0.00    +0.000 A 
ATOM     15  C   UNL     1       5.964   6.474  16.162  0.00  0.00    +0.000 A 
ATOM     16  C   UNL     1       5.024   5.462  16.386  0.00  0.00    +0.000 A 
BRANCH  14  17
ATOM     17  O   UNL     1       8.117   7.453  16.805  0.00  0.00    +0.000 OA
BRANCH  17  18
ATOM     18  C   UNL     1       8.193   8.541  17.716  0.00  0.00    +0.000 C 
ATOM     19  F   UNL     1       9.001   9.548  17.320  0.00  0.00    +0.000 F 
ATOM     20  F   UNL     1       6.954   9.037  17.927  0.00  0.00    +0.000 F 
ATOM     21  F   UNL     1       8.664   8.079  18.897  0.00  0.00    +0.000 F 
ENDBRANCH  17  18
ENDBRANCH  14  17
ENDBRANCH  10  11
ENDBRANCH   8  10
ENDBRANCH   3   5
BRANCH   2  22
ATOM     22  C   UNL     1       0.517   7.765  21.794  0.00  0.00    +0.000 C 
BRANCH  22  23
ATOM     23  N   UNL     1      -0.223   9.008  21.685  0.00  0.00    +0.000 N 
ATOM     24  C   UNL     1      -0.245   9.912  22.721  0.00  0.00    +0.000 C 
ATOM     25  O   UNL     1       0.348   9.727  23.779  0.00  0.00    +0.000 OA
ATOM     26  H   UNL     1      -0.714   9.186  20.820  0.00  0.00    +0.000 HD
BRANCH  24  27
ATOM     27  C   UNL     1      -1.027  11.159  22.501  0.00  0.00    +0.000 A 
ATOM     28  C   UNL     1      -0.665  11.999  21.441  0.00  0.00    +0.000 A 
ATOM     29  C   UNL     1      -1.355  13.192  21.224  0.00  0.00    +0.000 A 
ATOM     30  C   UNL     1      -2.401  13.562  22.073  0.00  0.00    +0.000 A 
ATOM     31  C   UNL     1      -2.768  12.739  23.148  0.00  0.00    +0.000 A 
ATOM     32  C   UNL     1      -2.077  11.529  23.352  0.00  0.00    +0.000 A 
BRANCH  31  33
ATOM     33  C   UNL     1      -3.874  13.137  24.096  0.00  0.00    +0.000 C 
ATOM     34  F   UNL     1      -4.910  13.779  23.491  0.00  0.00    +0.000 F 
ATOM     35  F   UNL     1      -4.416  12.064  24.734  0.00  0.00    +0.000 F 
ATOM     36  F   UNL     1      -3.435  13.974  25.077  0.00  0.00    +0.000 F 
ENDBRANCH  31  33
ENDBRANCH  24  27
ENDBRANCH  22  23
ENDBRANCH   2  22
TORSDOF 9
ENDMDL
MODEL 2
REMARK VINA RESULT:      -8.2      3.697     11.594
REMARK  Name = 
REMARK  9 active torsions:
REMARK  status: ('A' for Active; 'I' for Inactive)
REMARK    1  A    between atoms: C_2  and  C_3
REMARK    2  A    between atoms: C_3  and  N_4
REMARK    3  A    between atoms: C_5  and  C_7
REMARK    4  A    between atoms: C_11  and  C_12
REMARK    5  A    between atoms: N_17  and  C_18
REMARK    6  A    between atoms: N_21  and  C_22
REMARK    7  A    between atoms: C_22  and  C_23
REMARK    8  A    between atoms: C_26  and  O_27
REMARK    9  A    between atoms: O_27  and  C_28
REMARK                            x       y       z     vdW  Elec       q    Type
REMARK                         _______ _______ _______ _____ _____    ______ ____
ROOT
ATOM      1  O   UNL     1       4.026   3.493  19.266  0.00  0.00    +0.000 OA
ATOM      2  C   UNL     1       4.606   4.421  18.705  0.00  0.00    +0.000 C 
ATOM      3  N   UNL     1       3.994   5.606  18.360  0.00  0.00    +0.000 N 
ATOM      4  H   UNL     1       4.427   6.133  17.602  0.00  0.00    +0.000 HD
ENDROOT
BRANCH   3   5
ATOM      5  C   UNL     1       2.585   5.855  18.651  0.00  0.00    +0.000 C 
ATOM      6  C   UNL     1       2.089   7.123  17.967  0.00  0.00    +0.000 C 
ATOM      7  C   UNL     1       2.280   8.178  19.040  0.00  0.00    +0.000 C 
ATOM      8  N   UNL     1       1.882   7.521  20.299  0.00  0.00    +0.000 NA
ATOM      9  C   UNL     1       2.347   6.123  20.151  0.00  0.00    +0.000 C 
BRANCH   8  10
ATOM     10  C   UNL     1       0.423   7.617  20.487  0.00  0.00    +0.000 C 
BRANCH  10  11
ATOM     11  C   UNL     1      -0.031   8.880  21.191  0.00  0.00    +0.000 A 
ATOM     12  C   UNL     1      -0.237   8.901  22.574  0.00  0.00    +0.000 A 
ATOM     13  C   UNL     1      -0.601  10.093  23.212  0.00  0.00    +0.000 A 
ATOM     14  C   UNL     1      -0.760  11.274  22.484  0.00  0.00    +0.000 A 
ATOM     15  C   UNL     1      -0.622  11.243  21.099  0.00  0.00    +0.000 A 
ATOM     16  C   UNL     1      -0.238  10.059  20.460  0.00  0.00    +0.000 A 
BRANCH  14  17
ATOM     17  O   UNL     1      -1.097  12.366  23.225  0.00  0.00    +0.000 OA
BRANCH  17  18
ATOM     18  C   UNL     1      -2.460  12.763  23.297  0.00  0.00    +0.000 C 
ATOM     19  F   UNL     1      -3.003  13.118  22.113  0.00  0.00    +0.000 F 
ATOM     20  F   UNL     1      -3.193  11.757  23.824  0.00  0.00    +0.000 F 
ATOM     21  F   UNL     1      -2.553  13.827  24.125  0.00  0.00    +0.000 F 
ENDBRANCH  17  18
ENDBRANCH  14  17
ENDBRANCH  10  11
ENDBRANCH   8  10
ENDBRANCH   3   5
BRANCH   2  22
ATOM     22  C   UNL     1       6.064   4.319  18.259  0.00  0.00    +0.000 C 
BRANCH  22  23
ATOM     23  N   UNL     1       6.150   4.164  16.819  0.00  0.00    +0.000 N 
ATOM     24  C   UNL     1       6.852   5.062  16.051  0.00  0.00    +0.000 C 
ATOM     25  O   UNL     1       7.438   6.030  16.526  0.00  0.00    +0.000 OA
ATOM     26  H   UNL     1       5.682   3.371  16.405  0.00  0.00    +0.000 HD
BRANCH  24  27
ATOM     27  C   UNL     1       6.885   4.804  14.586  0.00  0.00    +0.000 A 
ATOM     28  C   UNL     1       7.926   5.357  13.831  0.00  0.00    +0.000 A 
ATOM     29  C   UNL     1       7.972   5.161  12.450  0.00  0.00    +0.000 A 
ATOM     30  C   UNL     1       6.969   4.427  11.812  0.00  0.00    +0.000 A 
ATOM     31  C   UNL     1       5.911   3.878  12.551  0.00  0.00    +0.000 A 
ATOM     32  C   UNL     1       5.880   4.066  13.946  0.00  0.00    +0.000 A 
BRANCH  31  33
ATOM     33  C   UNL     1       4.801   3.109  11.876  0.00  0.00    +0.000 C 
ATOM     34  F   UNL     1       5.147   1.840  11.528  0.00  0.00    +0.000 F 
ATOM     35  F   UNL     1       3.699   2.996  12.665  0.00  0.00    +0.000 F 
ATOM     36  F   UNL     1       4.381   3.712  10.729  0.00  0.00    +0.000 F 
ENDBRANCH  31  33
ENDBRANCH  24  27
ENDBRANCH  22  23
ENDBRANCH   2  22
TORSDOF 9
ENDMDL
MODEL 3
REMARK VINA RESULT:      -8.1      6.617      8.843
REMARK  Name = 
REMARK  9 active torsions:
REMARK  status: ('A' for Active; 'I' for Inactive)
REMARK    1  A    between atoms: C_2  and  C_3
REMARK    2  A    between atoms: C_3  and  N_4
REMARK    3  A    between atoms: C_5  and  C_7
REMARK    4  A    between atoms: C_11  and  C_12
REMARK    5  A    between atoms: N_17  and  C_18
REMARK    6  A    between atoms: N_21  and  C_22
REMARK    7  A    between atoms: C_22  and  C_23
REMARK    8  A    between atoms: C_26  and  O_27
REMARK    9  A    between atoms: O_27  and  C_28
REMARK                            x       y       z     vdW  Elec       q    Type
REMARK                         _______ _______ _______ _____ _____    ______ ____
ROOT
ATOM      1  O   UNL     1       8.559   7.617  18.835  0.00  0.00    +0.000 OA
ATOM      2  C   UNL     1       8.057   8.304  17.948  0.00  0.00    +0.000 C 
ATOM      3  N   UNL     1       7.000   7.890  17.167  0.00  0.00    +0.000 N 
ATOM      4  H   UNL     1       6.905   8.343  16.258  0.00  0.00    +0.000 HD
ENDROOT
BRANCH   3   5
ATOM      5  C   UNL     1       6.380   6.580  17.349  0.00  0.00    +0.000 C 
ATOM      6  C   UNL     1       7.289   5.459  16.862  0.00  0.00    +0.000 C 
ATOM      7  C   UNL     1       6.824   5.247  15.434  0.00  0.00    +0.000 C 
ATOM      8  N   UNL     1       5.355   5.367  15.488  0.00  0.00    +0.000 NA
ATOM      9  C   UNL     1       5.106   6.424  16.494  0.00  0.00    +0.000 C 
BRANCH   8  10
ATOM     10  C   UNL     1       4.749   4.076  15.859  0.00  0.00    +0.000 C 
BRANCH  10  11
ATOM     11  C   UNL     1       4.083   4.070  17.220  0.00  0.00    +0.000 A 
ATOM     12  C   UNL     1       2.777   4.542  17.386  0.00  0.00    +0.000 A 
ATOM     13  C   UNL     1       2.160   4.476  18.641  0.00  0.00    +0.000 A 
ATOM     14  C   UNL     1       2.831   3.937  19.741  0.00  0.00    +0.000 A 
ATOM     15  C   UNL     1       4.154   3.529  19.596  0.00  0.00    +0.000 A 
ATOM     16  C   UNL     1       4.767   3.574  18.339  0.00  0.00    +0.000 A 
BRANCH  14  17
ATOM     17  O   UNL     1       2.113   3.914  20.898  0.00  0.00    +0.000 OA
BRANCH  17  18
ATOM     18  C   UNL     1       1.759   2.661  21.469  0.00  0.00    +0.000 C 
ATOM     19  F   UNL     1       0.775   2.726  22.392  0.00  0.00    +0.000 F 
ATOM     20  F   UNL     1       1.378   1.813  20.489  0.00  0.00    +0.000 F 
ATOM     21  F   UNL     1       2.852   2.140  22.072  0.00  0.00    +0.000 F 
ENDBRANCH  17  18
ENDBRANCH  14  17
ENDBRANCH  10  11
ENDBRANCH   8  10
ENDBRANCH   3   5
BRANCH   2  22
ATOM     22  C   UNL     1       8.614   9.675  17.566  0.00  0.00    +0.000 C 
BRANCH  22  23
ATOM     23  N   UNL     1       8.662  10.550  18.722  0.00  0.00    +0.000 N 
ATOM     24  C   UNL     1       9.641  11.508  18.844  0.00  0.00    +0.000 C 
ATOM     25  O   UNL     1      10.514  11.679  17.999  0.00  0.00    +0.000 OA
ATOM     26  H   UNL     1       7.950  10.433  19.428  0.00  0.00    +0.000 HD
BRANCH  24  27
ATOM     27  C   UNL     1       9.593  12.358  20.064  0.00  0.00    +0.000 A 
ATOM     28  C   UNL     1      10.315  13.558  20.074  0.00  0.00    +0.000 A 
ATOM     29  C   UNL     1      10.318  14.365  21.212  0.00  0.00    +0.000 A 
ATOM     30  C   UNL     1       9.614  13.972  22.353  0.00  0.00    +0.000 A 
ATOM     31  C   UNL     1       8.897  12.766  22.365  0.00  0.00    +0.000 A 
ATOM     32  C   UNL     1       8.885  11.964  21.208  0.00  0.00    +0.000 A 
BRANCH  31  33
ATOM     33  C   UNL     1       8.157  12.308  23.599  0.00  0.00    +0.000 C 
ATOM     34  F   UNL     1       8.257  10.971  23.834  0.00  0.00    +0.000 F 
ATOM     35  F   UNL     1       8.607  12.923  24.726  0.00  0.00    +0.000 F 
ATOM     36  F   UNL     1       6.824  12.579  23.531  0.00  0.00    +0.000 F 
ENDBRANCH  31  33
ENDBRANCH  24  27
ENDBRANCH  22  23
ENDBRANCH   2  22
TORSDOF 9
ENDMDL
MODEL 4
REMARK VINA RESULT:      -8.1      4.140     12.111
REMARK  Name = 
REMARK  9 active torsions:
REMARK  status: ('A' for Active; 'I' for Inactive)
REMARK    1  A    between atoms: C_2  and  C_3
REMARK    2  A    between atoms: C_3  and  N_4
REMARK    3  A    between atoms: C_5  and  C_7
REMARK    4  A    between atoms: C_11  and  C_12
REMARK    5  A    between atoms: N_17  and  C_18
REMARK    6  A    between atoms: N_21  and  C_22
REMARK    7  A    between atoms: C_22  and  C_23
REMARK    8  A    between atoms: C_26  and  O_27
REMARK    9  A    between atoms: O_27  and  C_28
REMARK                            x       y       z     vdW  Elec       q    Type
REMARK                         _______ _______ _______ _____ _____    ______ ____
ROOT
ATOM      1  O   UNL     1      -1.083  10.317  20.495  0.00  0.00    +0.000 OA
ATOM      2  C   UNL     1      -0.562  10.322  19.382  0.00  0.00    +0.000 C 
ATOM      3  N   UNL     1      -1.269  10.191  18.207  0.00  0.00    +0.000 N 
ATOM      4  H   UNL     1      -0.749   9.842  17.403  0.00  0.00    +0.000 HD
ENDROOT
BRANCH   3   5
ATOM      5  C   UNL     1      -2.723  10.045  18.199  0.00  0.00    +0.000 C 
ATOM      6  C   UNL     1      -3.254   9.816  16.790  0.00  0.00    +0.000 C 
ATOM      7  C   UNL     1      -3.603  11.220  16.333  0.00  0.00    +0.000 C 
ATOM      8  N   UNL     1      -4.201  11.869  17.515  0.00  0.00    +0.000 NA
ATOM      9  C   UNL     1      -3.432  11.333  18.661  0.00  0.00    +0.000 C 
BRANCH   8  10
ATOM     10  C   UNL     1      -5.639  11.556  17.600  0.00  0.00    +0.000 C 
BRANCH  10  11
ATOM     11  C   UNL     1      -6.286  11.954  18.911  0.00  0.00    +0.000 A 
ATOM     12  C   UNL     1      -6.832  10.992  19.767  0.00  0.00    +0.000 A 
ATOM     13  C   UNL     1      -7.374  11.375  20.999  0.00  0.00    +0.000 A 
ATOM     14  C   UNL     1      -7.375  12.714  21.395  0.00  0.00    +0.000 A 
ATOM     15  C   UNL     1      -6.894  13.683  20.518  0.00  0.00    +0.000 A 
ATOM     16  C   UNL     1      -6.333  13.302  19.294  0.00  0.00    +0.000 A 
BRANCH  14  17
ATOM     17  O   UNL     1      -7.914  12.951  22.623  0.00  0.00    +0.000 OA
BRANCH  17  18
ATOM     18  C   UNL     1      -7.050  13.178  23.729  0.00  0.00    +0.000 C 
ATOM     19  F   UNL     1      -6.076  14.085  23.501  0.00  0.00    +0.000 F 
ATOM     20  F   UNL     1      -7.779  13.583  24.792  0.00  0.00    +0.000 F 
ATOM     21  F   UNL     1      -6.452  12.009  24.053  0.00  0.00    +0.000 F 
ENDBRANCH  17  18
ENDBRANCH  14  17
ENDBRANCH  10  11
ENDBRANCH   8  10
ENDBRANCH   3   5
BRANCH   2  22
ATOM     22  C   UNL     1       0.953  10.397  19.191  0.00  0.00    +0.000 C 
BRANCH  22  23
ATOM     23  N   UNL     1       1.550   9.080  19.312  0.00  0.00    +0.000 N 
ATOM     24  C   UNL     1       2.171   8.483  18.240  0.00  0.00    +0.000 C 
ATOM     25  O   UNL     1       2.257   9.017  17.138  0.00  0.00    +0.000 OA
ATOM     26  H   UNL     1       1.499   8.623  20.211  0.00  0.00    +0.000 HD
BRANCH  24  27
ATOM     27  C   UNL     1       2.759   7.137  18.475  0.00  0.00    +0.000 A 
ATOM     28  C   UNL     1       2.430   6.458  19.654  0.00  0.00    +0.000 A 
ATOM     29  C   UNL     1       2.987   5.207  19.923  0.00  0.00    +0.000 A 
ATOM     30  C   UNL     1       3.890   4.633  19.023  0.00  0.00    +0.000 A 
ATOM     31  C   UNL     1       4.241   5.306  17.843  0.00  0.00    +0.000 A 
ATOM     32  C   UNL     1       3.662   6.561  17.571  0.00  0.00    +0.000 A 
BRANCH  31  33
ATOM     33  C   UNL     1       5.239   4.717  16.875  0.00  0.00    +0.000 C 
ATOM     34  F   UNL     1       4.840   3.537  16.327  0.00  0.00    +0.000 F 
ATOM     35  F   UNL     1       5.493   5.550  15.829  0.00  0.00    +0.000 F 
ATOM     36  F   UNL     1       6.443   4.472  17.461  0.00  0.00    +0.000 F 
ENDBRANCH  31  33
ENDBRANCH  24  27
ENDBRANCH  22  23
ENDBRANCH   2  22
TORSDOF 9
ENDMDL
MODEL 5
REMARK VINA RESULT:      -8.0      2.295      2.649
REMARK  Name = 
REMARK  9 active torsions:
REMARK  status: ('A' for Active; 'I' for Inactive)
REMARK    1  A    between atoms: C_2  and  C_3
REMARK    2  A    between atoms: C_3  and  N_4
REMARK    3  A    between atoms: C_5  and  C_7
REMARK    4  A    between atoms: C_11  and  C_12
REMARK    5  A    between atoms: N_17  and  C_18
REMARK    6  A    between atoms: N_21  and  C_22
REMARK    7  A    between atoms: C_22  and  C_23
REMARK    8  A    between atoms: C_26  and  O_27
REMARK    9  A    between atoms: O_27  and  C_28
REMARK                            x       y       z     vdW  Elec       q    Type
REMARK                         _______ _______ _______ _____ _____    ______ ____
ROOT
ATOM      1  O   UNL     1       1.418   8.782  19.476  0.00  0.00    +0.000 OA
ATOM      2  C   UNL     1       1.557   8.390  20.633  0.00  0.00    +0.000 C 
ATOM      3  N   UNL     1       1.841   7.084  20.967  0.00  0.00    +0.000 N 
ATOM      4  H   UNL     1       1.575   6.791  21.907  0.00  0.00    +0.000 HD
ENDROOT
BRANCH   3   5
ATOM      5  C   UNL     1       2.011   6.051  19.949  0.00  0.00    +0.000 C 
ATOM      6  C   UNL     1       1.392   4.730  20.385  0.00  0.00    +0.000 C 
ATOM      7  C   UNL     1       2.564   4.003  21.017  0.00  0.00    +0.000 C 
ATOM      8  N   UNL     1       3.717   4.309  20.149  0.00  0.00    +0.000 NA
ATOM      9  C   UNL     1       3.497   5.709  19.720  0.00  0.00    +0.000 C 
BRANCH   8  10
ATOM     10  C   UNL     1       3.767   3.369  19.015  0.00  0.00    +0.000 C 
BRANCH  10  11
ATOM     11  C   UNL     1       4.768   3.745  17.941  0.00  0.00    +0.000 A 
ATOM     12  C   UNL     1       6.013   4.288  18.273  0.00  0.00    +0.000 A 
ATOM     13  C   UNL     1       6.945   4.575  17.269  0.00  0.00    +0.000 A 
ATOM     14  C   UNL     1       6.651   4.323  15.927  0.00  0.00    +0.000 A 
ATOM     15  C   UNL     1       5.389   3.846  15.585  0.00  0.00    +0.000 A 
ATOM     16  C   UNL     1       4.462   3.538  16.587  0.00  0.00    +0.000 A 
BRANCH  14  17
ATOM     17  O   UNL     1       7.649   4.629  15.052  0.00  0.00    +0.000 OA
BRANCH  17  18
ATOM     18  C   UNL     1       7.317   4.971  13.713  0.00  0.00    +0.000 C 
ATOM     19  F   UNL     1       8.308   5.581  13.029  0.00  0.00    +0.000 F 
ATOM     20  F   UNL     1       6.951   3.856  13.042  0.00  0.00    +0.000 F 
ATOM     21  F   UNL     1       6.258   5.812  13.735  0.00  0.00    +0.000 F 
ENDBRANCH  17  18
ENDBRANCH  14  17
ENDBRANCH  10  11
ENDBRANCH   8  10
ENDBRANCH   3   5
BRANCH   2  22
ATOM     22  C   UNL     1       1.349   9.310  21.835  0.00  0.00    +0.000 C 
BRANCH  22  23
ATOM     23  N   UNL     1       0.224  10.199  21.612  0.00  0.00    +0.000 N 
ATOM     24  C   UNL     1      -0.565  10.617  22.658  0.00  0.00    +0.000 C 
ATOM     25  O   UNL     1      -0.370  10.273  23.819  0.00  0.00    +0.000 OA
ATOM     26  H   UNL     1       0.047  10.502  20.665  0.00  0.00    +0.000 HD
BRANCH  24  27
ATOM     27  C   UNL     1      -1.686  11.535  22.320  0.00  0.00    +0.000 A 
ATOM     28  C   UNL     1      -1.785  12.021  21.011  0.00  0.00    +0.000 A 
ATOM     29  C   UNL     1      -2.806  12.908  20.667  0.00  0.00    +0.000 A 
ATOM     30  C   UNL     1      -3.724  13.329  21.632  0.00  0.00    +0.000 A 
ATOM     31  C   UNL     1      -3.632  12.863  22.952  0.00  0.00    +0.000 A 
ATOM     32  C   UNL     1      -2.609  11.956  23.288  0.00  0.00    +0.000 A 
BRANCH  31  33
ATOM     33  C   UNL     1      -4.595  13.332  24.016  0.00  0.00    +0.000 C 
ATOM     34  F   UNL     1      -4.899  12.378  24.938  0.00  0.00    +0.000 F 
ATOM     35  F   UNL     1      -4.112  14.393  24.716  0.00  0.00    +0.000 F 
ATOM     36  F   UNL     1      -5.784  13.739  23.491  0.00  0.00    +0.000 F 
ENDBRANCH  31  33
ENDBRANCH  24  27
ENDBRANCH  22  23
ENDBRANCH   2  22
TORSDOF 9
ENDMDL
MODEL 6
REMARK VINA RESULT:      -8.0      4.372      9.822
REMARK  Name = 
REMARK  9 active torsions:
REMARK  status: ('A' for Active; 'I' for Inactive)
REMARK    1  A    between atoms: C_2  and  C_3
REMARK    2  A    between atoms: C_3  and  N_4
REMARK    3  A    between atoms: C_5  and  C_7
REMARK    4  A    between atoms: C_11  and  C_12
REMARK    5  A    between atoms: N_17  and  C_18
REMARK    6  A    between atoms: N_21  and  C_22
REMARK    7  A    between atoms: C_22  and  C_23
REMARK    8  A    between atoms: C_26  and  O_27
REMARK    9  A    between atoms: O_27  and  C_28
REMARK                            x       y       z     vdW  Elec       q    Type
REMARK                         _______ _______ _______ _____ _____    ______ ____
ROOT
ATOM      1  O   UNL     1       1.719   9.356  22.353  0.00  0.00    +0.000 OA
ATOM      2  C   UNL     1       1.117   8.800  21.437  0.00  0.00    +0.000 C 
ATOM      3  N   UNL     1       0.282   9.460  20.561  0.00  0.00    +0.000 N 
ATOM      4  H   UNL     1      -0.429   8.893  20.101  0.00  0.00    +0.000 HD
ENDROOT
BRANCH   3   5
ATOM      5  C   UNL     1       0.058  10.900  20.653  0.00  0.00    +0.000 C 
ATOM      6  C   UNL     1      -1.198  11.319  19.900  0.00  0.00    +0.000 C 
ATOM      7  C   UNL     1      -0.658  11.703  18.536  0.00  0.00    +0.000 C 
ATOM      8  N   UNL     1       0.605  12.414  18.812  0.00  0.00    +0.000 NA
ATOM      9  C   UNL     1       1.185  11.703  19.973  0.00  0.00    +0.000 C 
BRANCH   8  10
ATOM     10  C   UNL     1       0.342  13.837  19.091  0.00  0.00    +0.000 C 
BRANCH  10  11
ATOM     11  C   UNL     1       1.529  14.747  18.850  0.00  0.00    +0.000 A 
ATOM     12  C   UNL     1       1.607  16.007  19.453  0.00  0.00    +0.000 A 
ATOM     13  C   UNL     1       2.738  16.808  19.262  0.00  0.00    +0.000 A 
ATOM     14  C   UNL     1       3.805  16.366  18.476  0.00  0.00    +0.000 A 
ATOM     15  C   UNL     1       3.703  15.142  17.819  0.00  0.00    +0.000 A 
ATOM     16  C   UNL     1       2.583  14.329  18.023  0.00  0.00    +0.000 A 
BRANCH  14  17
ATOM     17  O   UNL     1       4.852  17.232  18.386  0.00  0.00    +0.000 OA
BRANCH  17  18
ATOM     18  C   UNL     1       5.975  17.053  19.239  0.00  0.00    +0.000 C 
ATOM     19  F   UNL     1       5.900  15.973  20.046  0.00  0.00    +0.000 F 
ATOM     20  F   UNL     1       7.096  16.957  18.490  0.00  0.00    +0.000 F 
ATOM     21  F   UNL     1       6.092  18.146  20.027  0.00  0.00    +0.000 F 
ENDBRANCH  17  18
ENDBRANCH  14  17
ENDBRANCH  10  11
ENDBRANCH   8  10
ENDBRANCH   3   5
BRANCH   2  22
ATOM     22  C   UNL     1       1.173   7.288  21.223  0.00  0.00    +0.000 C 
BRANCH  22  23
ATOM     23  N   UNL     1       2.185   6.946  20.241  0.00  0.00    +0.000 N 
ATOM     24  C   UNL     1       2.631   5.652  20.106  0.00  0.00    +0.000 C 
ATOM     25  O   UNL     1       2.209   4.727  20.793  0.00  0.00    +0.000 OA
ATOM     26  H   UNL     1       2.543   7.689  19.659  0.00  0.00    +0.000 HD
BRANCH  24  27
ATOM     27  C   UNL     1       3.663   5.409  19.062  0.00  0.00    +0.000 A 
ATOM     28  C   UNL     1       3.252   4.931  17.812  0.00  0.00    +0.000 A 
ATOM     29  C   UNL     1       4.195   4.662  16.819  0.00  0.00    +0.000 A 
ATOM     30  C   UNL     1       5.556   4.852  17.074  0.00  0.00    +0.000 A 
ATOM     31  C   UNL     1       5.986   5.317  18.326  0.00  0.00    +0.000 A 
ATOM     32  C   UNL     1       5.027   5.602  19.317  0.00  0.00    +0.000 A 
BRANCH  31  33
ATOM     33  C   UNL     1       7.453   5.498  18.631  0.00  0.00    +0.000 C 
ATOM     34  F   UNL     1       8.241   4.500  18.145  0.00  0.00    +0.000 F 
ATOM     35  F   UNL     1       7.948   6.654  18.111  0.00  0.00    +0.000 F 
ATOM     36  F   UNL     1       7.699   5.553  19.969  0.00  0.00    +0.000 F 
ENDBRANCH  31  33
ENDBRANCH  24  27
ENDBRANCH  22  23
ENDBRANCH   2  22
TORSDOF 9
ENDMDL
MODEL 7
REMARK VINA RESULT:      -7.9      6.122      9.856
REMARK  Name = 
REMARK  9 active torsions:
REMARK  status: ('A' for Active; 'I' for Inactive)
REMARK    1  A    between atoms: C_2  and  C_3
REMARK    2  A    between atoms: C_3  and  N_4
REMARK    3  A    between atoms: C_5  and  C_7
REMARK    4  A    between atoms: C_11  and  C_12
REMARK    5  A    between atoms: N_17  and  C_18
REMARK    6  A    between atoms: N_21  and  C_22
REMARK    7  A    between atoms: C_22  and  C_23
REMARK    8  A    between atoms: C_26  and  O_27
REMARK    9  A    between atoms: O_27  and  C_28
REMARK                            x       y       z     vdW  Elec       q    Type
REMARK                         _______ _______ _______ _____ _____    ______ ____
ROOT
ATOM      1  O   UNL     1       7.444   8.769  17.302  0.00  0.00    +0.000 OA
ATOM      2  C   UNL     1       8.154   8.371  18.223  0.00  0.00    +0.000 C 
ATOM      3  N   UNL     1       8.988   9.189  18.953  0.00  0.00    +0.000 N 
ATOM      4  H   UNL     1       9.776   8.734  19.414  0.00  0.00    +0.000 HD
ENDROOT
BRANCH   3   5
ATOM      5  C   UNL     1       9.082  10.622  18.687  0.00  0.00    +0.000 C 
ATOM      6  C   UNL     1      10.381  10.974  17.973  0.00  0.00    +0.000 C 
ATOM      7  C   UNL     1      11.305  11.339  19.120  0.00  0.00    +0.000 C 
ATOM      8  N   UNL     1      10.463  12.102  20.060  0.00  0.00    +0.000 NA
ATOM      9  C   UNL     1       9.138  11.445  19.990  0.00  0.00    +0.000 C 
BRANCH   8  10
ATOM     10  C   UNL     1      10.414  13.522  19.668  0.00  0.00    +0.000 C 
BRANCH  10  11
ATOM     11  C   UNL     1       9.018  14.045  19.398  0.00  0.00    +0.000 A 
ATOM     12  C   UNL     1       8.521  14.135  18.093  0.00  0.00    +0.000 A 
ATOM     13  C   UNL     1       7.209  14.567  17.870  0.00  0.00    +0.000 A 
ATOM     14  C   UNL     1       6.376  14.910  18.937  0.00  0.00    +0.000 A 
ATOM     15  C   UNL     1       6.888  14.887  20.232  0.00  0.00    +0.000 A 
ATOM     16  C   UNL     1       8.192  14.436  20.462  0.00  0.00    +0.000 A 
BRANCH  14  17
ATOM     17  O   UNL     1       5.118  15.296  18.586  0.00  0.00    +0.000 OA
BRANCH  17  18
ATOM     18  C   UNL     1       4.747  16.660  18.725  0.00  0.00    +0.000 C 
ATOM     19  F   UNL     1       4.214  16.976  19.924  0.00  0.00    +0.000 F 
ATOM     20  F   UNL     1       5.827  17.443  18.512  0.00  0.00    +0.000 F 
ATOM     21  F   UNL     1       3.826  16.952  17.778  0.00  0.00    +0.000 F 
ENDBRANCH  17  18
ENDBRANCH  14  17
ENDBRANCH  10  11
ENDBRANCH   8  10
ENDBRANCH   3   5
BRANCH   2  22
ATOM     22  C   UNL     1       8.242   6.893  18.603  0.00  0.00    +0.000 C 
BRANCH  22  23
ATOM     23  N   UNL     1       6.919   6.300  18.667  0.00  0.00    +0.000 N 
ATOM     24  C   UNL     1       6.550   5.299  17.800  0.00  0.00    +0.000 C 
ATOM     25  O   UNL     1       7.300   4.854  16.937  0.00  0.00    +0.000 OA
ATOM     26  H   UNL     1       6.285   6.645  19.374  0.00  0.00    +0.000 HD
BRANCH  24  27
ATOM     27  C   UNL     1       5.174   4.754  17.959  0.00  0.00    +0.000 A 
ATOM     28  C   UNL     1       4.668   3.911  16.963  0.00  0.00    +0.000 A 
ATOM     29  C   UNL     1       3.370   3.406  17.063  0.00  0.00    +0.000 A 
ATOM     30  C   UNL     1       2.565   3.754  18.150  0.00  0.00    +0.000 A 
ATOM     31  C   UNL     1       3.051   4.610  19.151  0.00  0.00    +0.000 A 
ATOM     32  C   UNL     1       4.367   5.102  19.051  0.00  0.00    +0.000 A 
BRANCH  31  33
ATOM     33  C   UNL     1       2.185   5.023  20.316  0.00  0.00    +0.000 C 
ATOM     34  F   UNL     1       2.075   6.371  20.466  0.00  0.00    +0.000 F 
ATOM     35  F   UNL     1       0.913   4.552  20.204  0.00  0.00    +0.000 F 
ATOM     36  F   UNL     1       2.657   4.549  21.502  0.00  0.00    +0.000 F 
ENDBRANCH  31  33
ENDBRANCH  24  27
ENDBRANCH  22  23
ENDBRANCH   2  22
TORSDOF 9
ENDMDL
MODEL 8
REMARK VINA RESULT:      -7.9      4.539      9.458
REMARK  Name = 
REMARK  9 active torsions:
REMARK  status: ('A' for Active; 'I' for Inactive)
REMARK    1  A    between atoms: C_2  and  C_3
REMARK    2  A    between atoms: C_3  and  N_4
REMARK    3  A    between atoms: C_5  and  C_7
REMARK    4  A    between atoms: C_11  and  C_12
REMARK    5  A    between atoms: N_17  and  C_18
REMARK    6  A    between atoms: N_21  and  C_22
REMARK    7  A    between atoms: C_22  and  C_23
REMARK    8  A    between atoms: C_26  and  O_27
REMARK    9  A    between atoms: O_27  and  C_28
REMARK                            x       y       z     vdW  Elec       q    Type
REMARK                         _______ _______ _______ _____ _____    ______ ____
ROOT
ATOM      1  O   UNL     1       1.713   9.348  22.635  0.00  0.00    +0.000 OA
ATOM      2  C   UNL     1       1.292   9.009  21.530  0.00  0.00    +0.000 C 
ATOM      3  N   UNL     1       0.940   9.900  20.541  0.00  0.00    +0.000 N 
ATOM      4  H   UNL     1       0.280   9.560  19.841  0.00  0.00    +0.000 HD
ENDROOT
BRANCH   3   5
ATOM      5  C   UNL     1       1.053  11.343  20.732  0.00  0.00    +0.000 C 
ATOM      6  C   UNL     1      -0.299  11.976  21.032  0.00  0.00    +0.000 C 
ATOM      7  C   UNL     1      -0.778  12.407  19.658  0.00  0.00    +0.000 C 
ATOM      8  N   UNL     1       0.423  12.932  18.983  0.00  0.00    +0.000 NA
ATOM      9  C   UNL     1       1.523  12.058  19.449  0.00  0.00    +0.000 C 
BRANCH   8  10
ATOM     10  C   UNL     1       0.634  14.347  19.336  0.00  0.00    +0.000 C 
BRANCH  10  11
ATOM     11  C   UNL     1       2.041  14.849  19.083  0.00  0.00    +0.000 A 
ATOM     12  C   UNL     1       2.978  14.923  20.119  0.00  0.00    +0.000 A 
ATOM     13  C   UNL     1       4.289  15.335  19.853  0.00  0.00    +0.000 A 
ATOM     14  C   UNL     1       4.683  15.673  18.556  0.00  0.00    +0.000 A 
ATOM     15  C   UNL     1       3.737  15.666  17.535  0.00  0.00    +0.000 A 
ATOM     16  C   UNL     1       2.431  15.235  17.792  0.00  0.00    +0.000 A 
BRANCH  14  17
ATOM     17  O   UNL     1       5.988  16.039  18.428  0.00  0.00    +0.000 OA
BRANCH  17  18
ATOM     18  C   UNL     1       6.969  15.040  18.182  0.00  0.00    +0.000 C 
ATOM     19  F   UNL     1       7.543  14.533  19.293  0.00  0.00    +0.000 F 
ATOM     20  F   UNL     1       6.410  14.027  17.482  0.00  0.00    +0.000 F 
ATOM     21  F   UNL     1       7.950  15.580  17.424  0.00  0.00    +0.000 F 
ENDBRANCH  17  18
ENDBRANCH  14  17
ENDBRANCH  10  11
ENDBRANCH   8  10
ENDBRANCH   3   5
BRANCH   2  22
ATOM     22  C   UNL     1       1.041   7.545  21.169  0.00  0.00    +0.000 C 
BRANCH  22  23
ATOM     23  N   UNL     1       2.041   7.069  20.232  0.00  0.00    +0.000 N 
ATOM     24  C   UNL     1       2.369   5.736  20.164  0.00  0.00    +0.000 C 
ATOM     25  O   UNL     1       1.846   4.884  20.875  0.00  0.00    +0.000 OA
ATOM     26  H   UNL     1       2.480   7.751  19.630  0.00  0.00    +0.000 HD
BRANCH  24  27
ATOM     27  C   UNL     1       3.399   5.353  19.161  0.00  0.00    +0.000 A 
ATOM     28  C   UNL     1       2.994   4.659  18.015  0.00  0.00    +0.000 A 
ATOM     29  C   UNL     1       3.937   4.257  17.067  0.00  0.00    +0.000 A 
ATOM     30  C   UNL     1       5.292   4.531  17.267  0.00  0.00    +0.000 A 
ATOM     31  C   UNL     1       5.717   5.214  18.417  0.00  0.00    +0.000 A 
ATOM     32  C   UNL     1       4.758   5.630  19.360  0.00  0.00    +0.000 A 
BRANCH  31  33
ATOM     33  C   UNL     1       7.180   5.491  18.666  0.00  0.00    +0.000 C 
ATOM     34  F   UNL     1       8.011   4.533  18.171  0.00  0.00    +0.000 F 
ATOM     35  F   UNL     1       7.584   6.665  18.108  0.00  0.00    +0.000 F 
ATOM     36  F   UNL     1       7.468   5.588  19.993  0.00  0.00    +0.000 F 
ENDBRANCH  31  33
ENDBRANCH  24  27
ENDBRANCH  22  23
ENDBRANCH   2  22
TORSDOF 9
ENDMDL
MODEL 9
REMARK VINA RESULT:      -7.8      4.301      9.766
REMARK  Name = 
REMARK  9 active torsions:
REMARK  status: ('A' for Active; 'I' for Inactive)
REMARK    1  A    between atoms: C_2  and  C_3
REMARK    2  A    between atoms: C_3  and  N_4
REMARK    3  A    between atoms: C_5  and  C_7
REMARK    4  A    between atoms: C_11  and  C_12
REMARK    5  A    between atoms: N_17  and  C_18
REMARK    6  A    between atoms: N_21  and  C_22
REMARK    7  A    between atoms: C_22  and  C_23
REMARK    8  A    between atoms: C_26  and  O_27
REMARK    9  A    between atoms: O_27  and  C_28
REMARK                            x       y       z     vdW  Elec       q    Type
REMARK                         _______ _______ _______ _____ _____    ______ ____
ROOT
ATOM      1  O   UNL     1       1.833   9.474  22.226  0.00  0.00    +0.000 OA
ATOM      2  C   UNL     1       1.155   8.926  21.360  0.00  0.00    +0.000 C 
ATOM      3  N   UNL     1       0.278   9.598  20.537  0.00  0.00    +0.000 N 
ATOM      4  H   UNL     1      -0.478   9.045  20.134  0.00  0.00    +0.000 HD
ENDROOT
BRANCH   3   5
ATOM      5  C   UNL     1       0.095  11.045  20.630  0.00  0.00    +0.000 C 
ATOM      6  C   UNL     1      -1.182  11.492  19.931  0.00  0.00    +0.000 C 
ATOM      7  C   UNL     1      -0.693  11.855  18.541  0.00  0.00    +0.000 C 
ATOM      8  N   UNL     1       0.599  12.534  18.756  0.00  0.00    +0.000 NA
ATOM      9  C   UNL     1       1.212  11.813  19.896  0.00  0.00    +0.000 C 
BRANCH   8  10
ATOM     10  C   UNL     1       0.386  13.965  19.037  0.00  0.00    +0.000 C 
BRANCH  10  11
ATOM     11  C   UNL     1       1.638  14.812  18.933  0.00  0.00    +0.000 A 
ATOM     12  C   UNL     1       2.636  14.513  17.999  0.00  0.00    +0.000 A 
ATOM     13  C   UNL     1       3.758  15.341  17.880  0.00  0.00    +0.000 A 
ATOM     14  C   UNL     1       3.899  16.474  18.684  0.00  0.00    +0.000 A 
ATOM     15  C   UNL     1       2.943  16.738  19.661  0.00  0.00    +0.000 A 
ATOM     16  C   UNL     1       1.809  15.925  19.769  0.00  0.00    +0.000 A 
BRANCH  14  17
ATOM     17  O   UNL     1       5.025  17.205  18.456  0.00  0.00    +0.000 OA
BRANCH  17  18
ATOM     18  C   UNL     1       6.260  16.766  19.007  0.00  0.00    +0.000 C 
ATOM     19  F   UNL     1       7.078  17.761  19.410  0.00  0.00    +0.000 F 
ATOM     20  F   UNL     1       6.019  15.951  20.057  0.00  0.00    +0.000 F 
ATOM     21  F   UNL     1       6.918  16.051  18.066  0.00  0.00    +0.000 F 
ENDBRANCH  17  18
ENDBRANCH  14  17
ENDBRANCH  10  11
ENDBRANCH   8  10
ENDBRANCH   3   5
BRANCH   2  22
ATOM     22  C   UNL     1       1.160   7.411  21.159  0.00  0.00    +0.000 C 
BRANCH  22  23
ATOM     23  N   UNL     1       2.185   7.023  20.208  0.00  0.00    +0.000 N 
ATOM     24  C   UNL     1       2.542   5.704  20.051  0.00  0.00    +0.000 C 
ATOM     25  O   UNL     1       2.025   4.794  20.691  0.00  0.00    +0.000 OA
ATOM     26  H   UNL     1       2.620   7.754  19.664  0.00  0.00    +0.000 HD
BRANCH  24  27
ATOM     27  C   UNL     1       3.596   5.415  19.043  0.00  0.00    +0.000 A 
ATOM     28  C   UNL     1       3.216   4.861  17.815  0.00  0.00    +0.000 A 
ATOM     29  C   UNL     1       4.182   4.547  16.857  0.00  0.00    +0.000 A 
ATOM     30  C   UNL     1       5.535   4.770  17.126  0.00  0.00    +0.000 A 
ATOM     31  C   UNL     1       5.934   5.311  18.357  0.00  0.00    +0.000 A 
ATOM     32  C   UNL     1       4.953   5.640  19.312  0.00  0.00    +0.000 A 
BRANCH  31  33
ATOM     33  C   UNL     1       7.393   5.529  18.678  0.00  0.00    +0.000 C 
ATOM     34  F   UNL     1       7.898   6.689  18.177  0.00  0.00    +0.000 F 
ATOM     35  F   UNL     1       7.625   5.565  20.019  0.00  0.00    +0.000 F 
ATOM     36  F   UNL     1       8.183   4.533  18.189  0.00  0.00    +0.000 F 
ENDBRANCH  31  33
ENDBRANCH  24  27
ENDBRANCH  22  23
ENDBRANCH   2  22
TORSDOF 9
ENDMDL
