MODEL 1
REMARK VINA RESULT:      -8.8      0.000      0.000
REMARK  Name = 
REMARK  8 active torsions:
REMARK  status: ('A' for Active; 'I' for Inactive)
REMARK    1  A    between atoms: C_1  and  C_2
REMARK    2  A    between atoms: C_6  and  N_7
REMARK    3  A    between atoms: N_7  and  S_8
REMARK    4  A    between atoms: S_8  and  C_11
REMARK    5  A    between atoms: C_13  and  C_14
REMARK    6  A    between atoms: N_16  and  C_17
REMARK    7  A    between atoms: C_17  and  C_18
REMARK    8  A    between atoms: C_26  and  C_27
REMARK                            x       y       z     vdW  Elec       q    Type
REMARK                         _______ _______ _______ _____ _____    ______ ____
ROOT
ATOM      1  C   UNL     1       4.587   5.945  18.459  0.00  0.00    +0.000 A 
ATOM      2  C   UNL     1       3.766   6.142  19.593  0.00  0.00    +0.000 A 
ATOM      3  C   UNL     1       2.670   7.014  19.533  0.00  0.00    +0.000 A 
ATOM      4  C   UNL     1       2.402   7.680  18.330  0.00  0.00    +0.000 A 
ATOM      5  C   UNL     1       3.222   7.494  17.212  0.00  0.00    +0.000 A 
ATOM      6  C   UNL     1       4.328   6.630  17.253  0.00  0.00    +0.000 A 
ATOM      7  C   UNL     1       5.173   6.472  16.019  0.00  0.00    +0.000 C 
ENDROOT
BRANCH   3   8
ATOM      8  C   UNL     1       1.743   7.253  20.687  0.00  0.00    +0.000 C 
ATOM      9  O   UNL     1       1.012   6.355  21.083  0.00  0.00    +0.000 OA
ATOM     10  N   UNL     1       1.737   8.521  21.232  0.00  0.00    +0.000 N 
ATOM     11  H   UNL     1       2.320   9.254  20.857  0.00  0.00    +0.000 HD
BRANCH  10  12
ATOM     12  C   UNL     1       0.871   8.886  22.340  0.00  0.00    +0.000 C 
BRANCH  12  13
ATOM     13  C   UNL     1       0.030  10.112  22.061  0.00  0.00    +0.000 A 
ATOM     14  C   UNL     1      -0.180  10.535  20.748  0.00  0.00    +0.000 A 
ATOM     15  C   UNL     1      -0.944  11.679  20.519  0.00  0.00    +0.000 A 
ATOM     16  C   UNL     1      -1.481  12.367  21.599  0.00  0.00    +0.000 A 
ATOM     17  C   UNL     1      -1.233  11.879  22.871  0.00  0.00    +0.000 A 
ATOM     18  N   UNL     1      -0.495  10.773  23.126  0.00  0.00    +0.000 NA
ENDBRANCH  12  13
ENDBRANCH  10  12
ENDBRANCH   3   8
BRANCH   1  19
ATOM     19  S   UNL     1       5.974   4.818  18.621  0.00  0.00    +0.000 S 
ATOM     20  O   UNL     1       6.606   5.064  19.901  0.00  0.00    +0.000 OA
ATOM     21  O   UNL     1       6.741   4.907  17.395  0.00  0.00    +0.000 OA
BRANCH  19  22
ATOM     22  N   UNL     1       5.300   3.288  18.655  0.00  0.00    +0.000 N 
ATOM     23  H   UNL     1       5.930   2.495  18.579  0.00  0.00    +0.000 HD
BRANCH  22  29
ATOM     24  C   UNL     1       1.590   2.500  21.777  0.00  0.00    +0.000 C 
ATOM     25  C   UNL     1       2.061   2.737  20.375  0.00  0.00    +0.000 A 
ATOM     26  C   UNL     1       1.180   2.769  19.290  0.00  0.00    +0.000 A 
ATOM     27  C   UNL     1       1.665   2.978  17.997  0.00  0.00    +0.000 A 
ATOM     28  C   UNL     1       3.034   3.143  17.770  0.00  0.00    +0.000 A 
ATOM     29  C   UNL     1       3.914   3.095  18.844  0.00  0.00    +0.000 A 
ATOM     30  C   UNL     1       3.426   2.920  20.139  0.00  0.00    +0.000 A 
ENDBRANCH  22  29
ENDBRANCH  19  22
ENDBRANCH   1  19
TORSDOF 6
ENDMDL
MODEL 2
REMARK VINA RESULT:      -8.7      2.718      4.273
REMARK  Name = 
REMARK  8 active torsions:
REMARK  status: ('A' for Active; 'I' for Inactive)
REMARK    1  A    between atoms: C_1  and  C_2
REMARK    2  A    between atoms: C_6  and  N_7
REMARK    3  A    between atoms: N_7  and  S_8
REMARK    4  A    between atoms: S_8  and  C_11
REMARK    5  A    between atoms: C_13  and  C_14
REMARK    6  A    between atoms: N_16  and  C_17
REMARK    7  A    between atoms: C_17  and  C_18
REMARK    8  A    between atoms: C_26  and  C_27
REMARK                            x       y       z     vdW  Elec       q    Type
REMARK                         _______ _______ _______ _____ _____    ______ ____
ROOT
ATOM      1  C   UNL     1       2.507   4.432  18.885  0.00  0.00    +0.000 A 
ATOM      2  C   UNL     1       2.353   5.676  18.232  0.00  0.00    +0.000 A 
ATOM      3  C   UNL     1       2.161   6.848  18.975  0.00  0.00    +0.000 A 
ATOM      4  C   UNL     1       2.131   6.765  20.373  0.00  0.00    +0.000 A 
ATOM      5  C   UNL     1       2.272   5.531  21.019  0.00  0.00    +0.000 A 
ATOM      6  C   UNL     1       2.458   4.344  20.292  0.00  0.00    +0.000 A 
ATOM      7  C   UNL     1       2.603   3.049  21.043  0.00  0.00    +0.000 C 
ENDROOT
BRANCH   3   8
ATOM      8  C   UNL     1       2.014   8.204  18.351  0.00  0.00    +0.000 C 
ATOM      9  O   UNL     1       2.654   8.491  17.349  0.00  0.00    +0.000 OA
ATOM     10  N   UNL     1       1.168   9.094  18.982  0.00  0.00    +0.000 N 
ATOM     11  H   UNL     1       0.686   8.845  19.832  0.00  0.00    +0.000 HD
BRANCH  10  12
ATOM     12  C   UNL     1       0.955  10.444  18.489  0.00  0.00    +0.000 C 
BRANCH  12  13
ATOM     13  C   UNL     1      -0.497  10.869  18.525  0.00  0.00    +0.000 A 
ATOM     14  C   UNL     1      -1.437  10.225  17.721  0.00  0.00    +0.000 A 
ATOM     15  C   UNL     1      -2.765  10.649  17.759  0.00  0.00    +0.000 A 
ATOM     16  C   UNL     1      -3.123  11.696  18.599  0.00  0.00    +0.000 A 
ATOM     17  C   UNL     1      -2.132  12.278  19.371  0.00  0.00    +0.000 A 
ATOM     18  N   UNL     1      -0.834  11.891  19.356  0.00  0.00    +0.000 NA
ENDBRANCH  12  13
ENDBRANCH  10  12
ENDBRANCH   3   8
BRANCH   1  19
ATOM     19  S   UNL     1       2.740   2.976  17.861  0.00  0.00    +0.000 S 
ATOM     20  O   UNL     1       2.173   3.249  16.556  0.00  0.00    +0.000 OA
ATOM     21  O   UNL     1       2.290   1.835  18.633  0.00  0.00    +0.000 OA
BRANCH  19  22
ATOM     22  N   UNL     1       4.396   2.816  17.690  0.00  0.00    +0.000 N 
ATOM     23  H   UNL     1       4.795   1.891  17.823  0.00  0.00    +0.000 HD
BRANCH  22  29
ATOM     24  C   UNL     1       7.809   6.106  18.976  0.00  0.00    +0.000 C 
ATOM     25  C   UNL     1       6.920   5.523  17.921  0.00  0.00    +0.000 A 
ATOM     26  C   UNL     1       6.886   6.024  16.617  0.00  0.00    +0.000 A 
ATOM     27  C   UNL     1       6.031   5.458  15.668  0.00  0.00    +0.000 A 
ATOM     28  C   UNL     1       5.190   4.397  16.014  0.00  0.00    +0.000 A 
ATOM     29  C   UNL     1       5.209   3.907  17.314  0.00  0.00    +0.000 A 
ATOM     30  C   UNL     1       6.087   4.450  18.252  0.00  0.00    +0.000 A 
ENDBRANCH  22  29
ENDBRANCH  19  22
ENDBRANCH   1  19
TORSDOF 6
ENDMDL
MODEL 3
REMARK VINA RESULT:      -8.6      3.017      4.934
REMARK  Name = 
REMARK  8 active torsions:
REMARK  status: ('A' for Active; 'I' for Inactive)
REMARK    1  A    between atoms: C_1  and  C_2
REMARK    2  A    between atoms: C_6  and  N_7
REMARK    3  A    between atoms: N_7  and  S_8
REMARK    4  A    between atoms: S_8  and  C_11
REMARK    5  A    between atoms: C_13  and  C_14
REMARK    6  A    between atoms: N_16  and  C_17
REMARK    7  A    between atoms: C_17  and  C_18
REMARK    8  A    between atoms: C_26  and  C_27
REMARK                            x       y       z     vdW  Elec       q    Type
REMARK                         _______ _______ _______ _____ _____    ______ ____
ROOT
ATOM      1  C   UNL     1       3.829   5.290  18.270  0.00  0.00    +0.000 A 
ATOM      2  C   UNL     1       3.417   6.581  17.870  0.00  0.00    +0.000 A 
ATOM      3  C   UNL     1       2.513   7.312  18.653  0.00  0.00    +0.000 A 
ATOM      4  C   UNL     1       2.033   6.743  19.839  0.00  0.00    +0.000 A 
ATOM      5  C   UNL     1       2.433   5.459  20.229  0.00  0.00    +0.000 A 
ATOM      6  C   UNL     1       3.331   4.708  19.455  0.00  0.00    +0.000 A 
ATOM      7  C   UNL     1       3.723   3.335  19.926  0.00  0.00    +0.000 C 
ENDROOT
BRANCH   3   8
ATOM      8  C   UNL     1       2.050   8.695  18.303  0.00  0.00    +0.000 C 
ATOM      9  O   UNL     1       2.445   9.233  17.277  0.00  0.00    +0.000 OA
ATOM     10  N   UNL     1       1.209   9.319  19.202  0.00  0.00    +0.000 N 
ATOM     11  H   UNL     1       0.934   8.867  20.061  0.00  0.00    +0.000 HD
BRANCH  10  12
ATOM     12  C   UNL     1       0.706  10.665  18.988  0.00  0.00    +0.000 C 
BRANCH  12  13
ATOM     13  C   UNL     1      -0.748  10.699  18.570  0.00  0.00    +0.000 A 
ATOM     14  C   UNL     1      -1.211   9.844  17.570  0.00  0.00    +0.000 A 
ATOM     15  C   UNL     1      -2.550   9.909  17.190  0.00  0.00    +0.000 A 
ATOM     16  C   UNL     1      -3.394  10.817  17.817  0.00  0.00    +0.000 A 
ATOM     17  C   UNL     1      -2.859  11.626  18.805  0.00  0.00    +0.000 A 
ATOM     18  N   UNL     1      -1.564  11.588  19.196  0.00  0.00    +0.000 NA
ENDBRANCH  12  13
ENDBRANCH  10  12
ENDBRANCH   3   8
BRANCH   1  19
ATOM     19  S   UNL     1       4.982   4.417  17.207  0.00  0.00    +0.000 S 
ATOM     20  O   UNL     1       4.384   3.150  16.838  0.00  0.00    +0.000 OA
ATOM     21  O   UNL     1       6.276   4.456  17.859  0.00  0.00    +0.000 OA
BRANCH  19  22
ATOM     22  N   UNL     1       5.111   5.356  15.829  0.00  0.00    +0.000 N 
ATOM     23  H   UNL     1       4.703   6.287  15.854  0.00  0.00    +0.000 HD
BRANCH  22  29
ATOM     24  C   UNL     1       5.077   2.710  11.691  0.00  0.00    +0.000 C 
ATOM     25  C   UNL     1       5.807   3.628  12.623  0.00  0.00    +0.000 A 
ATOM     26  C   UNL     1       7.125   4.030  12.390  0.00  0.00    +0.000 A 
ATOM     27  C   UNL     1       7.773   4.875  13.294  0.00  0.00    +0.000 A 
ATOM     28  C   UNL     1       7.118   5.316  14.447  0.00  0.00    +0.000 A 
ATOM     29  C   UNL     1       5.813   4.905  14.691  0.00  0.00    +0.000 A 
ATOM     30  C   UNL     1       5.156   4.088  13.771  0.00  0.00    +0.000 A 
ENDBRANCH  22  29
ENDBRANCH  19  22
ENDBRANCH   1  19
TORSDOF 6
ENDMDL
MODEL 4
REMARK VINA RESULT:      -8.6      2.707      4.476
REMARK  Name = 
REMARK  8 active torsions:
REMARK  status: ('A' for Active; 'I' for Inactive)
REMARK    1  A    between atoms: C_1  and  C_2
REMARK    2  A    between atoms: C_6  and  N_7
REMARK    3  A    between atoms: N_7  and  S_8
REMARK    4  A    between atoms: S_8  and  C_11
REMARK    5  A    between atoms: C_13  and  C_14
REMARK    6  A    between atoms: N_16  and  C_17
REMARK    7  A    between atoms: C_17  and  C_18
REMARK    8  A    between atoms: C_26  and  C_27
REMARK                            x       y       z     vdW  Elec       q    Type
REMARK                         _______ _______ _______ _____ _____    ______ ____
ROOT
ATOM      1  C   UNL     1       2.481   4.425  18.900  0.00  0.00    +0.000 A 
ATOM      2  C   UNL     1       2.322   5.678  18.266  0.00  0.00    +0.000 A 
ATOM      3  C   UNL     1       2.109   6.835  19.026  0.00  0.00    +0.000 A 
ATOM      4  C   UNL     1       2.062   6.729  20.421  0.00  0.00    +0.000 A 
ATOM      5  C   UNL     1       2.209   5.486  21.048  0.00  0.00    +0.000 A 
ATOM      6  C   UNL     1       2.416   4.313  20.305  0.00  0.00    +0.000 A 
ATOM      7  C   UNL     1       2.566   3.007  21.035  0.00  0.00    +0.000 C 
ENDROOT
BRANCH   3   8
ATOM      8  C   UNL     1       1.955   8.200  18.423  0.00  0.00    +0.000 C 
ATOM      9  O   UNL     1       2.426   8.440  17.320  0.00  0.00    +0.000 OA
ATOM     10  N   UNL     1       1.304   9.150  19.184  0.00  0.00    +0.000 N 
ATOM     11  H   UNL     1       0.964   8.936  20.109  0.00  0.00    +0.000 HD
BRANCH  10  12
ATOM     12  C   UNL     1       1.108  10.514  18.722  0.00  0.00    +0.000 C 
BRANCH  12  13
ATOM     13  C   UNL     1      -0.351  10.899  18.604  0.00  0.00    +0.000 A 
ATOM     14  C   UNL     1      -1.209  10.158  17.791  0.00  0.00    +0.000 A 
ATOM     15  C   UNL     1      -2.544  10.546  17.685  0.00  0.00    +0.000 A 
ATOM     16  C   UNL     1      -2.990  11.654  18.394  0.00  0.00    +0.000 A 
ATOM     17  C   UNL     1      -2.078  12.331  19.184  0.00  0.00    +0.000 A 
ATOM     18  N   UNL     1      -0.776  11.981  19.308  0.00  0.00    +0.000 NA
ENDBRANCH  12  13
ENDBRANCH  10  12
ENDBRANCH   3   8
BRANCH   1  19
ATOM     19  S   UNL     1       2.742   2.989  17.855  0.00  0.00    +0.000 S 
ATOM     20  O   UNL     1       2.354   3.340  16.503  0.00  0.00    +0.000 OA
ATOM     21  O   UNL     1       2.132   1.858  18.523  0.00  0.00    +0.000 OA
BRANCH  19  22
ATOM     22  N   UNL     1       4.393   2.724  17.872  0.00  0.00    +0.000 N 
ATOM     23  H   UNL     1       4.718   1.797  18.134  0.00  0.00    +0.000 HD
BRANCH  22  29
ATOM     24  C   UNL     1       6.876   4.907  14.240  0.00  0.00    +0.000 C 
ATOM     25  C   UNL     1       6.521   4.840  15.693  0.00  0.00    +0.000 A 
ATOM     26  C   UNL     1       7.060   5.723  16.632  0.00  0.00    +0.000 A 
ATOM     27  C   UNL     1       6.712   5.615  17.981  0.00  0.00    +0.000 A 
ATOM     28  C   UNL     1       5.833   4.615  18.408  0.00  0.00    +0.000 A 
ATOM     29  C   UNL     1       5.308   3.725  17.480  0.00  0.00    +0.000 A 
ATOM     30  C   UNL     1       5.630   3.855  16.129  0.00  0.00    +0.000 A 
ENDBRANCH  22  29
ENDBRANCH  19  22
ENDBRANCH   1  19
TORSDOF 6
ENDMDL
MODEL 5
REMARK VINA RESULT:      -8.5      2.627      4.239
REMARK  Name = 
REMARK  8 active torsions:
REMARK  status: ('A' for Active; 'I' for Inactive)
REMARK    1  A    between atoms: C_1  and  C_2
REMARK    2  A    between atoms: C_6  and  N_7
REMARK    3  A    between atoms: N_7  and  S_8
REMARK    4  A    between atoms: S_8  and  C_11
REMARK    5  A    between atoms: C_13  and  C_14
REMARK    6  A    between atoms: N_16  and  C_17
REMARK    7  A    between atoms: C_17  and  C_18
REMARK    8  A    between atoms: C_26  and  C_27
REMARK                            x       y       z     vdW  Elec       q    Type
REMARK                         _______ _______ _______ _____ _____    ______ ____
ROOT
ATOM      1  C   UNL     1       2.475   4.494  18.843  0.00  0.00    +0.000 A 
ATOM      2  C   UNL     1       2.365   5.742  18.189  0.00  0.00    +0.000 A 
ATOM      3  C   UNL     1       2.168   6.915  18.928  0.00  0.00    +0.000 A 
ATOM      4  C   UNL     1       2.087   6.830  20.323  0.00  0.00    +0.000 A 
ATOM      5  C   UNL     1       2.184   5.592  20.970  0.00  0.00    +0.000 A 
ATOM      6  C   UNL     1       2.375   4.404  20.247  0.00  0.00    +0.000 A 
ATOM      7  C   UNL     1       2.471   3.104  20.998  0.00  0.00    +0.000 C 
ENDROOT
BRANCH   3   8
ATOM      8  C   UNL     1       2.066   8.275  18.304  0.00  0.00    +0.000 C 
ATOM      9  O   UNL     1       2.652   8.516  17.257  0.00  0.00    +0.000 OA
ATOM     10  N   UNL     1       1.325   9.221  18.983  0.00  0.00    +0.000 N 
ATOM     11  H   UNL     1       0.888   9.008  19.866  0.00  0.00    +0.000 HD
BRANCH  10  12
ATOM     12  C   UNL     1       1.166  10.580  18.494  0.00  0.00    +0.000 C 
BRANCH  12  13
ATOM     13  C   UNL     1      -0.159  11.201  18.880  0.00  0.00    +0.000 A 
ATOM     14  C   UNL     1      -0.244  12.043  19.989  0.00  0.00    +0.000 A 
ATOM     15  C   UNL     1      -1.480  12.587  20.334  0.00  0.00    +0.000 A 
ATOM     16  C   UNL     1      -2.597  12.284  19.564  0.00  0.00    +0.000 A 
ATOM     17  C   UNL     1      -2.428  11.447  18.475  0.00  0.00    +0.000 A 
ATOM     18  N   UNL     1      -1.242  10.902  18.114  0.00  0.00    +0.000 NA
ENDBRANCH  12  13
ENDBRANCH  10  12
ENDBRANCH   3   8
BRANCH   1  19
ATOM     19  S   UNL     1       2.719   3.037  17.823  0.00  0.00    +0.000 S 
ATOM     20  O   UNL     1       2.171   3.310  16.510  0.00  0.00    +0.000 OA
ATOM     21  O   UNL     1       2.256   1.898  18.589  0.00  0.00    +0.000 OA
BRANCH  19  22
ATOM     22  N   UNL     1       4.377   2.874  17.674  0.00  0.00    +0.000 N 
ATOM     23  H   UNL     1       4.773   1.948  17.812  0.00  0.00    +0.000 HD
BRANCH  22  29
ATOM     24  C   UNL     1       7.832   6.109  18.986  0.00  0.00    +0.000 C 
ATOM     25  C   UNL     1       6.929   5.552  17.929  0.00  0.00    +0.000 A 
ATOM     26  C   UNL     1       6.889   6.076  16.634  0.00  0.00    +0.000 A 
ATOM     27  C   UNL     1       6.020   5.534  15.683  0.00  0.00    +0.000 A 
ATOM     28  C   UNL     1       5.172   4.476  16.019  0.00  0.00    +0.000 A 
ATOM     29  C   UNL     1       5.197   3.963  17.310  0.00  0.00    +0.000 A 
ATOM     30  C   UNL     1       6.089   4.482  18.249  0.00  0.00    +0.000 A 
ENDBRANCH  22  29
ENDBRANCH  19  22
ENDBRANCH   1  19
TORSDOF 6
ENDMDL
MODEL 6
REMARK VINA RESULT:      -8.4      2.594      4.635
REMARK  Name = 
REMARK  8 active torsions:
REMARK  status: ('A' for Active; 'I' for Inactive)
REMARK    1  A    between atoms: C_1  and  C_2
REMARK    2  A    between atoms: C_6  and  N_7
REMARK    3  A    between atoms: N_7  and  S_8
REMARK    4  A    between atoms: S_8  and  C_11
REMARK    5  A    between atoms: C_13  and  C_14
REMARK    6  A    between atoms: N_16  and  C_17
REMARK    7  A    between atoms: C_17  and  C_18
REMARK    8  A    between atoms: C_26  and  C_27
REMARK                            x       y       z     vdW  Elec       q    Type
REMARK                         _______ _______ _______ _____ _____    ______ ____
ROOT
ATOM      1  C   UNL     1       4.007   5.074  18.267  0.00  0.00    +0.000 A 
ATOM      2  C   UNL     1       3.516   6.353  17.921  0.00  0.00    +0.000 A 
ATOM      3  C   UNL     1       2.593   7.007  18.748  0.00  0.00    +0.000 A 
ATOM      4  C   UNL     1       2.172   6.373  19.924  0.00  0.00    +0.000 A 
ATOM      5  C   UNL     1       2.650   5.101  20.261  0.00  0.00    +0.000 A 
ATOM      6  C   UNL     1       3.570   4.427  19.442  0.00  0.00    +0.000 A 
ATOM      7  C   UNL     1       4.047   3.062  19.857  0.00  0.00    +0.000 C 
ENDROOT
BRANCH   3   8
ATOM      8  C   UNL     1       2.047   8.373  18.456  0.00  0.00    +0.000 C 
ATOM      9  O   UNL     1       2.275   8.907  17.379  0.00  0.00    +0.000 OA
ATOM     10  N   UNL     1       1.328   8.987  19.461  0.00  0.00    +0.000 N 
ATOM     11  H   UNL     1       1.192   8.540  20.355  0.00  0.00    +0.000 HD
BRANCH  10  12
ATOM     12  C   UNL     1       0.764  10.318  19.311  0.00  0.00    +0.000 C 
BRANCH  12  13
ATOM     13  C   UNL     1       0.075  10.818  20.562  0.00  0.00    +0.000 A 
ATOM     14  C   UNL     1      -0.334  12.149  20.653  0.00  0.00    +0.000 A 
ATOM     15  C   UNL     1      -0.949  12.589  21.824  0.00  0.00    +0.000 A 
ATOM     16  C   UNL     1      -1.145  11.695  22.869  0.00  0.00    +0.000 A 
ATOM     17  C   UNL     1      -0.717  10.389  22.697  0.00  0.00    +0.000 A 
ATOM     18  N   UNL     1      -0.116   9.931  21.574  0.00  0.00    +0.000 NA
ENDBRANCH  12  13
ENDBRANCH  10  12
ENDBRANCH   3   8
BRANCH   1  19
ATOM     19  S   UNL     1       5.180   4.302  17.150  0.00  0.00    +0.000 S 
ATOM     20  O   UNL     1       4.673   2.990  16.802  0.00  0.00    +0.000 OA
ATOM     21  O   UNL     1       6.494   4.446  17.744  0.00  0.00    +0.000 OA
BRANCH  19  22
ATOM     22  N   UNL     1       5.170   5.250  15.773  0.00  0.00    +0.000 N 
ATOM     23  H   UNL     1       4.696   6.148  15.823  0.00  0.00    +0.000 HD
BRANCH  22  29
ATOM     24  C   UNL     1       5.114   2.623  11.622  0.00  0.00    +0.000 C 
ATOM     25  C   UNL     1       5.824   3.586  12.524  0.00  0.00    +0.000 A 
ATOM     26  C   UNL     1       7.097   4.081  12.228  0.00  0.00    +0.000 A 
ATOM     27  C   UNL     1       7.728   4.967  13.105  0.00  0.00    +0.000 A 
ATOM     28  C   UNL     1       7.102   5.356  14.292  0.00  0.00    +0.000 A 
ATOM     29  C   UNL     1       5.844   4.854  14.597  0.00  0.00    +0.000 A 
ATOM     30  C   UNL     1       5.200   3.996  13.706  0.00  0.00    +0.000 A 
ENDBRANCH  22  29
ENDBRANCH  19  22
ENDBRANCH   1  19
TORSDOF 6
ENDMDL
MODEL 7
REMARK VINA RESULT:      -8.4      0.996      1.185
REMARK  Name = 
REMARK  8 active torsions:
REMARK  status: ('A' for Active; 'I' for Inactive)
REMARK    1  A    between atoms: C_1  and  C_2
REMARK    2  A    between atoms: C_6  and  N_7
REMARK    3  A    between atoms: N_7  and  S_8
REMARK    4  A    between atoms: S_8  and  C_11
REMARK    5  A    between atoms: C_13  and  C_14
REMARK    6  A    between atoms: N_16  and  C_17
REMARK    7  A    between atoms: C_17  and  C_18
REMARK    8  A    between atoms: C_26  and  C_27
REMARK                            x       y       z     vdW  Elec       q    Type
REMARK                         _______ _______ _______ _____ _____    ______ ____
ROOT
ATOM      1  C   UNL     1       4.592   5.873  18.185  0.00  0.00    +0.000 A 
ATOM      2  C   UNL     1       3.744   6.269  19.244  0.00  0.00    +0.000 A 
ATOM      3  C   UNL     1       2.792   7.278  19.052  0.00  0.00    +0.000 A 
ATOM      4  C   UNL     1       2.693   7.882  17.792  0.00  0.00    +0.000 A 
ATOM      5  C   UNL     1       3.540   7.498  16.746  0.00  0.00    +0.000 A 
ATOM      6  C   UNL     1       4.505   6.493  16.921  0.00  0.00    +0.000 A 
ATOM      7  C   UNL     1       5.388   6.125  15.760  0.00  0.00    +0.000 C 
ENDROOT
BRANCH   3   8
ATOM      8  C   UNL     1       1.844   7.733  20.122  0.00  0.00    +0.000 C 
ATOM      9  O   UNL     1       1.517   6.966  21.017  0.00  0.00    +0.000 OA
ATOM     10  N   UNL     1       1.350   9.017  20.015  0.00  0.00    +0.000 N 
ATOM     11  H   UNL     1       1.605   9.613  19.242  0.00  0.00    +0.000 HD
BRANCH  10  12
ATOM     12  C   UNL     1       0.410   9.569  20.976  0.00  0.00    +0.000 C 
BRANCH  12  13
ATOM     13  C   UNL     1      -0.621  10.480  20.345  0.00  0.00    +0.000 A 
ATOM     14  C   UNL     1      -0.989  10.306  19.011  0.00  0.00    +0.000 A 
ATOM     15  C   UNL     1      -1.928  11.170  18.449  0.00  0.00    +0.000 A 
ATOM     16  C   UNL     1      -2.479  12.178  19.229  0.00  0.00    +0.000 A 
ATOM     17  C   UNL     1      -2.066  12.280  20.547  0.00  0.00    +0.000 A 
ATOM     18  N   UNL     1      -1.157  11.458  21.122  0.00  0.00    +0.000 NA
ENDBRANCH  12  13
ENDBRANCH  10  12
ENDBRANCH   3   8
BRANCH   1  19
ATOM     19  S   UNL     1       5.789   4.578  18.516  0.00  0.00    +0.000 S 
ATOM     20  O   UNL     1       6.185   4.675  19.906  0.00  0.00    +0.000 OA
ATOM     21  O   UNL     1       6.785   4.639  17.464  0.00  0.00    +0.000 OA
BRANCH  19  22
ATOM     22  N   UNL     1       4.958   3.142  18.307  0.00  0.00    +0.000 N 
ATOM     23  H   UNL     1       5.477   2.346  17.947  0.00  0.00    +0.000 HD
BRANCH  22  29
ATOM     24  C   UNL     1       1.648   2.500  21.879  0.00  0.00    +0.000 C 
ATOM     25  C   UNL     1       1.945   2.729  20.429  0.00  0.00    +0.000 A 
ATOM     26  C   UNL     1       0.934   2.816  19.468  0.00  0.00    +0.000 A 
ATOM     27  C   UNL     1       1.258   3.016  18.123  0.00  0.00    +0.000 A 
ATOM     28  C   UNL     1       2.592   3.116  17.722  0.00  0.00    +0.000 A 
ATOM     29  C   UNL     1       3.600   3.014  18.673  0.00  0.00    +0.000 A 
ATOM     30  C   UNL     1       3.276   2.848  20.019  0.00  0.00    +0.000 A 
ENDBRANCH  22  29
ENDBRANCH  19  22
ENDBRANCH   1  19
TORSDOF 6
ENDMDL
MODEL 8
REMARK VINA RESULT:      -8.4      2.456      4.208
REMARK  Name = 
REMARK  8 active torsions:
REMARK  status: ('A' for Active; 'I' for Inactive)
REMARK    1  A    between atoms: C_1  and  C_2
REMARK    2  A    between atoms: C_6  and  N_7
REMARK    3  A    between atoms: N_7  and  S_8
REMARK    4  A    between atoms: S_8  and  C_11
REMARK    5  A    between atoms: C_13  and  C_14
REMARK    6  A    between atoms: N_16  and  C_17
REMARK    7  A    between atoms: C_17  and  C_18
REMARK    8  A    between atoms: C_26  and  C_27
REMARK                            x       y       z     vdW  Elec       q    Type
REMARK                         _______ _______ _______ _____ _____    ______ ____
ROOT
ATOM      1  C   UNL     1       3.028   4.090  19.486  0.00  0.00    +0.000 A 
ATOM      2  C   UNL     1       3.043   5.283  18.727  0.00  0.00    +0.000 A 
ATOM      3  C   UNL     1       2.396   6.432  19.199  0.00  0.00    +0.000 A 
ATOM      4  C   UNL     1       1.740   6.379  20.435  0.00  0.00    +0.000 A 
ATOM      5  C   UNL     1       1.715   5.195  21.181  0.00  0.00    +0.000 A 
ATOM      6  C   UNL     1       2.351   4.030  20.722  0.00  0.00    +0.000 A 
ATOM      7  C   UNL     1       2.289   2.788  21.567  0.00  0.00    +0.000 C 
ENDROOT
BRANCH   3   8
ATOM      8  C   UNL     1       2.391   7.738  18.460  0.00  0.00    +0.000 C 
ATOM      9  O   UNL     1       3.163   7.918  17.528  0.00  0.00    +0.000 OA
ATOM     10  N   UNL     1       1.517   8.707  18.909  0.00  0.00    +0.000 N 
ATOM     11  H   UNL     1       0.922   8.546  19.707  0.00  0.00    +0.000 HD
BRANCH  10  12
ATOM     12  C   UNL     1       1.430  10.019  18.292  0.00  0.00    +0.000 C 
BRANCH  12  13
ATOM     13  C   UNL     1       0.127  10.731  18.585  0.00  0.00    +0.000 A 
ATOM     14  C   UNL     1      -1.062  10.285  18.007  0.00  0.00    +0.000 A 
ATOM     15  C   UNL     1      -2.245  10.970  18.279  0.00  0.00    +0.000 A 
ATOM     16  C   UNL     1      -2.216  12.074  19.121  0.00  0.00    +0.000 A 
ATOM     17  C   UNL     1      -0.997  12.448  19.661  0.00  0.00    +0.000 A 
ATOM     18  N   UNL     1       0.169  11.806  19.416  0.00  0.00    +0.000 NA
ENDBRANCH  12  13
ENDBRANCH  10  12
ENDBRANCH   3   8
BRANCH   1  19
ATOM     19  S   UNL     1       3.874   2.661  18.807  0.00  0.00    +0.000 S 
ATOM     20  O   UNL     1       2.880   1.649  18.509  0.00  0.00    +0.000 OA
ATOM     21  O   UNL     1       4.983   2.362  19.691  0.00  0.00    +0.000 OA
BRANCH  19  22
ATOM     22  N   UNL     1       4.538   3.183  17.364  0.00  0.00    +0.000 N 
ATOM     23  H   UNL     1       4.314   2.655  16.524  0.00  0.00    +0.000 HD
BRANCH  22  29
ATOM     24  C   UNL     1       8.135   5.897  19.318  0.00  0.00    +0.000 C 
ATOM     25  C   UNL     1       7.130   5.690  18.227  0.00  0.00    +0.000 A 
ATOM     26  C   UNL     1       6.973   6.600  17.178  0.00  0.00    +0.000 A 
ATOM     27  C   UNL     1       6.013   6.375  16.189  0.00  0.00    +0.000 A 
ATOM     28  C   UNL     1       5.190   5.247  16.244  0.00  0.00    +0.000 A 
ATOM     29  C   UNL     1       5.331   4.348  17.294  0.00  0.00    +0.000 A 
ATOM     30  C   UNL     1       6.313   4.557  18.263  0.00  0.00    +0.000 A 
ENDBRANCH  22  29
ENDBRANCH  19  22
ENDBRANCH   1  19
TORSDOF 6
ENDMDL
MODEL 9
REMARK VINA RESULT:      -8.3      3.160      4.951
REMARK  Name = 
REMARK  8 active torsions:
REMARK  status: ('A' for Active; 'I' for Inactive)
REMARK    1  A    between atoms: C_1  and  C_2
REMARK    2  A    between atoms: C_6  and  N_7
REMARK    3  A    between atoms: N_7  and  S_8
REMARK    4  A    between atoms: S_8  and  C_11
REMARK    5  A    between atoms: C_13  and  C_14
REMARK    6  A    between atoms: N_16  and  C_17
REMARK    7  A    between atoms: C_17  and  C_18
REMARK    8  A    between atoms: C_26  and  C_27
REMARK                            x       y       z     vdW  Elec       q    Type
REMARK                         _______ _______ _______ _____ _____    ______ ____
ROOT
ATOM      1  C   UNL     1       4.120   6.044  17.702  0.00  0.00    +0.000 A 
ATOM      2  C   UNL     1       3.462   7.243  18.059  0.00  0.00    +0.000 A 
ATOM      3  C   UNL     1       2.467   7.240  19.046  0.00  0.00    +0.000 A 
ATOM      4  C   UNL     1       2.142   6.032  19.674  0.00  0.00    +0.000 A 
ATOM      5  C   UNL     1       2.786   4.842  19.312  0.00  0.00    +0.000 A 
ATOM      6  C   UNL     1       3.780   4.823  18.321  0.00  0.00    +0.000 A 
ATOM      7  C   UNL     1       4.435   3.514  17.975  0.00  0.00    +0.000 C 
ENDROOT
BRANCH   3   8
ATOM      8  C   UNL     1       1.745   8.477  19.492  0.00  0.00    +0.000 C 
ATOM      9  O   UNL     1       1.380   8.588  20.654  0.00  0.00    +0.000 OA
ATOM     10  N   UNL     1       1.491   9.433  18.530  0.00  0.00    +0.000 N 
ATOM     11  H   UNL     1       1.765   9.296  17.569  0.00  0.00    +0.000 HD
BRANCH  10  12
ATOM     12  C   UNL     1       0.782  10.666  18.830  0.00  0.00    +0.000 C 
BRANCH  12  13
ATOM     13  C   UNL     1      -0.662  10.649  18.377  0.00  0.00    +0.000 A 
ATOM     14  C   UNL     1      -1.084   9.735  17.412  0.00  0.00    +0.000 A 
ATOM     15  C   UNL     1      -2.416   9.752  16.999  0.00  0.00    +0.000 A 
ATOM     16  C   UNL     1      -3.291  10.673  17.560  0.00  0.00    +0.000 A 
ATOM     17  C   UNL     1      -2.796  11.542  18.517  0.00  0.00    +0.000 A 
ATOM     18  N   UNL     1      -1.509  11.551  18.939  0.00  0.00    +0.000 NA
ENDBRANCH  12  13
ENDBRANCH  10  12
ENDBRANCH   3   8
BRANCH   1  19
ATOM     19  S   UNL     1       5.376   6.132  16.424  0.00  0.00    +0.000 S 
ATOM     20  O   UNL     1       6.660   6.328  17.067  0.00  0.00    +0.000 OA
ATOM     21  O   UNL     1       4.905   7.070  15.426  0.00  0.00    +0.000 OA
BRANCH  19  22
ATOM     22  N   UNL     1       5.378   4.624  15.701  0.00  0.00    +0.000 N 
ATOM     23  H   UNL     1       4.896   3.870  16.183  0.00  0.00    +0.000 HD
BRANCH  22  29
ATOM     24  C   UNL     1       5.136   2.468  11.294  0.00  0.00    +0.000 C 
ATOM     25  C   UNL     1       5.856   3.378  12.241  0.00  0.00    +0.000 A 
ATOM     26  C   UNL     1       7.063   3.996  11.905  0.00  0.00    +0.000 A 
ATOM     27  C   UNL     1       7.708   4.826  12.825  0.00  0.00    +0.000 A 
ATOM     28  C   UNL     1       7.164   5.036  14.095  0.00  0.00    +0.000 A 
ATOM     29  C   UNL     1       5.973   4.410  14.439  0.00  0.00    +0.000 A 
ATOM     30  C   UNL     1       5.312   3.608  13.508  0.00  0.00    +0.000 A 
ENDBRANCH  22  29
ENDBRANCH  19  22
ENDBRANCH   1  19
TORSDOF 6
ENDMDL
